data_mof_unit_55529.cif
_audit_creation_date              2013-03-05T16:03:03-0500
_audit_creation_method            fapswitch 2.2
_symmetry_space_group_name_H-M    P1
_symmetry_Int_Tables_number       1
_space_group_crystal_system       triclinic
_cell_length_a                    6.943215
_cell_length_b                    18.297891
_cell_length_c                    20.158051
_cell_angle_alpha                 68.345674
_cell_angle_beta                  90.607284
_cell_angle_gamma                 90.754532
_cell_volume                      2380.01417177

loop_
_atom_site_label
_atom_site_type_symbol
_atom_site_description
_atom_site_fract_x
_atom_site_fract_y
_atom_site_fract_z
_atom_type_partial_charge
O1    O     O_R   0.488990 0.443920 0.942160 -0.597963
O2    O     O_R   0.823840 0.406530 0.087600 -0.591853
O3    O     O_R   0.999650 0.556080 0.057840 -0.598154
C1    C     C_R   0.655142 0.383612 0.115153 0.939275
O4    O     O_R   0.818390 0.434590 0.944530 -0.590534
O5    O     O_R   0.994160 0.584350 0.913750 -0.589414
C2    C     C_R   0.648805 0.420545 0.923993 0.976249
O6    O     O_R   0.494480 0.415650 0.086250 -0.588887
O7    O     O_3   0.662600 0.549100 0.990070 -0.272870
V1    V     V_3+5 0.935320 0.490890 0.001840 1.159566
O8    O     O_R   0.324240 0.593470 0.912400 -0.592835
C3    C     C_R   0.155280 0.616477 0.884929 0.940583
O9    O     O_R   0.329690 0.565410 0.055470 -0.589669
C4    C     C_R   0.162038 0.579494 0.075994 0.976925
V2    V     V_3+5 0.435990 0.509110 0.998160 1.159459
O10   O     O_3   0.158840 0.450900 0.009930 -0.272363
C5    C     C_3   0.980457 0.675974 0.264370 -0.384281
C6    C     C_3   0.335383 0.704586 0.247638 -0.388360
C7    C     C_3   0.326486 0.752429 0.297350 -0.392881
H1    H     H_    0.994532 0.683859 0.370356 0.167555
H2    H     H_    0.008080 0.613090 0.297089 0.173713
H3    H     H_    0.453695 0.728275 0.208427 0.149869
H4    H     H_    0.370164 0.642270 0.279957 0.167862
H5    H     H_    0.356886 0.712883 0.353348 0.161559
H6    H     H_    0.440645 0.798848 0.281816 0.150630
C8    C     C_1   0.110997 0.874420 0.378601 -0.282038
C9    C     C_3   0.141010 0.708644 0.207712 0.408897
C10   C     C_3   0.971454 0.723921 0.313994 -0.383138
C11   C     C_3   0.125875 0.790557 0.292705 0.411262
C12   C     C_3   0.089060 0.844319 0.213757 -0.393081
C13   C     C_3   0.097725 0.796422 0.164087 -0.394704
C14   C     C_1   0.117487 0.836541 0.340191 -0.101770
C15   C     C_1   0.149294 0.662776 0.160132 -0.098145
C16   C     C_1   0.155528 0.625106 0.121542 -0.281856
H7    H     H_    0.958051 0.801447 0.135205 0.151390
H8    H     H_    0.211219 0.821874 0.123176 0.153040
H9    H     H_    0.945339 0.872224 0.208454 0.153040
H10   H     H_    0.838545 0.678580 0.237421 0.152160
H11   H     H_    0.825353 0.749449 0.310554 0.153171
H12   H     H_    0.198568 0.892535 0.196550 0.149204
H13   H     H_    0.428556 0.546620 0.693014 0.114319
C17   C     C_R   0.991934 0.764985 0.875736 -0.153050
C18   C     C_R   0.910508 0.835224 0.873021 -0.114984
C19   C     C_R   0.897396 0.898503 0.808493 -0.122819
C20   C     C_R   0.965832 0.892058 0.746189 -0.169105
C21   C     C_R   0.047544 0.821197 0.747028 0.119421
C22   C     C_R   0.060684 0.756249 0.813213 0.118318
C23   C     C_R   0.119358 0.814968 0.683685 -0.316865
C24   C     C_R   0.203872 0.743637 0.686598 0.118504
C25   C     C_R   0.216926 0.678675 0.752776 0.119693
C26   C     C_R   0.145264 0.684926 0.816132 -0.317537
C27   C     C_R   0.272586 0.734899 0.624071 -0.156449
C28   C     C_R   0.353736 0.664619 0.626767 -0.106331
C29   C     C_R   0.366628 0.601306 0.691279 -0.114439
C30   C     C_R   0.298351 0.607772 0.753593 -0.170918
H14   H     H_    0.001808 0.718108 0.927526 0.106478
H15   H     H_    0.858585 0.840742 0.921396 0.109486
H16   H     H_    0.835182 0.953148 0.806740 0.107774
H17   H     H_    0.955067 0.943524 0.697686 0.119764
H18   H     H_    0.262850 0.781804 0.572293 0.107780
H19   H     H_    0.405589 0.659093 0.578387 0.117812
H20   H     H_    0.308956 0.556282 0.802083 0.121062
H21   H     H_    0.939100 0.455328 0.305762 0.163943
C31   C     C_R   0.485204 0.234654 0.124315 -0.153397
C32   C     C_R   0.401023 0.164094 0.126983 -0.114977
C33   C     C_R   0.388780 0.100698 0.191471 -0.118859
C34   C     C_R   0.460792 0.107359 0.253779 -0.170835
C35   C     C_R   0.545327 0.178559 0.252988 0.113072
C36   C     C_R   0.557646 0.243589 0.186852 0.115276
C37   C     C_R   0.620483 0.185079 0.316353 -0.282938
C38   C     C_R   0.707420 0.256829 0.313548 0.076115
C39   C     C_R   0.719951 0.321715 0.247436 0.136668
C40   C     C_R   0.644978 0.315216 0.184010 -0.303756
C41   C     C_R   0.778869 0.265823 0.376201 -0.288819
C42   C     C_R   0.863555 0.336623 0.374258 0.424235
C43   C     C_R   0.875510 0.399811 0.308877 -0.242983
C44   C     C_R   0.804177 0.392804 0.246649 -0.227464
H22   H     H_    0.494140 0.281644 0.072560 0.105944
H23   H     H_    0.346236 0.158430 0.078607 0.109288
H24   H     H_    0.324391 0.045810 0.193194 0.108094
H25   H     H_    0.450467 0.055804 0.302252 0.118460
H26   H     H_    0.767660 0.218136 0.427396 0.158803
H27   H     H_    0.814795 0.444237 0.198076 0.142810
O11   O     O_R   0.770890 0.084490 0.414040 -0.589592
O12   O     O_R   0.445980 0.065450 0.555510 -0.587649
O13   O     O_R   0.270670 0.915620 0.586180 -0.592101
C45   C     C_R   0.615410 0.079748 0.576000 0.978084
O14   O     O_R   0.441480 0.093500 0.412450 -0.589276
O15   O     O_R   0.266140 0.943870 0.442100 -0.600077
C46   C     C_R   0.610284 0.116568 0.385104 0.940466
O16   O     O_R   0.775410 0.056240 0.558120 -0.590038
O17   O     O_3   0.602660 0.950990 0.510100 -0.277474
V3    V     V_3+5 0.329740 0.009100 0.498130 1.175449
O18   O     O_R   0.936120 0.934420 0.444240 -0.592597
C47   C     C_R   0.103990 0.920289 0.423923 0.971314
O19   O     O_R   0.940610 0.906370 0.587310 -0.594296
C48   C     C_R   0.109493 0.883437 0.614898 0.938593
V4    V     V_3+5 0.829110 0.990690 0.501470 1.169987
O20   O     O_3   0.106080 0.049010 0.489880 -0.260571
C49   C     C_3   0.829194 0.250712 0.704818 -0.358798
C50   C     C_3   0.474003 0.273998 0.683743 -0.352048
C51   C     C_3   0.475077 0.321939 0.733483 -0.406309
H28   H     H_    0.863429 0.361436 0.722690 0.165332
H29   H     H_    0.861619 0.290725 0.649210 0.202586
H30   H     H_    0.329551 0.246327 0.685256 0.160237
H31   H     H_    0.499327 0.314463 0.627708 0.184117
H32   H     H_    0.500991 0.385246 0.701165 0.159913
H33   H     H_    0.331173 0.317088 0.758664 0.155768
C52   C     C_1   0.638767 0.375079 0.878370 -0.285979
C53   C     C_3   0.631075 0.209668 0.707022 0.375177
C54   C     C_3   0.830268 0.298610 0.754586 -0.413482
C55   C     C_3   0.632867 0.291606 0.792078 0.419977
C56   C     C_3   0.592055 0.203224 0.835203 -0.385026
C57   C     C_3   0.591139 0.155295 0.785471 -0.409927
C58   C     C_1   0.634575 0.337460 0.839703 -0.100298
C59   C     C_1   0.629309 0.163631 0.659572 -0.055568
C60   C     C_1   0.625135 0.125651 0.621227 -0.227269
H34   H     H_    0.702395 0.108720 0.804069 0.151277
H35   H     H_    0.449051 0.125266 0.788952 0.155515
H36   H     H_    0.703689 0.179468 0.877522 0.152296
H37   H     H_    0.945102 0.206002 0.721803 0.149396
H38   H     H_    0.946722 0.276687 0.795269 0.153547
H39   H     H_    0.450372 0.196085 0.862316 0.150082
N1    N     N_R   0.935801 0.344433 0.438628 0.234447
O21   O     O_R   0.013224 0.410299 0.436849 -0.421305
O22   O     O_R   0.925135 0.285802 0.499630 -0.431084

loop_
_geom_bond_atom_site_label_1
_geom_bond_atom_site_label_2
_geom_bond_distance
_ccdc_geom_bond_type
C49   C53   1.551678 S    
C50   C51   1.556832 S    
C32   H23   1.082618 S    
C45   O16   1.297899 A    
C51   C55   1.551852 S    
C54   C55   1.553059 S    
C1    O6    1.295706 A    
O17   V4    1.706609 S    
C20   C21   1.416460 A    
C9    C15   1.491366 S    
C8    C14   1.216342 T    
C23   C48   1.488335 S    
C39   C44   1.413917 A    
C10   C11   1.552275 S    
C45   C60   1.450377 S    
C11   C14   1.491496 S    
O5    C3    1.295759 A    
C12   C13   1.557090 S    
H21   C43   1.082830 S    
C44   H27   1.081434 S    
V2    O10   2.159385 S    
C30   H20   1.081283 S    
C49   H29   1.112909 S    
C59   C60   1.215189 T    
H28   C54   1.112942 S    
C6    C7    1.557112 S    
C21   C22   1.425046 A    
O13   C48   1.295782 A    
C27   H18   1.081439 S    
C17   H14   1.081432 S    
O14   V3    1.999571 S    
O12   V3    1.972527 S    
C20   H17   1.081280 S    
C19   H16   1.082863 S    
C35   C36   1.424617 A    
O19   V4    2.001685 S    
C51   H33   1.113113 S    
C37   C38   1.419953 A    
O1    V2    1.961306 S    
O7    V1    2.152536 S    
V3    O20   1.705073 S    
C57   H35   1.113044 S    
C5    H10   1.113118 S    
C33   C34   1.392997 A    
C6    H3    1.113084 S    
O9    C4    1.299760 A    
C54   H38   1.113080 S    
C37   C46   1.488221 S    
O11   C46   1.295769 A    
C41   H26   1.080640 S    
C8    C47   1.452375 S    
C55   C56   1.551442 S    
C15   C16   1.216265 T    
O12   C45   1.297797 A    
C50   H30   1.113148 S    
C21   C23   1.419310 A    
C41   C42   1.403050 A    
C9    C13   1.551793 S    
C34   C35   1.416613 A    
C5    C9    1.552427 S    
C43   C44   1.392520 A    
O4    C2    1.297717 A    
C18   H15   1.082654 S    
C22   C26   1.419250 A    
H1    C10   1.112849 S    
C10   H11   1.113156 S    
C50   C53   1.552571 S    
C28   C29   1.389127 A    
C5    H2    1.113022 S    
C42   N1    1.441163 S    
C12   H9    1.113013 S    
O15   C47   1.297343 A    
O2    C1    1.298176 A    
C42   C43   1.398533 A    
O5    V1    2.000116 S    
C11   C12   1.551886 S    
O13   V3    2.000168 S    
C56   H36   1.112944 S    
C6    H4    1.112929 S    
C56   H39   1.113024 S    
C24   C27   1.416092 A    
O19   C48   1.298936 A    
C25   C26   1.419325 A    
C12   H12   1.113056 S    
C51   H32   1.112967 S    
C31   C36   1.416122 A    
C36   C40   1.418842 A    
C1    C40   1.488482 S    
C57   H34   1.113086 S    
O3    C4    1.297290 A    
C23   C24   1.419237 A    
O14   C46   1.297947 A    
C24   C25   1.425044 A    
O6    V2    2.001128 S    
O8    V2    2.001765 S    
O9    V2    1.963932 S    
C18   C19   1.389122 A    
C13   H7    1.113006 S    
C17   C18   1.393191 A    
C28   H19   1.082653 S    
O2    V1    1.999486 S    
C53   C59   1.489546 S    
C3    C26   1.488339 S    
C19   C20   1.392993 A    
N1    O22   1.301823 A    
C56   C57   1.556530 S    
C50   H31   1.112922 S    
C53   C57   1.551894 S    
C29   C30   1.392979 A    
C49   H37   1.113083 S    
O1    C2    1.298093 A    
C5    C10   1.557165 S    
C31   H22   1.081435 S    
C6    C9    1.552457 S    
C39   C40   1.419956 A    
C4    C16   1.452250 S    
C38   C41   1.416411 A    
O8    C3    1.298956 A    
C34   H25   1.081314 S    
C33   H24   1.082839 S    
C25   C30   1.416479 A    
O11   V4    1.996523 S    
C31   C32   1.393193 A    
C7    H5    1.112899 S    
O7    V2    1.710168 S    
O4    V1    1.972667 S    
O3    V1    1.966143 S    
V1    O10   1.705005 S    
O17   V3    2.152589 S    
C17   C22   1.416104 A    
C32   C33   1.389104 A    
O16   V4    1.978216 S    
O15   V3    1.966147 S    
O18   C47   1.299745 A    
C7    H6    1.113092 S    
H13   C29   1.082857 S    
C52   C58   1.215384 T    
C2    C52   1.450705 S    
C38   C39   1.423121 A    
C49   C54   1.556681 S    
C35   C37   1.419416 A    
V4    O20   2.159397 S    
O18   V4    1.964181 S    
C13   H8    1.112930 S    
C55   C58   1.489861 S    
C27   C28   1.393206 A    
N1    O21   1.301633 A    
C7    C11   1.552490 S    
