data_mof_unit_57332.cif
_audit_creation_date              2012-12-11T14:46:13-0500
_audit_creation_method            fapswitch 2.2
_symmetry_space_group_name_H-M    P1
_symmetry_Int_Tables_number       1
_space_group_crystal_system       triclinic
_cell_length_a                    10.808594
_cell_length_b                    10.980082
_cell_length_c                    18.821198
_cell_angle_alpha                 91.472789
_cell_angle_beta                  89.471516
_cell_angle_gamma                 119.223322
_cell_volume                      1948.73163233

loop_
_atom_site_label
_atom_site_type_symbol
_atom_type_description
_atom_site_fract_x
_atom_site_fract_y
_atom_site_fract_z
_atom_type_partial_charge
C1    C     C_R   0.905545 0.613912 0.610979 0.552163
C2    C     C_R   0.955171 0.194676 0.716385 0.004757
C3    C     C_R   0.910851 0.103045 0.773876 0.009099
C4    C     C_R   0.271162 0.633372 0.603676 0.531567
C5    C     C_R   0.729515 0.203492 0.723003 0.032912
C6    C     C_R   0.689335 0.108548 0.778463 -0.019549
C7    C     C_R   0.632574 0.256638 0.708905 0.307870
C8    C     C_R   0.519247 0.228016 0.755119 -0.099657
C9    C     C_R   0.471846 0.117482 0.799146 -0.160315
C10   C     C_R   0.550310 0.050725 0.804268 -0.094862
C11   C     C_R   0.860618 0.236652 0.686469 -0.034846
C12   C     C_R   0.400425 0.605007 0.778864 -0.133276
C13   C     C_R   0.784754 0.681361 0.702110 -0.091386
C14   C     C_R   0.754448 0.692942 0.772797 -0.150183
C15   C     C_R   0.812222 0.649234 0.826236 0.029638
C16   C     C_R   0.883535 0.286849 0.612239 0.553642
C17   C     C_R   0.898909 0.591425 0.808971 -0.126853
C18   C     C_R   0.927853 0.577998 0.737786 -0.135800
C19   C     C_R   0.873325 0.625933 0.684686 0.072651
C20   C     C_R   0.266414 0.541517 0.275920 -0.141007
C21   C     C_R   0.274840 0.556621 0.203494 -0.137437
C22   C     C_R   0.336526 0.690050 0.174903 0.009012
C23   C     C_R   0.388140 0.603575 0.706287 -0.152363
C24   C     C_R   0.375140 0.807091 0.219957 -0.138800
C25   C     C_R   0.358260 0.790561 0.293236 -0.141508
C26   C     C_R   0.307771 0.657680 0.321431 0.014851
C27   C     C_R   0.791508 0.287257 0.272400 -0.118772
C28   C     C_R   0.866557 0.637154 0.397057 0.535858
C29   C     C_R   0.772781 0.251022 0.200743 0.248360
C30   C     C_R   0.851661 0.189508 0.169356 -0.002603
C31   C     C_R   0.952358 0.176767 0.210203 -0.194665
C32   C     C_R   0.966482 0.211381 0.282113 -0.158081
C33   C     C_R   0.882804 0.262884 0.313514 -0.032734
C34   C     C_R   0.322623 0.671817 0.675848 0.028036
C35   C     C_R   0.941351 0.648663 0.274060 -0.120550
C36   C     C_R   0.925587 0.661436 0.202142 -0.094651
C37   C     C_R   0.807873 0.669292 0.178776 0.086135
C38   C     C_R   0.706928 0.666495 0.227527 -0.089510
C39   C     C_R   0.722262 0.652525 0.299706 -0.107359
C40   C     C_R   0.268776 0.631060 0.395627 0.539963
C41   C     C_R   0.840511 0.645239 0.322775 0.038466
C42   C     C_R   0.766689 0.038342 0.887055 0.528791
C43   C     C_R   0.395397 0.699629 0.896422 0.523212
C44   C     C_R   0.798704 0.688090 0.898579 0.532531
C45   C     C_R   0.786913 0.075213 0.810357 -0.040631
C46   C     C_R   0.809468 0.112791 0.101254 0.571139
C47   C     C_R   0.394516 0.705848 0.103554 0.536744
C48   C     C_R   0.796612 0.698059 0.105444 0.570215
C49   C     C_R   0.888281 0.293664 0.389124 0.568058
C50   C     C_R   0.275442 0.747715 0.718871 -0.140400
C51   C     C_R   0.287356 0.748570 0.792371 -0.166622
C52   C     C_R   0.352927 0.679696 0.822380 0.023252
C53   C     C_3   0.525161 0.293480 0.612747 -0.065400
C54   C     C_R   0.988591 0.035860 0.791168 -0.089645
C55   C     C_R   0.112224 0.063934 0.755728 -0.111196
C56   C     C_R   0.167238 0.169294 0.706973 -0.117691
C57   C     C_R   0.093615 0.239055 0.690389 -0.084402
Cr1   Cr    Cr6+3 0.791660 0.390250 0.499930 1.013287
Cr2   Cr    Cr6+3 0.098520 0.708290 0.500540 1.007539
Cr3   Cr    Cr6+3 0.109770 0.401430 0.499480 0.996659
Cr4   Cr    Cr6+3 0.874790 0.925890 0.000070 1.024191
Cr5   Cr    Cr6+3 0.574120 0.948670 0.999300 1.082242
Cr6   Cr    Cr6+3 0.551420 0.625320 0.000920 1.056138
H1    H     H_    0.221786 0.799118 0.696212 0.136750
H2    H     H_    0.424893 0.911069 0.199166 0.189718
H3    H     H_    0.249585 0.805726 0.825451 0.113858
H4    H     H_    0.386540 0.880850 0.327766 0.143018
H5    H     H_    0.730918 0.330971 0.297517 0.187824
H6    H     H_    0.012936 0.130389 0.187898 0.152954
H7    H     H_    0.039301 0.193322 0.313410 0.150963
H8    H     H_    0.032778 0.642129 0.292036 0.127305
H9    H     H_    0.005089 0.666389 0.165039 0.126915
H10   H     H_    0.617388 0.676569 0.209671 0.122815
H11   H     H_    0.644741 0.650633 0.337210 0.116658
H12   H     H_    0.460816 0.284306 0.751981 0.114360
H13   H     H_    0.451373 0.550248 0.800692 0.147563
H14   H     H_    0.423933 0.543525 0.674179 0.124543
H15   H     H_    0.165749 0.005219 0.766890 0.105149
H16   H     H_    0.265489 0.195406 0.680911 0.087643
H17   H     H_    0.949534 0.954807 0.828557 0.165331
H18   H     H_    0.147615 0.327666 0.657599 0.167801
H19   H     H_    0.509575 0.962453 0.835621 0.171113
H20   H     H_    0.468623 0.351397 0.628147 0.086522
H21   H     H_    0.453353 0.178429 0.615287 0.086839
H22   H     H_    0.554398 0.315299 0.556070 0.164613
H23   H     H_    0.375758 0.083814 0.829603 0.117754
H24   H     H_    0.514942 0.375073 0.181462 0.368540
H25   H     H_    0.741687 0.717837 0.661211 0.130701
H26   H     H_    0.692989 0.743971 0.786250 0.096430
H27   H     H_    0.946105 0.560084 0.850198 0.126948
H28   H     H_    0.994206 0.532418 0.724112 0.090621
H29   H     H_    0.224532 0.437692 0.296247 0.143418
H30   H     H_    0.243005 0.464155 0.170068 0.146394
O1    O     O_R   0.766500 0.250040 0.579790 -0.463957
O2    O     O_R   0.413330 0.603360 0.920440 -0.511768
O3    O     O_R   0.676110 0.626250 0.926750 -0.487348
O4    O     O_R   0.798570 0.516780 0.574780 -0.464797
O5    O     O_R   0.895350 0.809870 0.080950 -0.523449
O6    O     O_R   0.872490 0.049760 0.073800 -0.511039
O7    O     O_R   0.691680 0.088070 0.079070 -0.419112
O8    O     O_R   0.451720 0.825250 0.074050 -0.485583
O9    O     O_R   0.413580 0.606370 0.080960 -0.522096
O10   O     O_R   0.676340 0.629040 0.075550 -0.467795
O11   O     O_3   0.666780 0.833290 0.000090 -0.290053
O12   O     O_R   0.218690 0.701900 0.425960 -0.499579
O13   O     O_R   0.984000 0.732950 0.581090 -0.518166
O14   O     O_R   0.218600 0.700890 0.574760 -0.515988
O15   O     O_R   0.249390 0.515350 0.579940 -0.552289
O16   O     O_R   0.982790 0.280900 0.573700 -0.505611
O17   O     O_R   0.766600 0.251130 0.419260 -0.508500
O18   O     O_R   0.798660 0.517790 0.425980 -0.524726
O19   O     O_R   0.984100 0.734040 0.420570 -0.502603
O20   O     O_3   0.650404 0.343715 0.654577 -0.541821
O21   O     O_2   0.705904 0.355778 0.088675 -0.274661
O22   O     O_2   0.513328 0.143035 0.139181 -0.289125
O23   O     O_R   0.249490 0.516440 0.419420 -0.527358
O24   O     O_3   0.592121 0.372612 0.208279 -0.561313
O25   O     O_R   0.982880 0.281910 0.424890 -0.490593
O26   O     O_3   0.999980 0.499990 0.499980 -0.309982
O27   O     O_R   0.895110 0.806860 0.920430 -0.545785
O28   O     O_R   0.872260 0.046970 0.925000 -0.496621
O29   O     O_R   0.691430 0.085060 0.918550 -0.490080
O30   O     O_R   0.451490 0.822460 0.925250 -0.545018
S1    S     S_3+6 0.643877 0.279498 0.156251 -0.000471

loop_
_geom_bond_atom_site_label_1
_geom_bond_atom_site_label_2
_ccdc_geom_bond_type
C46   O6    A    
C47   O8    A    
C6    C45   A    
C27   C29   A    
C50   H1    S    
C35   C36   A    
C25   H4    S    
C55   C56   A    
C2    C57   A    
C7    C8    A    
C39   C41   A    
C27   C33   A    
C20   H29   S    
C12   C23   A    
Cr2   O12   S    
C56   H16   S    
C21   H30   S    
C53   H21   S    
C5    C6    A    
C18   H28   S    
C36   C37   A    
O24   S1    S    
C15   C44   S    
H24   O24   S    
C30   C31   A    
C3    C54   A    
C43   C52   S    
C44   O27   A    
C33   C49   S    
C29   S1    S    
Cr6   O2    S    
C28   C41   S    
C56   C57   A    
Cr3   O26   S    
Cr4   O28   S    
C18   C19   A    
C39   H11   S    
Cr3   O16   S    
Cr2   O19   S    
C49   O25   A    
C8    C9    A    
C43   O2    A    
Cr3   O25   S    
C27   H5    S    
C29   C30   A    
C9    C10   A    
C54   H17   S    
Cr3   O15   S    
C1    O13   A    
Cr5   O8    S    
O21   S1    D    
C22   C47   S    
C35   H8    S    
C47   O9    A    
C13   C14   A    
Cr4   O27   S    
Cr4   O6    S    
Cr1   O4    S    
Cr6   O9    S    
C2    C11   A    
Cr5   O30   S    
C12   C52   A    
C53   O20   S    
C16   O16   A    
C50   C51   A    
Cr5   O11   S    
C28   O18   A    
C38   C39   A    
C4    O14   A    
C4    C34   S    
C1    C19   S    
Cr2   O13   S    
C34   C50   A    
C13   C19   A    
C51   C52   A    
Cr4   O11   S    
C24   C25   A    
Cr6   O10   S    
C1    O4    A    
C5    C7    A    
C55   H15   S    
C32   H7    S    
C25   C26   A    
C48   O10   A    
Cr6   O3    S    
C3    C45   A    
C8    H12   S    
Cr2   O14   S    
Cr1   O18   S    
C42   C45   S    
C14   H26   S    
C37   C38   A    
C44   O3    A    
C9    H23   S    
C4    O15   A    
C11   C16   S    
C31   C32   A    
C23   C34   A    
C17   C18   A    
C23   H14   S    
C37   C48   S    
C24   H2    S    
Cr5   O7    S    
C12   H13   S    
C57   H18   S    
Cr3   O23   S    
C51   H3    S    
C43   O30   A    
Cr5   O29   S    
C42   O29   A    
C15   C17   A    
C46   O7    A    
C54   C55   A    
Cr2   O26   S    
O22   S1    D    
Cr1   O17   S    
C30   C46   S    
C17   H27   S    
Cr6   O11   S    
C6    C10   A    
C5    C11   A    
C48   O5    A    
C16   O1    A    
C53   H20   S    
C32   C33   A    
C7    O20   S    
C2    C3    A    
Cr1   O1    S    
Cr4   O5    S    
C26   C40   S    
C40   O23   A    
C20   C26   A    
C13   H25   S    
Cr1   O26   S    
C10   H19   S    
C22   C24   A    
C35   C41   A    
C31   H6    S    
C20   C21   A    
C14   C15   A    
C49   O17   A    
C53   H22   S    
C21   C22   A    
C28   O19   A    
C36   H9    S    
C42   O28   A    
C40   O12   A    
C38   H10   S    
