data_mof_unit_38229.cif
_audit_creation_date              2012-12-11T17:33:18-0500
_audit_creation_method            fapswitch 2.2
_symmetry_space_group_name_H-M    P1
_symmetry_Int_Tables_number       1
_space_group_crystal_system       triclinic
_cell_length_a                    6.934911
_cell_length_b                    21.711687
_cell_length_c                    22.295024
_cell_angle_alpha                 107.476182
_cell_angle_beta                  90.560327
_cell_angle_gamma                 90.373888
_cell_volume                      3201.67059911

loop_
_atom_site_label
_atom_site_type_symbol
_atom_type_description
_atom_site_fract_x
_atom_site_fract_y
_atom_site_fract_z
_atom_type_partial_charge
O1    O     O_R   0.505730 0.449200 0.552060 -0.536051
O2    O     O_R   0.171560 0.427840 0.423150 -0.541540
O3    O     O_R   0.005630 0.550800 0.447940 -0.540295
C1    C     C_R   0.338371 0.409290 0.398842 0.704509
O4    O     O_R   0.175730 0.441570 0.550050 -0.539102
O5    O     O_R   0.009820 0.564620 0.575740 -0.538042
C2    C     C_R   0.344860 0.428266 0.568533 0.731341
O6    O     O_R   0.501530 0.435380 0.424260 -0.536944
O7    O     O_3   0.340640 0.540360 0.508280 -0.371362
V1    V     V_3+5 0.064080 0.492510 0.498460 1.417177
O8    O     O_R   0.680360 0.572160 0.576850 -0.543072
C3    C     C_R   0.849099 0.589866 0.601215 0.696967
O9    O     O_R   0.676190 0.558430 0.449950 -0.542019
C4    C     C_R   0.844597 0.572198 0.431841 0.687808
V2    V     V_3+5 0.564610 0.507490 0.501540 1.410480
O10   O     O_3   0.837920 0.459640 0.491720 -0.363054
C5    C     C_R   0.056597 0.799775 0.152305 -0.176400
H1    H     H_    0.158430 0.762083 0.152008 0.171691
C6    C     C_R   0.076572 0.835829 0.109603 0.413466
C7    C     C_R   0.941369 0.885522 0.110556 -0.190481
C8    C     C_R   0.789500 0.895669 0.154047 -0.150158
H2    H     H_    0.684551 0.933048 0.156476 0.152539
C9    C     C_R   0.771255 0.858704 0.195543 -0.091542
H3    H     H_    0.652687 0.867773 0.228232 0.126243
C10   C     C_R   0.905186 0.810759 0.195021 0.043041
C11   C     C_1   0.888044 0.771886 0.237585 -0.000803
C12   C     C_1   0.877933 0.738410 0.272336 -0.045420
C13   C     C_R   0.039054 0.673125 0.331660 -0.126475
H4    H     H_    0.177765 0.685180 0.316018 0.109139
C14   C     C_R   0.031344 0.632666 0.370240 -0.167274
H5    H     H_    0.165116 0.614532 0.383491 0.120677
C15   C     C_R   0.853228 0.615704 0.391153 -0.057938
C16   C     C_R   0.683313 0.640660 0.372479 -0.165269
H6    H     H_    0.543596 0.628831 0.387518 0.119729
C17   C     C_R   0.691464 0.681117 0.333884 -0.123395
H7    H     H_    0.558786 0.699428 0.320004 0.109884
C18   C     C_R   0.869279 0.697513 0.313196 0.126740
C19   C     C_R   0.850753 0.643401 0.661013 -0.064575
C20   C     C_R   0.941348 0.856110 0.837801 -0.372248
C21   C     C_R   0.091188 0.803722 0.735406 0.165872
C22   C     C_R   0.068860 0.858712 0.788609 0.350622
C23   C     C_R   0.820845 0.800651 0.829325 0.314788
C24   C     C_R   0.823765 0.750439 0.771193 -0.006557
C25   C     C_R   0.971820 0.748651 0.727309 -0.010987
C26   C     C_R   0.990502 0.692752 0.674482 -0.166421
C27   C     C_R   0.694152 0.649295 0.701391 -0.188258
C28   C     C_R   0.680679 0.701615 0.755333 -0.038820
H8    H     H_    0.107487 0.688196 0.641819 0.119034
H9    H     H_    0.579765 0.613256 0.690976 0.129364
H10   H     H_    0.551818 0.704396 0.782778 0.191828
C29   C     C_R   0.336509 0.353495 0.339740 -0.069364
C30   C     C_R   0.459159 0.146537 0.160236 -0.058708
C31   C     C_R   0.641398 0.215819 0.250359 -0.190764
C32   C     C_R   0.629496 0.161587 0.197078 -0.163859
C33   C     C_R   0.299213 0.187312 0.178680 -0.236769
C34   C     C_R   0.311461 0.242729 0.231960 0.160309
C35   C     C_R   0.484188 0.257277 0.268038 0.157430
C36   C     C_R   0.496448 0.312709 0.321308 -0.224403
C37   C     C_R   0.166138 0.338413 0.302916 -0.158476
C38   C     C_R   0.154234 0.284174 0.249646 -0.194793
H11   H     H_    0.628390 0.323115 0.349134 0.127416
H12   H     H_    0.040361 0.368709 0.315408 0.128974
H13   H     H_    0.774382 0.225487 0.277603 0.127455
H14   H     H_    0.021234 0.274493 0.222410 0.121146
H15   H     H_    0.755243 0.131274 0.184590 0.123986
H16   H     H_    0.167273 0.176911 0.150852 0.116446
C39   C     C_R   0.598890 0.171536 0.824117 -0.108724
H17   H     H_    0.730422 0.184840 0.805065 0.143054
C40   C     C_R   0.609320 0.132585 0.864200 -0.148869
H18   H     H_    0.749441 0.116560 0.874923 0.134199
C41   C     C_R   0.440804 0.114209 0.889627 -0.042924
C42   C     C_R   0.261938 0.136132 0.873873 -0.093867
H19   H     H_    0.129199 0.123340 0.892572 0.129573
C43   C     C_R   0.251903 0.174994 0.833786 -0.105230
H20   H     H_    0.112507 0.191071 0.822385 0.131473
C44   C     C_R   0.420140 0.192937 0.808668 0.097408
C45   C     C_1   0.408607 0.233145 0.767150 0.032871
C46   C     C_1   0.396445 0.266678 0.732453 0.137287
C47   C     C_R   0.531183 0.348661 0.688068 -0.101679
H21   H     H_    0.658978 0.351467 0.717082 0.186490
C48   C     C_R   0.520815 0.387309 0.647929 -0.131117
H22   H     H_    0.641525 0.418880 0.646924 0.135296
C49   C     C_R   0.355676 0.386170 0.610475 -0.133176
C50   C     C_R   0.201558 0.344796 0.613822 -0.242407
H23   H     H_    0.073738 0.343153 0.585100 0.175898
C51   C     C_R   0.212724 0.304598 0.653050 0.492989
C52   C     C_R   0.379148 0.306762 0.690763 -0.024454
O11   O     O_R   0.294110 0.064720 0.075690 -0.555103
O12   O     O_R   0.619980 0.058360 0.949870 -0.554361
O13   O     O_R   0.785810 0.935300 0.924300 -0.499878
C53   C     C_R   0.450897 0.071933 0.931550 0.763360
O14   O     O_R   0.624080 0.072230 0.076800 -0.559383
O15   O     O_R   0.789930 0.949270 0.052130 -0.516926
C54   C     C_R   0.457284 0.090767 0.101122 0.647485
O16   O     O_R   0.289980 0.050750 0.947860 -0.521508
O17   O     O_3   0.454970 0.959660 0.991750 -0.306427
V3    V     V_3+5 0.731560 0.007480 0.001530 1.550773
O18   O     O_R   0.119360 0.941610 0.050140 -0.529853
C55   C     C_R   0.951356 0.927714 0.068248 0.747560
O19   O     O_R   0.115260 0.927740 0.923220 -0.510579
C56   C     C_R   0.946197 0.909649 0.898719 0.927581
V4    V     V_3+5 0.231020 0.992470 0.998490 1.633420
O20   O     O_3   0.957740 0.040330 0.008250 -0.407061
N1    N     N_2   0.231305 0.805195 0.689462 -0.474743
H24   H     H_    0.329816 0.768275 0.680754 0.243546
C57   C     C_3   0.155499 0.816495 0.632837 -0.391934
H25   H     H_    0.077675 0.773318 0.602726 0.140198
H26   H     H_    0.276528 0.827810 0.605547 0.199949
H27   H     H_    0.054735 0.857872 0.644665 0.233750
S1    S     S_3+6 0.205208 0.930680 0.794033 0.036776
O21   O     O_2   0.259759 0.936257 0.730839 -0.304689
O22   O     O_2   0.089367 0.989120 0.826852 -0.349606
O23   O     O_3   0.408524 0.930414 0.835624 -0.475732
H28   H     H_    0.487388 0.895470 0.808236 0.344873
S2    S     S_3+6 0.679790 0.790040 0.892452 0.054860
O24   O     O_2   0.481855 0.816149 0.888265 -0.330773
O25   O     O_2   0.663622 0.719650 0.887916 -0.297666
O26   O     O_3   0.777946 0.827946 0.962927 -0.498003
H29   H     H_    0.714019 0.808615 0.992612 0.408760
S3    S     S_3+6 0.264530 0.813317 0.054035 0.052623
O27   O     O_2   0.409302 0.867479 0.065098 -0.355961
O28   O     O_2   0.366910 0.754613 0.060071 -0.294406
O29   O     O_3   0.171384 0.795678 0.980853 -0.437879
H30   H     H_    0.202283 0.833278 0.966326 0.382164
S4    S     S_3+6 0.019185 0.251291 0.653730 -0.024519
O30   O     O_2   0.940637 0.267408 0.719177 -0.379297
O31   O     O_2   0.861515 0.256595 0.608845 -0.332696
O32   O     O_3   0.101843 0.175242 0.632582 -0.485062
H31   H     H_    0.994017 0.148844 0.640793 0.377813

loop_
_geom_bond_atom_site_label_1
_geom_bond_atom_site_label_2
_ccdc_geom_bond_type
C46   C52   S    
C2    C49   S    
C33   C34   A    
O17   V4    S    
C17   H7    S    
C1    O6    A    
O32   H31   S    
C47   C52   A    
C48   H22   S    
O29   H30   S    
C20   C22   A    
C32   H15   S    
C45   C46   T    
S3    O27   D    
C27   H9    S    
C11   C12   T    
C43   C44   A    
C13   H4    S    
C17   C18   A    
C30   C33   A    
C50   C51   A    
O23   H28   S    
O5    C3    A    
C14   H5    S    
C57   H25   S    
S2    O24   D    
C34   C35   A    
C40   C41   A    
C20   C23   A    
C19   C26   A    
C5    C6    A    
S1    O21   D    
O8    V2    S    
C6    C7    A    
S3    O28   D    
S2    O25   D    
S4    O32   S    
C9    H3    S    
C30   C54   S    
O1    V2    S    
O12   C53   A    
O7    V1    S    
O15   C55   A    
O13   V3    S    
S3    O29   S    
C36   H11   S    
C37   C38   A    
O9    C4    A    
O26   H29   S    
C51   S4    S    
V4    O20   S    
N1    C57   S    
N1    H24   S    
C48   C49   A    
C30   C32   A    
O14   V3    S    
C20   C56   S    
C28   H10   S    
O11   C54   A    
C43   H20   S    
C1    C29   S    
C39   H17   S    
C44   C45   S    
C42   C43   A    
C47   C48   A    
C31   C35   A    
C51   C52   A    
C10   C11   S    
O18   V4    S    
C34   C38   A    
O12   V3    S    
C39   C40   A    
O2    C1    A    
C24   C25   A    
O13   C56   A    
C21   N1    S    
C49   C50   A    
S2    O26   S    
O17   V3    S    
O14   C54   A    
C5    H1    S    
C41   C53   S    
C29   C36   A    
C50   H23   S    
S1    O23   S    
V3    O20   S    
O3    C4    A    
C21   C22   A    
C6    S3    S    
O6    V2    S    
C22   S1    S    
C8    C9    A    
S4    O30   D    
C29   C37   A    
C23   C24   A    
O2    V1    S    
O15   V3    S    
C33   H16   S    
C25   C26   A    
O4    C2    A    
O19   V4    S    
C26   H8    S    
C27   C28   A    
C37   H12   S    
O1    C2    A    
C4    C15   S    
C42   H19   S    
O5    V1    S    
O11   V4    S    
O8    C3    A    
O16   V4    S    
C31   C32   A    
C38   H14   S    
C5    C10   A    
C15   C16   A    
O9    V2    S    
O7    V2    S    
O4    V1    S    
O3    V1    S    
V1    O10   S    
C14   C15   A    
C31   H13   S    
C35   C36   A    
C7    C55   S    
C57   H26   S    
C13   C18   A    
C12   C18   S    
C13   C14   A    
O19   C56   A    
C16   C17   A    
C16   H6    S    
C9    C10   A    
C3    C19   S    
C40   H18   S    
S1    O22   D    
C19   C27   A    
C53   O16   A    
C47   H21   S    
C23   S2    S    
C21   C25   A    
C41   C42   A    
C7    C8    A    
O18   C55   A    
S4    O31   D    
C39   C44   A    
C8    H2    S    
C24   C28   A    
V2    O10   S    
C57   H27   S    
