data_mof_unit_21537.cif
_audit_creation_date              2013-03-05T16:49:18-0500
_audit_creation_method            fapswitch 2.2
_symmetry_space_group_name_H-M    P1
_symmetry_Int_Tables_number       1
_space_group_crystal_system       triclinic
_cell_length_a                    8.251875
_cell_length_b                    8.916092
_cell_length_c                    16.825131
_cell_angle_alpha                 89.51422
_cell_angle_beta                  94.810348
_cell_angle_gamma                 90.022778
_cell_volume                      1233.49559295

loop_
_atom_site_label
_atom_site_type_symbol
_atom_site_description
_atom_site_fract_x
_atom_site_fract_y
_atom_site_fract_z
_atom_type_partial_charge
O1    O     O_R   0.636850 0.285340 0.500000 -0.605029
O2    O     O_R   0.363150 0.714660 0.500000 -0.604841
O3    O     O_R   0.363100 0.285350 0.500000 -0.606631
O4    O     O_R   0.636900 0.714650 0.500000 -0.606632
C1    C     C_R   0.499959 0.218622 0.500022 0.911986
C2    C     C_R   0.500041 0.781378 0.499979 0.911840
O5    O     O_R   0.652140 0.498630 0.616140 -0.577447
O6    O     O_R   0.347860 0.501370 0.383860 -0.577392
O7    O     O_R   0.378390 0.498650 0.616130 -0.565480
O8    O     O_R   0.621610 0.501350 0.383870 -0.565762
C3    C     C_R   0.520813 0.504961 0.654248 0.918339
C4    C     C_R   0.479199 0.495218 0.345741 0.918125
Zn1   Zn    Zn3+2 0.682780 0.499990 0.500010 1.128539
Zn2   Zn    Zn3+2 0.317220 0.500010 0.499990 1.128709
N1    N     N_1   0.073640 0.500030 0.499990 0.047272
N2    N     N_1   0.926360 0.499970 0.500010 0.047236
C5    C     C_R   0.529925 0.528850 0.741989 -0.332528
C6    C     C_R   0.470127 0.472181 0.257934 -0.332591
C7    C     C_R   0.389544 0.572106 0.779534 0.173133
C8    C     C_R   0.610508 0.429324 0.220273 0.173058
C9    C     C_R   0.397904 0.595873 0.861913 0.212986
C10   C     C_R   0.602183 0.406566 0.137815 0.213438
C11   C     C_R   0.544570 0.566138 0.907573 0.135057
C12   C     C_R   0.455568 0.436812 0.092224 0.134783
C13   C     C_R   0.683761 0.530012 0.871462 -0.171690
C14   C     C_R   0.316386 0.472603 0.128421 -0.171780
C15   C     C_R   0.677862 0.513571 0.789391 0.246309
C16   C     C_R   0.322236 0.488084 0.210548 0.246261
N3    N     N_2   0.548651 0.550719 0.990444 -0.073334
N4    N     N_2   0.451397 0.452434 0.009364 -0.073491
C17   C     C_1   0.499960 0.065364 0.500006 -0.114067
C18   C     C_1   0.500040 0.934636 0.499996 -0.113961
H1    H     H_    0.796560 0.510052 0.907802 0.245993
H2    H     H_    0.203601 0.492868 0.092131 0.245990
N5    N     N_R   0.763573 0.413874 0.264873 0.280650
O9    O     O_R   0.837914 0.534658 0.290897 -0.266881
O10   O     O_R   0.809132 0.283206 0.293642 -0.311850
N6    N     N_R   0.236431 0.586737 0.734917 0.280926
O11   O     O_R   0.162402 0.465428 0.709432 -0.266786
O12   O     O_R   0.191160 0.716780 0.705225 -0.312488
N7    N     N_R   0.742257 0.356971 0.099586 0.240508
O13   O     O_R   0.725521 0.260946 0.041649 -0.317249
O14   O     O_R   0.885542 0.412403 0.119548 -0.300387
N8    N     N_R   0.257812 0.645834 0.900022 0.240426
O15   O     O_R   0.274605 0.742024 0.957879 -0.317192
O16   O     O_R   0.114437 0.590589 0.880037 -0.300492
N9    N     N_R   0.824952 0.485269 0.754860 0.256455
O17   O     O_R   0.909823 0.366649 0.776413 -0.283715
O18   O     O_R   0.888121 0.593511 0.715521 -0.270548
N10   N     N_R   0.175095 0.515786 0.245154 0.256483
O19   O     O_R   0.089970 0.634401 0.223873 -0.283880
O20   O     O_R   0.112104 0.407023 0.284185 -0.270380

loop_
_geom_bond_atom_site_label_1
_geom_bond_atom_site_label_2
_geom_bond_distance
_ccdc_geom_bond_type
O5    C3    1.306092 A    
O7    Zn2   1.976740 S    
N3    N4    1.245344 D    
C7    N6    1.419961 S    
C13   C15   1.386641 A    
C9    N8    1.440671 S    
N7    O14   1.300316 A    
N7    O13   1.301462 A    
C14   C16   1.386650 A    
C17   C18   1.165586 T    
O6    C4    1.306206 A    
C11   C13   1.383044 A    
N10   O19   1.300809 A    
N9    O18   1.299174 A    
N6    O12   1.301053 A    
O7    C3    1.292232 A    
O2    C2    1.276482 A    
O3    Zn2   1.951158 S    
O8    C4    1.292144 A    
O1    C1    1.276483 A    
C11   N3    1.397514 S    
N5    O10   1.301240 A    
C12   C14   1.383008 A    
C6    C8    1.420219 A    
C9    C11   1.402170 A    
N6    O11   1.300116 A    
O2    Zn2   1.950859 S    
C10   C12   1.402122 A    
C1    C17   1.366467 S    
C10   N7    1.440556 S    
O1    Zn1   1.950857 S    
C8    C10   1.399807 A    
C12   N4    1.397442 S    
C4    C6    1.488951 S    
N1    N2    1.215364 T    
C5    C15   1.407085 A    
O5    Zn1   1.991046 S    
C6    C16   1.407160 A    
N8    O15   1.301459 A    
O4    C2    1.276654 A    
C2    C18   1.366466 S    
Zn1   N2    2.009992 S    
C15   N9    1.412604 S    
N10   O20   1.299187 A    
Zn2   N1    2.009992 S    
C3    C5    1.488969 S    
O6    Zn2   1.991047 S    
N5    O9    1.300085 A    
N8    O16   1.300407 A    
C5    C7    1.420186 A    
C7    C9    1.399886 A    
C8    N5    1.420162 S    
C16   N10   1.412627 S    
C14   H2    1.083796 S    
N9    O17   1.300785 A    
O4    Zn1   1.951158 S    
C13   H1    1.083852 S    
O3    C1    1.276652 A    
O8    Zn1   1.976740 S    
