data_mof_unit_28688.cif
_audit_creation_date              2012-12-11T15:21:39-0500
_audit_creation_method            fapswitch 2.2
_symmetry_space_group_name_H-M    P1
_symmetry_Int_Tables_number       1
_space_group_crystal_system       triclinic
_cell_length_a                    19.142189
_cell_length_b                    7.198874
_cell_length_c                    17.692038
_cell_angle_alpha                 90.059073
_cell_angle_beta                  108.875614
_cell_angle_gamma                 89.918404
_cell_volume                      2306.89102744

loop_
_atom_site_label
_atom_site_type_symbol
_atom_type_description
_atom_site_fract_x
_atom_site_fract_y
_atom_site_fract_z
_atom_type_partial_charge
O1    O     O_R   0.562310 0.505770 0.439670 -0.535981
O2    O     O_R   0.437690 0.005770 0.560330 -0.537266
O3    O     O_R   0.411650 0.169150 0.405330 -0.518402
O4    O     O_R   0.588350 0.669150 0.594670 -0.517835
C1    C     C_R   0.386831 0.345436 0.380714 0.653759
C2    C     C_R   0.613143 0.845441 0.619310 0.656361
O5    O     O_R   0.560140 0.175610 0.430010 -0.545901
O6    O     O_R   0.439860 0.675610 0.569990 -0.545486
O7    O     O_R   0.587240 0.012100 0.585200 -0.541913
O8    O     O_R   0.412760 0.512100 0.414800 -0.542041
C3    C     C_R   0.580476 0.344478 0.414438 0.689035
C4    C     C_R   0.419256 0.844788 0.585263 0.689533
O9    O     O_3   0.508720 0.341420 0.550890 -0.381807
O10   O     O_3   0.491280 0.841420 0.449110 -0.382447
V1    V     V_3+5 0.498380 0.063930 0.490560 1.376674
V2    V     V_3+5 0.501620 0.563930 0.509440 1.378321
C5    C     C_R   0.175316 0.755678 0.870163 -0.215326
C6    C     C_R   0.821965 0.565063 0.135994 -0.218902
C7    C     C_R   0.131774 0.915584 0.866847 -0.083954
C8    C     C_R   0.869453 0.416389 0.134531 -0.082614
C9    C     C_R   0.137198 0.064431 0.817471 -0.230775
C10   C     C_R   0.868117 0.255217 0.179172 -0.227147
C11   C     C_R   0.184478 0.053459 0.771205 0.092712
C12   C     C_R   0.820624 0.242261 0.225076 0.092530
C13   C     C_R   0.227943 0.892826 0.775140 0.054543
C14   C     C_R   0.772710 0.391076 0.225532 0.054093
C15   C     C_R   0.223581 0.743873 0.825131 0.086819
C16   C     C_R   0.773149 0.552657 0.180521 0.088540
C17   C     C_R   0.188869 0.200103 0.720745 -0.188429
C18   C     C_R   0.820215 0.082972 0.270632 -0.197031
C19   C     C_R   0.236190 0.188454 0.674966 -0.196165
C20   C     C_R   0.772431 0.070490 0.315874 -0.189872
C21   C     C_R   0.279876 0.029757 0.678691 0.087971
C22   C     C_R   0.724009 0.216803 0.316246 0.090302
C23   C     C_R   0.275702 0.880940 0.728824 0.055501
C24   C     C_R   0.724315 0.378289 0.271137 0.053645
C25   C     C_R   0.319030 0.720118 0.732543 0.092758
C26   C     C_R   0.676554 0.527308 0.271833 0.092463
C27   C     C_R   0.314968 0.573946 0.783391 -0.187403
C28   C     C_R   0.676726 0.686235 0.225966 -0.190426
C29   C     C_R   0.267629 0.585630 0.829207 -0.193174
C30   C     C_R   0.724468 0.698627 0.180624 -0.187554
C31   C     C_R   0.327308 0.017111 0.632813 -0.216360
C32   C     C_R   0.675829 0.205053 0.361464 -0.225861
C33   C     C_R   0.370151 0.856409 0.635244 -0.079966
C34   C     C_R   0.628967 0.354425 0.363755 -0.079728
C35   C     C_R   0.365525 0.708262 0.685356 -0.232295
C36   C     C_R   0.629737 0.515129 0.318585 -0.225439
H1    H     H_    0.172346 0.640709 0.908540 0.125619
H2    H     H_    0.821972 0.689094 0.101276 0.123721
H3    H     H_    0.103936 0.188055 0.814181 0.125485
H4    H     H_    0.904629 0.140147 0.178838 0.123906
H5    H     H_    0.155777 0.324214 0.716781 0.133112
H6    H     H_    0.856738 0.967515 0.271091 0.130610
H7    H     H_    0.238708 0.303969 0.636704 0.130565
H8    H     H_    0.773261 0.945944 0.350497 0.134166
H9    H     H_    0.329939 0.131908 0.594208 0.128083
H10   H     H_    0.676044 0.081118 0.396318 0.125149
H11   H     H_    0.398559 0.584381 0.688233 0.124144
H12   H     H_    0.593515 0.630530 0.319382 0.127830
H13   H     H_    0.348082 0.449864 0.787368 0.135413
H14   H     H_    0.640279 0.801764 0.225589 0.132683
H15   H     H_    0.265139 0.470166 0.867504 0.131424
H16   H     H_    0.723621 0.823146 0.145982 0.135047
C37   C     C_3   0.769377 0.722482 0.822365 0.395224
C38   C     C_3   0.230596 0.221972 0.177757 0.394944
H17   H     H_    0.758978 0.741432 0.880381 0.015689
H18   H     H_    0.241014 0.240442 0.119748 0.017182
C39   C     C_3   0.690396 0.713871 0.759055 0.305803
C40   C     C_3   0.309566 0.213228 0.241089 0.305992
H19   H     H_    0.652356 0.764840 0.791193 -0.022078
H20   H     H_    0.347635 0.263583 0.208959 -0.022891
H21   H     H_    0.871151 0.838569 0.726185 0.116736
H22   H     H_    0.128823 0.339296 0.273888 0.116228
H23   H     H_    0.757637 0.722679 0.637242 0.144445
H24   H     H_    0.242384 0.223469 0.362925 0.143197
C41   C     C_3   0.823168 0.917885 0.730275 -0.355625
C42   C     C_3   0.176767 0.418353 0.269767 -0.354345
C43   C     C_3   0.755060 0.065542 0.812461 -0.437003
C44   C     C_3   0.244835 0.564989 0.187508 -0.437905
C45   C     C_3   0.811202 0.907966 0.813334 -0.034565
C46   C     C_3   0.188742 0.407795 0.186711 -0.033769
H25   H     H_    0.780149 0.203584 0.815919 0.233107
H26   H     H_    0.219706 0.703173 0.184000 0.232991
H27   H     H_    0.737043 0.054434 0.866091 0.128587
H28   H     H_    0.262845 0.553391 0.133872 0.127213
C47   C     C_3   0.683603 0.862464 0.691876 -0.004686
C48   C     C_3   0.316343 0.362358 0.308178 -0.003615
C49   C     C_3   0.751792 0.860218 0.662480 -0.337004
C50   C     C_3   0.248169 0.360776 0.337595 -0.338475
C51   C     C_3   0.686518 0.053642 0.735128 -0.376943
C52   C     C_3   0.313377 0.553177 0.264831 -0.376412
H29   H     H_    0.635431 0.071631 0.751101 0.138593
H30   H     H_    0.364443 0.570587 0.248828 0.138146
H31   H     H_    0.689451 0.169127 0.694522 0.217903
H32   H     H_    0.310429 0.668982 0.305387 0.217948
H33   H     H_    0.836722 0.063737 0.719570 0.149781
H34   H     H_    0.163145 0.564348 0.280403 0.149866
H35   H     H_    0.743021 0.960066 0.612219 0.136884
H36   H     H_    0.256914 0.460969 0.387794 0.137770
O11   O     O_R   0.087220 0.271820 0.085230 -0.517047
O12   O     O_R   0.912780 0.771820 0.914770 -0.516957
O13   O     O_R   0.939860 0.595540 0.069990 -0.542218
O14   O     O_R   0.060140 0.095540 0.930010 -0.542020
C53   C     C_R   0.919030 0.426726 0.085037 0.709121
C54   C     C_R   0.081322 0.926496 0.915362 0.709521
O15   O     O_R   0.088340 0.601930 0.094680 -0.539309
O16   O     O_R   0.911660 0.101930 0.905320 -0.538840
O17   O     O_R   0.062310 0.765410 0.939660 -0.540621
O18   O     O_R   0.937690 0.265410 0.060340 -0.539086
C55   C     C_R   0.116163 0.431208 0.117334 0.663055
C56   C     C_R   0.883810 0.931278 0.882693 0.665319
O19   O     O_3   0.991270 0.429630 0.949130 -0.372821
O20   O     O_3   0.008730 0.929630 0.050870 -0.373255
V3    V     V_3+5 0.001620 0.707150 0.009440 1.423805
V4    V     V_3+5 0.998380 0.207150 0.990560 1.425305
O21   O     O_3   0.671866 0.529942 0.730491 -0.563881
C57   C     C_3   0.604386 0.472023 0.740943 0.139940
H37   H     H_    0.583501 0.351053 0.701524 0.154034
H38   H     H_    0.560367 0.579768 0.720880 0.096754
C58   C     C_3   0.614641 0.417143 0.827897 -0.367218
H39   H     H_    0.662384 0.322349 0.850546 0.219352
H40   H     H_    0.626097 0.541812 0.866941 0.183885
C59   C     C_3   0.545563 0.322731 0.834719 -0.840627
H41   H     H_    0.497481 0.418246 0.814261 0.228856
H42   H     H_    0.554438 0.285139 0.897996 0.239578
H43   H     H_    0.533287 0.194055 0.798102 0.224477
O22   O     O_3   0.328061 0.029369 0.269769 -0.564006
C60   C     C_3   0.395402 0.970415 0.259111 0.139726
H44   H     H_    0.416262 0.849430 0.298501 0.152824
H45   H     H_    0.439530 0.077661 0.279110 0.099853
C61   C     C_3   0.384909 0.915212 0.172089 -0.365190
H46   H     H_    0.336753 0.822002 0.149303 0.219717
H47   H     H_    0.373999 0.040037 0.133213 0.183125
C62   C     C_3   0.453574 0.818329 0.165131 -0.845422
H48   H     H_    0.502171 0.911780 0.186326 0.230170
H49   H     H_    0.444766 0.781902 0.101722 0.241794
H50   H     H_    0.464969 0.688709 0.201066 0.220825
O23   O     O_3   0.808563 0.549806 0.835427 -0.542732
C63   C     C_3   0.844558 0.505324 0.779734 -0.129452
H51   H     H_    0.894716 0.589504 0.789053 0.121648
H52   H     H_    0.806376 0.503044 0.717864 0.131503
H53   H     H_    0.867155 0.363140 0.791996 0.126608
O24   O     O_3   0.191435 0.049490 0.164753 -0.542837
C64   C     C_3   0.155351 0.005763 0.220390 -0.129648
H54   H     H_    0.105134 0.090164 0.210901 0.119975
H55   H     H_    0.193450 0.003906 0.282300 0.131617
H56   H     H_    0.132850 0.863578 0.208241 0.126869

loop_
_geom_bond_atom_site_label_1
_geom_bond_atom_site_label_2
_ccdc_geom_bond_type
C62   H50   S    
C38   H18   S    
C53   O18   A    
O4    V2    S    
C47   C51   S    
O12   C56   A    
O1    C3    A    
C63   H53   S    
C43   H27   S    
C44   H26   S    
C40   C48   S    
O22   C60   S    
C2    O7    A    
O14   C54   A    
O20   V3    S    
C62   H48   S    
C27   C29   A    
C42   C50   S    
O5    C3    A    
C18   H6    S    
C41   C49   S    
C49   H35   S    
C11   C17   A    
C59   H42   S    
C7    C9    A    
C12   C14   A    
C8    C53   S    
O18   V4    S    
C64   H54   S    
C38   O24   S    
O17   V3    S    
C52   H32   S    
C28   H14   S    
C6    C8    A    
C39   O21   S    
C39   H19   S    
C15   C29   A    
C57   H37   S    
C58   C59   S    
C44   H28   S    
O12   V3    S    
C5    C7    A    
O14   V4    S    
C1    C48   S    
C48   C52   S    
C32   H10   S    
C61   H46   S    
C37   H17   S    
C42   H34   S    
C19   C21   A    
C41   H33   S    
C25   C35   A    
C43   C51   S    
C39   C47   S    
O19   V4    S    
O5    V1    S    
O2    C4    A    
O6    V2    S    
C61   H47   S    
O15   C55   A    
C50   H36   S    
C64   H55   S    
C32   C34   A    
C36   H12   S    
C57   H38   S    
C33   C35   A    
C27   H13   S    
C34   C36   A    
C5    C15   A    
C6    C16   A    
C63   H51   S    
C44   C46   S    
C5    H1    S    
C43   C45   S    
C31   H9    S    
C4    C33   S    
C20   C22   A    
C35   H11   S    
C51   H29   S    
C2    C47   S    
O16   C56   A    
C57   C58   S    
C21   C31   A    
C44   C52   S    
O13   V3    S    
C18   C20   A    
C38   C46   S    
C42   C46   S    
C37   C45   S    
C45   C56   S    
C41   C45   S    
O6    C4    A    
C52   H30   S    
C22   C32   A    
O13   C53   A    
O1    V2    S    
O2    V1    S    
C31   C33   A    
O15   V3    S    
C58   H39   S    
C13   C23   A    
C59   H43   S    
C14   C24   A    
C48   C50   S    
C47   C49   S    
C10   C12   A    
O4    C2    A    
C13   C15   A    
C29   H15   S    
C24   C26   A    
C30   H16   S    
C9    H3    S    
C64   H56   S    
O3    V1    S    
C6    H2    S    
C10   H4    S    
C60   H44   S    
C40   O22   S    
C62   H49   S    
C23   C25   A    
C26   C36   A    
C8    C10   A    
C28   C30   A    
O3    C1    A    
O23   C63   S    
C63   H52   S    
O11   C55   A    
C14   C16   A    
O24   C64   S    
C46   C55   S    
C60   C61   S    
C9    C11   A    
O7    V1    S    
C1    O8    A    
C17   C19   A    
O8    V2    S    
O21   C57   S    
C26   C28   A    
O16   V4    S    
C38   C40   S    
C17   H5    S    
C61   C62   S    
C37   C39   S    
C16   C30   A    
C21   C23   A    
C22   C24   A    
C11   C13   A    
C37   O23   S    
C12   C18   A    
C58   H40   S    
H23   C49   S    
C51   H31   S    
C43   H25   S    
C7    C54   S    
C25   C27   A    
H22   C42   S    
O9    V2    S    
O11   V4    S    
H21   C41   S    
O10   V1    S    
C3    C34   S    
C40   H20   S    
C19   H7    S    
C20   H8    S    
H24   C50   S    
C59   H41   S    
C60   H45   S    
C54   O17   A    
