data_mof_unit_43491.cif
_audit_creation_date              2012-12-11T15:19:54-0500
_audit_creation_method            fapswitch 2.2
_symmetry_space_group_name_H-M    P1
_symmetry_Int_Tables_number       1
_space_group_crystal_system       triclinic
_cell_length_a                    16.633192
_cell_length_b                    16.613646
_cell_length_c                    42.929618
_cell_angle_alpha                 90.043801
_cell_angle_beta                  89.982057
_cell_angle_gamma                 119.993569
_cell_volume                      10274.3941069

loop_
_atom_site_label
_atom_site_type_symbol
_atom_type_description
_atom_site_fract_x
_atom_site_fract_y
_atom_site_fract_z
_atom_type_partial_charge
C1    C     C_R   0.584240 0.425864 0.794825 0.547161
C2    C     C_R   0.426136 0.583530 0.205399 0.547526
C3    C     C_R   0.938443 0.512620 0.430284 0.411445
C4    C     C_R   0.572298 0.062485 0.069881 0.404023
C5    C     C_R   0.400512 0.490969 0.437221 0.411320
C6    C     C_R   0.607977 0.059292 0.560314 0.407647
C7    C     C_R   0.055026 0.563955 0.931078 0.406795
C8    C     C_R   0.439753 0.464727 0.566386 0.411042
C9    C     C_R   0.594073 0.116049 0.939910 0.404784
C10   C     C_R   0.884438 0.493649 0.560328 0.398385
C11   C     C_R   0.440169 0.480698 0.931995 0.412009
C12   C     C_R   0.942858 0.510299 0.068854 0.410046
C13   C     C_R   0.416879 0.843548 0.294159 0.535962
C14   C     C_R   0.466200 0.042151 0.427624 0.416855
C15   C     C_R   0.481381 0.421270 0.070551 0.405746
C16   C     C_R   0.101687 0.571431 0.438366 0.417455
C17   C     C_R   0.481607 0.897083 0.062007 0.403880
C18   C     C_R   0.491170 0.417260 0.427564 0.413518
C19   C     C_R   0.490846 0.103588 0.557230 0.431479
C20   C     C_R   0.889990 0.492092 0.938781 0.399473
C21   C     C_R   0.524807 0.384955 0.557035 0.426267
C22   C     C_R   0.507853 0.950437 0.932081 0.410404
C23   C     C_R   0.047829 0.553009 0.568198 0.405237
C24   C     C_R   0.157475 0.573867 0.205326 0.547859
C25   C     C_R   0.511269 0.387303 0.941093 0.404946
C26   C     C_R   0.928386 0.507638 0.036473 0.032171
C27   C     C_R   0.475833 0.064275 0.459542 0.032660
C28   C     C_R   0.485120 0.407887 0.038341 0.030930
C29   C     C_R   0.089939 0.570599 0.470768 0.032413
C30   C     C_R   0.491170 0.908954 0.029584 0.027908
C31   C     C_R   0.495359 0.403184 0.459745 0.031624
C32   C     C_R   0.486747 0.092974 0.524661 0.026059
C33   C     C_R   0.902005 0.499269 0.971260 0.026891
C34   C     C_R   0.512396 0.387247 0.524693 0.026160
C35   C     C_R   0.042011 0.467034 0.128194 0.043862
C36   C     C_R   0.503884 0.935631 0.964430 0.031346
C37   C     C_R   0.063145 0.562055 0.535875 0.032452
C38   C     C_R   0.500173 0.391029 0.973411 0.027502
C39   C     C_R   0.005680 0.543038 0.016280 -0.036221
C40   C     C_R   0.542005 0.054571 0.477166 -0.033338
C41   C     C_R   0.450381 0.448874 0.017477 -0.035043
C42   C     C_R   0.000312 0.538769 0.482966 -0.035328
C43   C     C_R   0.540237 0.999683 0.017279 -0.035568
C44   C     C_R   0.454191 0.437306 0.480790 -0.035461
C45   C     C_R   0.546156 0.067064 0.509873 -0.036062
C46   C     C_R   0.519028 0.032729 0.355732 0.046398
C47   C     C_R   0.992480 0.538758 0.983616 -0.034245
C48   C     C_R   0.463351 0.430001 0.513299 -0.036042
C49   C     C_R   0.546250 0.013060 0.984620 -0.035921
C50   C     C_R   0.986899 0.534580 0.515618 -0.033445
C51   C     C_R   0.458562 0.441039 0.984958 -0.034657
C52   C     C_R   0.172580 0.618090 0.008253 -0.131130
C53   C     C_R   0.667586 0.019951 0.480234 -0.141161
C54   C     C_R   0.374287 0.539219 0.007980 -0.134364
C55   C     C_R   0.835223 0.479651 0.475241 -0.132800
C56   C     C_R   0.631599 0.167064 0.024826 -0.142547
C57   C     C_R   0.519509 0.582596 0.125254 0.041877
C58   C     C_R   0.363904 0.513238 0.490644 -0.131619
C59   C     C_R   0.670040 0.029896 0.512525 -0.134228
C60   C     C_R   0.159627 0.613629 0.976106 -0.135133
C61   C     C_R   0.373918 0.507156 0.522617 -0.130483
C62   C     C_R   0.637196 0.180224 0.992655 -0.143458
C63   C     C_R   0.822063 0.475672 0.507417 -0.137430
C64   C     C_R   0.383406 0.532543 0.975972 -0.132960
C65   C     C_R   0.838702 0.469850 0.023805 -0.137524
C66   C     C_R   0.418413 0.092111 0.474483 -0.129695
C67   C     C_R   0.524685 0.356615 0.026479 -0.139562
C68   C     C_R   0.033793 0.463590 0.370365 0.043779
C69   C     C_R   0.165582 0.600088 0.491210 -0.130073
C70   C     C_R   0.451270 0.832381 0.009219 -0.135517
C71   C     C_R   0.541648 0.358203 0.471435 -0.138460
C72   C     C_R   0.424418 0.107125 0.506575 -0.135356
C73   C     C_R   0.825711 0.465956 0.991629 -0.144148
C74   C     C_R   0.549624 0.349926 0.503483 -0.143115
C75   C     C_R   0.457538 0.845520 0.977065 -0.134177
C76   C     C_R   0.152364 0.595717 0.523338 -0.135741
C77   C     C_R   0.531717 0.347985 0.994429 -0.139956
C78   C     C_3   0.009134 0.376271 0.111042 -0.240628
C79   C     C_R   0.426078 0.957842 0.128228 0.045134
C80   C     C_3   0.911617 0.303253 0.121891 -0.294742
C81   C     C_3   0.874440 0.213525 0.103139 -0.436536
C82   C     C_3   0.567260 0.137875 0.359437 -0.234621
C83   C     C_3   0.596982 0.193921 0.328995 -0.331890
C84   C     C_3   0.650660 0.298209 0.335566 -0.427550
C85   C     C_3   0.597343 0.651242 0.104551 -0.252220
C86   C     C_3   0.584303 0.733977 0.096474 -0.282079
C87   C     C_3   0.659642 0.801297 0.074308 -0.451714
C88   C     C_3   0.995271 0.370714 0.386568 -0.234860
C89   C     C_3   0.896388 0.303383 0.375276 -0.317343
C90   C     C_R   0.520206 0.577880 0.374345 0.034729
C91   C     C_3   0.854914 0.210388 0.392237 -0.429701
C92   C     C_3   0.366565 0.987164 0.110365 -0.242077
C93   C     C_3   0.388165 0.084540 0.120449 -0.295459
C94   C     C_3   0.334149 0.118438 0.100994 -0.436440
C95   C     C_3   0.596441 0.645731 0.395692 -0.247153
C96   C     C_3   0.576736 0.721874 0.406973 -0.298168
C97   C     C_3   0.648118 0.784487 0.431081 -0.434149
C98   C     C_3   0.396592 0.949585 0.613813 -0.241966
C99   C     C_3   0.328280 0.878435 0.637298 -0.334769
C100  C     C_3   0.252011 0.792876 0.620699 -0.413023
C101  C     C_R   0.479983 0.034514 0.627853 0.044780
C102  C     C_3   0.944453 0.345534 0.895244 -0.256496
C103  C     C_3   0.848872 0.267829 0.905801 -0.280981
C104  C     C_3   0.856960 0.197031 0.926175 -0.452879
C105  C     C_3   0.669585 0.573462 0.598262 -0.231857
C106  C     C_3   0.763958 0.644934 0.612026 -0.311607
C107  C     C_3   0.829851 0.707669 0.586686 -0.442857
C108  C     C_3   0.390123 0.043599 0.893099 -0.236693
C109  C     C_3   0.305718 0.949904 0.884321 -0.299635
C110  C     C_3   0.221480 0.929273 0.904198 -0.445620
C111  C     C_3   0.925632 0.338324 0.600869 -0.249410
C112  C     C_R   0.842149 0.416058 0.705274 0.537630
C113  C     C_R   0.935159 0.414728 0.874897 0.042969
C114  C     C_3   0.901023 0.243120 0.614421 -0.317644
C115  C     C_3   0.904816 0.179972 0.589317 -0.422356
C116  C     C_3   0.666244 0.575576 0.901154 -0.230725
C117  C     C_3   0.763518 0.641824 0.888183 -0.312418
C118  C     C_3   0.829471 0.702233 0.913924 -0.443856
C119  C     C_R   0.599918 0.503181 0.621185 0.043490
C120  C     C_R   0.474203 0.061125 0.874232 0.049038
C121  C     C_R   0.922844 0.407383 0.623609 0.038930
C122  C     C_R   0.596125 0.507228 0.877862 0.048633
C123  C     C_R   0.072970 0.475001 0.159118 -0.128511
C124  C     C_R   0.490108 0.988159 0.326435 -0.127946
C125  C     C_R   0.515099 0.607590 0.156161 -0.124408
C126  C     C_R   0.066720 0.472824 0.339656 -0.130853
C127  C     C_R   0.401400 0.925475 0.158921 -0.129501
C128  C     C_R   0.573948 0.157888 0.794748 0.546781
C129  C     C_R   0.514475 0.606062 0.344004 -0.134503
C130  C     C_R   0.487493 0.054280 0.660179 -0.125557
C131  C     C_R   0.906018 0.390664 0.843938 -0.123608
C132  C     C_R   0.619317 0.504538 0.653243 -0.116386
C133  C     C_R   0.480315 0.088454 0.842992 -0.125020
C134  C     C_R   0.897872 0.385685 0.655113 -0.132516
C135  C     C_R   0.617544 0.506436 0.846144 -0.111710
C136  C     C_R   0.105651 0.634322 0.161097 -0.145394
C137  C     C_R   0.438807 0.838199 0.350495 -0.145003
C138  C     C_R   0.373789 0.460699 0.164397 -0.148298
C139  C     C_R   0.584578 0.425479 0.704989 0.544678
C140  C     C_R   0.106576 0.634440 0.339109 -0.149601
C141  C     C_R   0.533529 0.901819 0.162469 -0.153672
C142  C     C_R   0.377014 0.457162 0.334182 -0.149252
C143  C     C_R   0.641049 0.187121 0.652388 -0.147824
C144  C     C_R   0.911364 0.537736 0.836294 -0.156705
C145  C     C_R   0.468373 0.368626 0.661844 -0.145013
C146  C     C_R   0.630237 0.098547 0.838195 -0.153162
C147  C     C_R   0.911636 0.536410 0.663450 -0.158888
C148  C     C_R   0.464603 0.374038 0.836775 -0.148713
C149  C     C_R   0.075369 0.627241 0.130470 -0.068631
C150  C     C_R   0.842341 0.416285 0.794686 0.547680
C151  C     C_R   0.464154 0.880439 0.379518 -0.074848
C152  C     C_R   0.378338 0.434435 0.133906 -0.071047
C153  C     C_R   0.074532 0.626129 0.369540 -0.071923
C154  C     C_R   0.558747 0.934130 0.132109 -0.086943
C155  C     C_R   0.382686 0.428028 0.364145 -0.068724
C156  C     C_R   0.633204 0.171182 0.620557 -0.058593
C157  C     C_R   0.941539 0.562849 0.866923 -0.081022
C158  C     C_R   0.447567 0.367279 0.630368 -0.054467
C159  C     C_R   0.624380 0.070457 0.869097 -0.083483
C160  C     C_R   0.939384 0.560034 0.632597 -0.086841
C161  C     C_R   0.574653 0.159475 0.705014 0.538562
C162  C     C_R   0.441562 0.375345 0.867882 -0.067375
C163  C     C_R   0.046252 0.545283 0.113548 0.254996
C164  C     C_R   0.502943 0.976839 0.382525 0.239353
C165  C     C_R   0.449141 0.495673 0.113980 0.256603
C166  C     C_R   0.041042 0.542320 0.385681 0.252370
C167  C     C_R   0.503796 0.958844 0.114470 0.258017
C168  C     C_R   0.452354 0.488398 0.384603 0.252924
C169  C     C_R   0.553392 0.096156 0.607978 0.248369
C170  C     C_R   0.950538 0.500781 0.886622 0.260680
C171  C     C_R   0.513153 0.432510 0.609885 0.246146
C172  C     C_R   0.426178 0.583501 0.294597 0.541826
C173  C     C_R   0.548445 0.054633 0.887514 0.259905
C174  C     C_R   0.942319 0.495354 0.612451 0.253507
C175  C     C_R   0.507062 0.439945 0.888558 0.248253
C176  C     C_R   0.890798 0.450289 0.824783 0.004228
C177  C     C_R   0.568058 0.129988 0.672391 0.004022
C178  C     C_R   0.553331 0.438403 0.825763 0.000659
C179  C     C_R   0.888481 0.448224 0.674779 -0.002098
C180  C     C_R   0.559558 0.110572 0.825103 0.002445
C181  C     C_R   0.555092 0.436048 0.673492 -0.004039
C182  C     C_R   0.450072 0.891435 0.323985 0.007632
C183  C     C_R   0.416561 0.842774 0.205406 0.544144
C184  C     C_R   0.108017 0.559460 0.175384 0.000482
C185  C     C_R   0.441423 0.547289 0.324100 -0.002557
C186  C     C_R   0.452631 0.893813 0.175788 0.002302
C187  C     C_R   0.106419 0.558964 0.324265 -0.004364
C188  C     C_R   0.440640 0.548615 0.175522 0.002582
C189  C     C_R   0.096126 0.581902 0.028594 0.029882
C190  C     C_R   0.602530 0.030228 0.462325 0.034526
C191  C     C_R   0.408659 0.498807 0.028990 0.029586
C192  C     C_R   0.923975 0.510260 0.462668 0.032668
C193  C     C_R   0.582167 0.077105 0.037489 0.031644
C194  C     C_R   0.157210 0.573804 0.294600 0.544248
C195  C     C_R   0.405131 0.480112 0.469474 0.030144
C196  C     C_R   0.608770 0.052235 0.527694 0.036391
C197  C     C_R   0.069782 0.573111 0.963445 0.030073
C198  C     C_R   0.424730 0.466951 0.534268 0.032331
C199  C     C_R   0.593396 0.103854 0.972305 0.027325
C200  C     C_R   0.897156 0.501797 0.527875 0.027238
C201  C     C_R   0.426410 0.484504 0.964139 0.031952
C202  C     C_R   0.107900 0.582714 0.061004 0.416169
C203  C     C_R   0.594218 0.013487 0.430059 0.399233
C204  C     C_R   0.404214 0.508891 0.061296 0.410152
Cr1   Cr    Cr6+3 0.530290 0.262330 0.750000 1.016832
Cr2   Cr    Cr6+3 0.732040 0.469710 0.750000 1.011105
Cr3   Cr    Cr6+3 0.737670 0.267960 0.750000 1.015769
Cr4   Cr    Cr6+3 0.262330 0.530290 0.250000 1.012008
Cr5   Cr    Cr6+3 0.469710 0.732040 0.250000 1.015618
Cr6   Cr    Cr6+3 0.267960 0.737670 0.250000 1.015833
H1    H     H_    0.755531 0.435601 0.982737 0.161668
H2    H     H_    0.414290 0.761988 0.018102 0.155847
H3    H     H_    0.506723 0.689909 0.417717 0.210365
H4    H     H_    0.604246 0.609333 0.416144 0.166696
H5    H     H_    0.663735 0.677842 0.383020 0.142470
H6    H     H_    0.212425 0.813008 0.604763 0.159789
H7    H     H_    0.282526 0.757784 0.607087 0.190166
H8    H     H_    0.203272 0.743064 0.638154 0.170137
H9    H     H_    0.365932 0.855894 0.653244 0.173049
H10   H     H_    0.294938 0.910288 0.651180 0.162716
H11   H     H_    0.357769 0.972998 0.598870 0.184329
H12   H     H_    0.423032 0.913533 0.598668 0.161064
H13   H     H_    0.235270 0.626078 0.482410 0.156785
H14   H     H_    0.891026 0.164565 0.913065 0.149441
H15   H     H_    0.897945 0.231164 0.947456 0.157707
H16   H     H_    0.786641 0.141650 0.933319 0.162898
H17   H     H_    0.813575 0.298132 0.919350 0.245148
H18   H     H_    0.805560 0.231689 0.885140 0.171539
H19   H     H_    0.980567 0.315461 0.881924 0.139832
H20   H     H_    0.987851 0.379905 0.916043 0.168789
H21   H     H_    0.842714 0.665762 0.569312 0.177454
H22   H     H_    0.800045 0.746102 0.574734 0.157093
H23   H     H_    0.897207 0.758715 0.597329 0.142126
H24   H     H_    0.551355 0.323905 0.041936 0.162908
H25   H     H_    0.754289 0.688882 0.629462 0.160515
H26   H     H_    0.796352 0.608303 0.623510 0.178028
H27   H     H_    0.682720 0.534872 0.579697 0.204172
H28   H     H_    0.637682 0.611281 0.587190 0.153421
H29   H     H_    0.236486 0.925717 0.929217 0.163816
H30   H     H_    0.202690 0.984141 0.900883 0.149317
H31   H     H_    0.161487 0.861343 0.897199 0.157310
H32   H     H_    0.288031 0.950474 0.859381 0.157421
H33   H     H_    0.322219 0.893423 0.887797 0.220541
H34   H     H_    0.403288 0.044220 0.918470 0.170803
H35   H     H_    0.900433 0.585217 0.822061 0.122266
H36   H     H_    0.374816 0.100596 0.888774 0.146392
H37   H     H_    0.855132 0.169057 0.570276 0.184524
H38   H     H_    0.975985 0.211166 0.579505 0.151198
H39   H     H_    0.885815 0.111432 0.599617 0.164622
H40   H     H_    0.950994 0.252194 0.633162 0.167468
H41   H     H_    0.829673 0.208583 0.624227 0.174709
H42   H     H_    0.876387 0.326572 0.581565 0.165094
H43   H     H_    0.996620 0.370365 0.590813 0.175379
H44   H     H_    0.802963 0.744684 0.925140 0.155382
H45   H     H_    0.837036 0.658131 0.931803 0.178368
H46   H     H_    0.702657 0.247370 0.661260 0.130669
H47   H     H_    0.898910 0.749644 0.903823 0.138673
H48   H     H_    0.792455 0.600833 0.877518 0.181573
H49   H     H_    0.759378 0.687807 0.870233 0.158661
H50   H     H_    0.637579 0.617572 0.911307 0.157144
H51   H     H_    0.674232 0.535195 0.920314 0.197057
H52   H     H_    0.414071 0.320601 0.821589 0.124900
H53   H     H_    0.905100 0.585913 0.678111 0.122005
H54   H     H_    0.692101 0.114873 0.825027 0.127453
H55   H     H_    0.417763 0.314736 0.676864 0.132035
H56   H     H_    0.408138 0.763419 0.348784 0.128035
H57   H     H_    0.378699 0.128041 0.517272 0.165029
H58   H     H_    0.131946 0.700325 0.172960 0.132280
H59   H     H_    0.319988 0.410337 0.319337 0.127901
H60   H     H_    0.574953 0.878658 0.174892 0.126839
H61   H     H_    0.136327 0.701689 0.327896 0.143089
H62   H     H_    0.315694 0.413711 0.178824 0.125634
H63   H     H_    0.220224 0.641067 0.961195 0.159761
H64   H     H_    0.719721 0.019387 0.525613 0.152158
H65   H     H_    0.357636 0.566119 0.960530 0.162506
H66   H     H_    0.752653 0.451032 0.516262 0.162841
H67   H     H_    0.675299 0.250552 0.983751 0.157606
H68   H     H_    0.563481 0.308875 0.986136 0.161980
H69   H     H_    0.342769 0.535251 0.538184 0.162010
H70   H     H_    0.715208 0.001736 0.469424 0.148850
H71   H     H_    0.242721 0.649302 0.017153 0.156024
H72   H     H_    0.325437 0.545852 0.482530 0.159531
H73   H     H_    0.665104 0.227700 0.039756 0.160360
H74   H     H_    0.775468 0.457880 0.460240 0.162782
H75   H     H_    0.341826 0.577716 0.016253 0.155614
H76   H     H_    0.953835 0.629022 0.875862 0.111278
H77   H     H_    0.689117 0.218263 0.605392 0.147862
H78   H     H_    0.373604 0.323839 0.876267 0.120625
H79   H     H_    0.212170 0.617796 0.538338 0.155494
H80   H     H_    0.954923 0.627462 0.623891 0.111268
H81   H     H_    0.680974 0.064816 0.879221 0.112067
H82   H     H_    0.381098 0.313608 0.621616 0.136603
H83   H     H_    0.452722 0.837910 0.399980 0.136028
H84   H     H_    0.078854 0.687306 0.119277 0.119629
H85   H     H_    0.330049 0.359888 0.372047 0.127349
H86   H     H_    0.618678 0.935555 0.121645 0.106088
H87   H     H_    0.080307 0.686553 0.381259 0.131158
H88   H     H_    0.324121 0.368079 0.125232 0.114719
H89   H     H_    0.073684 0.416401 0.169894 0.126117
H90   H     H_    0.424876 0.784832 0.962136 0.160155
H91   H     H_    0.498422 0.027292 0.305397 0.101466
H92   H     H_    0.567351 0.675466 0.164480 0.126118
H93   H     H_    0.065030 0.413646 0.328358 0.127703
H94   H     H_    0.339477 0.920843 0.168993 0.124944
H95   H     H_    0.564588 0.675830 0.336579 0.132992
H96   H     H_    0.431756 0.011944 0.676072 0.111737
H97   H     H_    0.890495 0.322963 0.835419 0.126958
H98   H     H_    0.685927 0.555803 0.662474 0.127885
H99   H     H_    0.425080 0.097234 0.833257 0.127989
H100  H     H_    0.880296 0.318181 0.664137 0.126832
H101  H     H_    0.586615 0.315692 0.511601 0.162390
H102  H     H_    0.685699 0.555315 0.837366 0.126727
H103  H     H_    0.868998 0.226995 0.078099 0.166685
H104  H     H_    0.921006 0.183965 0.105727 0.142720
H105  H     H_    0.804276 0.161887 0.111744 0.175757
H106  H     H_    0.913445 0.287395 0.146948 0.153976
H107  H     H_    0.863277 0.330689 0.119068 0.224084
H108  H     H_    0.008130 0.385762 0.085479 0.167157
H109  H     H_    0.058570 0.350814 0.115335 0.139147
H110  H     H_    0.607011 0.319146 0.349039 0.197083
H111  H     H_    0.714799 0.316965 0.348944 0.164039
H112  H     H_    0.367935 0.101469 0.461443 0.167426
H113  H     H_    0.670566 0.336996 0.313217 0.149733
H114  H     H_    0.642089 0.175299 0.315289 0.162972
H115  H     H_    0.534617 0.178320 0.315002 0.168252
H116  H     H_    0.520551 0.155995 0.372285 0.202901
H117  H     H_    0.630442 0.160238 0.373885 0.154723
H118  H     H_    0.729219 0.828897 0.085100 0.148240
H119  H     H_    0.657097 0.765736 0.052098 0.159595
H120  H     H_    0.648396 0.860413 0.069103 0.159945
H121  H     H_    0.515683 0.708770 0.085269 0.249762
H122  H     H_    0.586598 0.771892 0.118074 0.159703
H123  H     H_    0.778134 0.442400 0.038730 0.162789
H124  H     H_    0.664600 0.676351 0.116819 0.139945
H125  H     H_    0.601312 0.617664 0.082682 0.165408
H126  H     H_    0.898388 0.177820 0.388402 0.161098
H127  H     H_    0.849991 0.220323 0.417618 0.168193
H128  H     H_    0.784101 0.162853 0.383161 0.177806
H129  H     H_    0.851478 0.334169 0.379524 0.202682
H130  H     H_    0.896975 0.291046 0.349840 0.155611
H131  H     H_    0.041016 0.341131 0.381752 0.142560
H132  H     H_    0.994426 0.378440 0.412238 0.168009
H133  H     H_    0.353762 0.123069 0.076042 0.166079
H134  H     H_    0.572949 0.330329 0.455844 0.162095
H135  H     H_    0.258312 0.070276 0.103492 0.144409
H136  H     H_    0.350580 0.188575 0.109067 0.175020
H137  H     H_    0.369738 0.083503 0.145400 0.155398
H138  H     H_    0.463601 0.134416 0.117678 0.223093
H139  H     H_    0.377748 0.987024 0.084874 0.167888
H140  H     H_    0.292025 0.936300 0.114606 0.136317
H141  H     H_    0.648064 0.742865 0.451332 0.148281
H142  H     H_    0.718561 0.821202 0.420580 0.166986
H143  H     H_    0.630324 0.836761 0.439549 0.186673
H144  H     H_    0.578375 0.765036 0.386939 0.172551
N1    N     N_R   0.031642 0.546155 0.080544 -0.399153
N2    N     N_R   0.551101 0.039785 0.920401 -0.398279
N3    N     N_R   0.959028 0.516817 0.579826 -0.392600
N4    N     N_R   0.484082 0.434412 0.921073 -0.401108
N5    N     N_R   0.524340 0.015994 0.413446 -0.389932
N6    N     N_R   0.443541 0.473364 0.081414 -0.396142
N7    N     N_R   0.026254 0.541766 0.418711 -0.395228
N8    N     N_R   0.520720 0.973473 0.081551 -0.396466
N9    N     N_R   0.446561 0.463232 0.416938 -0.391470
N10   N     N_R   0.548757 0.083753 0.574641 -0.388943
N11   N     N_R   0.965847 0.521303 0.919346 -0.394262
N12   N     N_R   0.491217 0.426215 0.577206 -0.397958
O1    O     O_R   0.509640 0.171340 0.784000 -0.516058
O2    O     O_R   0.171340 0.509640 0.216000 -0.515229
O3    O     O_R   0.490360 0.661700 0.284000 -0.512348
O4    O     O_R   0.338300 0.828660 0.216000 -0.517699
O5    O     O_R   0.539230 0.345420 0.781810 -0.494900
O6    O     O_R   0.806190 0.460770 0.718190 -0.497106
O7    O     O_R   0.654580 0.193810 0.781810 -0.495937
O8    O     O_R   0.539230 0.345420 0.718190 -0.494843
O9    O     O_R   0.806190 0.460770 0.781810 -0.497372
O10   O     O_R   0.654580 0.193810 0.718190 -0.497438
O11   O     O_R   0.345420 0.539230 0.281810 -0.496242
O12   O     O_R   0.661700 0.490360 0.716000 -0.515182
O13   O     O_R   0.460770 0.806190 0.218190 -0.498196
O14   O     O_R   0.193810 0.654580 0.281810 -0.497578
O15   O     O_R   0.345420 0.539230 0.218190 -0.495651
O16   O     O_R   0.460770 0.806190 0.281810 -0.494152
O17   O     O_R   0.193810 0.654580 0.218190 -0.496599
O18   O     O_3   0.666667 0.333333 0.750000 -0.230328
O19   O     O_3   0.333333 0.666667 0.250000 -0.228161
O20   O     O_2   0.185929 0.615182 0.071945 -0.465956
O21   O     O_2   0.647687 0.994589 0.416753 -0.558267
O22   O     O_2   0.366358 0.550184 0.071641 -0.487711
O23   O     O_R   0.828660 0.338300 0.784000 -0.513961
O24   O     O_2   0.873237 0.488568 0.412375 -0.531336
O25   O     O_2   0.608549 0.128631 0.087716 -0.533344
O26   O     O_2   0.356744 0.526428 0.427084 -0.506895
O27   O     O_2   0.659703 0.043421 0.576073 -0.544473
O28   O     O_2   0.121084 0.592180 0.913299 -0.509286
O29   O     O_2   0.408383 0.498260 0.584767 -0.515976
O30   O     O_2   0.631535 0.194457 0.928981 -0.490531
O31   O     O_2   0.806851 0.464101 0.571310 -0.517757
O32   O     O_2   0.414509 0.519636 0.913696 -0.505242
O33   O     O_2   0.876783 0.480480 0.086667 -0.520857
O34   O     O_R   0.509640 0.171340 0.716000 -0.505915
O35   O     O_2   0.404374 0.043378 0.412619 -0.524956
O36   O     O_2   0.512923 0.388005 0.088936 -0.519238
O37   O     O_2   0.178940 0.597940 0.427518 -0.493566
O38   O     O_2   0.437328 0.818878 0.072958 -0.495662
O39   O     O_2   0.528418 0.390289 0.409036 -0.524842
O40   O     O_2   0.443251 0.130751 0.570152 -0.504448
O41   O     O_2   0.812034 0.458570 0.927701 -0.506313
O42   O     O_2   0.566880 0.347884 0.567304 -0.469387
O43   O     O_2   0.472077 0.884173 0.914277 -0.515312
O44   O     O_2   0.112955 0.575558 0.586038 -0.536193
O45   O     O_R   0.661700 0.490360 0.784000 -0.515363
O46   O     O_2   0.546745 0.343805 0.930688 -0.474724
O47   O     O_R   0.828660 0.338300 0.716000 -0.517496
O48   O     O_R   0.171340 0.509640 0.284000 -0.514216
O49   O     O_R   0.490360 0.661700 0.216000 -0.515895
O50   O     O_R   0.338300 0.828660 0.284000 -0.504467

loop_
_geom_bond_atom_site_label_1
_geom_bond_atom_site_label_2
_ccdc_geom_bond_type
C165  N6    S    
C107  H21   S    
C153  C166  A    
C24   C184  S    
C32   C45   A    
C108  C120  S    
C158  H82   S    
C93   H137  S    
C6    C196  A    
C114  C115  S    
C90   C95   S    
C138  H62   S    
C154  H86   S    
C125  C188  A    
C126  C187  A    
C85   H124  S    
C115  H38   S    
C129  C185  A    
C117  H49   S    
C141  C154  A    
C106  C107  S    
C150  O23   A    
C103  H17   S    
C98   H11   S    
C108  H36   S    
C58   C195  A    
C112  O6    A    
C108  C109  S    
C120  C133  A    
C75   H90   S    
Cr1   O5    S    
C129  H95   S    
C10   N3    Am   
C66   C72   A    
C126  H93   S    
C15   O36   D    
C128  C180  S    
C134  C179  A    
C53   C190  A    
C139  C181  S    
C12   O33   D    
C101  C130  A    
C58   C61   A    
C107  H23   S    
Cr6   O19   S    
C17   C30   A    
C46   C124  A    
C14   N5    Am   
Cr5   O13   S    
C19   C32   A    
C92   H139  S    
C170  N11   S    
C152  C165  A    
C11   N4    Am   
C29   C69   A    
C86   H122  S    
C31   C44   A    
C130  H96   S    
C23   C37   A    
C35   C163  A    
C149  H84   S    
C22   O43   D    
C7    C197  A    
C124  C182  A    
C130  C177  A    
C132  C181  A    
C87   H120  S    
C146  C180  A    
C141  H60   S    
C203  N5    Am   
C14   O35   D    
C113  C170  A    
C134  H100  S    
C8    O29   D    
C20   C33   A    
Cr6   O14   S    
C33   C47   A    
C174  N3    S    
C56   C62   A    
C30   C43   A    
C183  C186  S    
C34   C48   A    
C88   H131  S    
C161  C177  S    
C39   C47   A    
Cr1   O8    S    
C153  H87   S    
C1    O45   A    
C79   C127  A    
C18   N9    Am   
C100  H6    S    
C151  H83   S    
C140  C187  A    
C123  H89   S    
C160  H80   S    
C157  H76   S    
C162  C175  A    
C18   O39   D    
C22   C36   A    
C35   C78   S    
C148  C162  A    
C80   H106  S    
C27   C66   A    
C37   C50   A    
C109  H32   S    
C168  N9    S    
Cr3   O23   S    
C114  H41   S    
C57   C85   S    
C52   C189  A    
Cr6   O17   S    
C139  O12   A    
C112  O47   A    
C147  C179  A    
C81   H104  S    
C99   H10   S    
C98   C99   S    
C12   C26   A    
C83   H114  S    
C102  H20   S    
C105  H27   S    
C18   C31   A    
C148  H52   S    
C41   C51   A    
Cr2   O6    S    
C44   C48   A    
C119  C171  A    
C68   C166  A    
C111  H43   S    
C53   H70   S    
C183  O4    A    
C70   H2    S    
C8    C198  A    
C67   C77   A    
C166  N7    S    
C15   C28   A    
C85   C86   S    
C54   H75   S    
C106  H26   S    
C56   H73   S    
C13   O16   A    
C203  O21   D    
C62   C199  A    
C57   C125  A    
C39   C189  A    
C110  H30   S    
C145  C181  A    
C131  C176  A    
C69   C76   A    
C137  H56   S    
C74   H101  S    
C52   C60   A    
C46   C82   S    
C139  O8    A    
C55   C63   A    
C7    O28   D    
C97   H143  S    
C89   C91   S    
C80   H107  S    
C27   C40   A    
Cr5   O19   S    
Cr2   O18   S    
C45   C196  A    
C31   C71   A    
C100  H8    S    
C89   H129  S    
C144  H35   S    
C164  N5    S    
C147  C160  A    
C2    C188  S    
C64   H65   S    
C11   O32   D    
C41   C191  A    
C22   N2    Am   
C118  H45   S    
C23   O44   D    
C127  H94   S    
Cr1   O1    S    
C38   C51   A    
C111  H42   S    
C78   H109  S    
C48   C198  A    
C69   H13   S    
C77   H68   S    
C138  C188  A    
C36   C75   A    
C25   C38   A    
C1    C178  S    
C83   C84   S    
C172  C185  S    
C144  C176  A    
C79   C92   S    
Cr1   O34   S    
C175  N4    S    
C3    N7    Am   
C146  H54   S    
C42   C50   A    
C16   O37   D    
C121  C134  A    
C19   O40   D    
C49   C199  A    
C142  C185  A    
C131  H97   S    
C148  C178  A    
C90   C168  A    
C73   H1    S    
C2    O49   A    
C24   O17   A    
C133  C180  A    
C115  H39   S    
C189  C202  A    
C140  H61   S    
C84   H111  S    
C136  H58   S    
C79   C167  A    
C19   N10   Am   
C35   C123  A    
C91   H126  S    
C3    C192  A    
C128  O1    A    
C117  H48   S    
C54   C64   A    
C6    O27   D    
C68   C88   S    
C128  O7    A    
C98   H12   S    
C172  O3    A    
C82   H116  S    
C143  C177  A    
C102  C103  S    
Cr2   O45   S    
C151  C164  A    
C70   C75   A    
C95   H4    S    
C47   C197  A    
C145  H55   S    
C141  C186  A    
C144  C157  A    
C104  H14   S    
C156  H77   S    
C7    N11   Am   
C173  N2    S    
C64   C201  A    
C67   H24   S    
C83   H115  S    
C97   H142  S    
C92   H140  S    
Cr2   O9    S    
C104  H15   S    
C32   C72   A    
C202  N1    Am   
C116  C122  S    
C91   H128  S    
Cr3   O7    S    
C66   H112  S    
C84   H110  S    
C161  O34   A    
C26   C39   A    
C57   C165  A    
C59   H64   S    
C28   C41   A    
C63   C200  A    
C161  O10   A    
Cr5   O3    S    
C116  H51   S    
C52   H71   S    
C87   H119  S    
C94   H135  S    
C204  N6    Am   
C167  N8    S    
Cr3   O18   S    
C101  C169  A    
C62   H67   S    
C14   C27   A    
C152  H88   S    
Cr4   O48   S    
C140  C153  A    
C107  H22   S    
C61   H69   S    
C29   C42   A    
C40   C45   A    
C88   H132  S    
C132  H98   S    
C93   H138  S    
C133  H99   S    
C30   C70   A    
C115  H37   S    
C202  O20   D    
C4    C193  A    
Cr4   O15   S    
C84   H113  S    
C20   N11   Am   
Cr4   O11   S    
C194  O48   A    
C85   H125  S    
C6    N10   Am   
C86   C87   S    
C21   C34   A    
C1    O5    A    
C138  C152  A    
C103  H18   S    
C96   H3    S    
C155  H85   S    
C5    O26   D    
C123  C184  A    
C157  C170  A    
C121  C174  A    
C24   O2    A    
C155  C168  A    
C136  C184  A    
C21   N12   Am   
C135  H102  S    
C34   C74   A    
C163  N1    S    
C81   H103  S    
C37   C76   A    
C99   H9    S    
C187  C194  S    
C150  O9    A    
C15   N6    Am   
C9    O30   D    
C25   N4    Am   
C191  C204  A    
C21   O42   D    
C44   C195  A    
C160  C174  A    
C86   H121  S    
C135  C178  A    
C10   C200  A    
C61   C198  A    
C71   C74   A    
Cr4   O19   S    
C38   C77   A    
C59   C196  A    
C98   C101  S    
C58   H72   S    
C105  C106  S    
C13   O50   A    
C43   C193  A    
C55   C192  A    
C142  H59   S    
C102  C113  S    
C109  C110  S    
C25   O46   D    
C145  C158  A    
C110  H31   S    
C94   H133  S    
Cr1   O18   S    
C92   C93   S    
C111  C114  S    
C78   C80   S    
C158  C171  A    
C159  H81   S    
C122  C135  A    
C65   H123  S    
C63   H66   S    
C17   O38   D    
C82   C83   S    
C103  C104  S    
C105  C119  S    
C117  C118  S    
C36   C49   A    
C51   C201  A    
C150  C176  S    
C93   C94   S    
C8    N12   Am   
C111  C121  S    
C95   H5    S    
C95   C96   S    
C60   H63   S    
C53   C59   A    
C118  H47   S    
C16   N7    Am   
C4    O25   D    
C171  N12   S    
C9    N2    Am   
C5    N9    Am   
Cr2   O12   S    
C190  C203  A    
C109  H33   S    
C122  C175  A    
C114  H40   S    
C156  C169  A    
C127  C186  A    
C65   C73   A    
C116  C117  S    
C11   C201  A    
C118  H44   S    
C81   H105  S    
C102  H19   S    
C105  H28   S    
C149  C163  A    
C169  N10   S    
Cr5   O16   S    
Cr6   O50   S    
C116  H50   S    
C20   O41   D    
C5    C195  A    
C3    O24   D    
C88   C89   S    
C46   C164  A    
C17   N8    Am   
C90   C129  A    
C23   N3    Am   
C106  H25   S    
C71   H134  S    
C2    O15   A    
C172  O11   A    
C28   C67   A    
C50   C200  A    
C110  H29   S    
C43   C49   A    
C146  C159  A    
C16   C29   A    
C72   H57   S    
Cr3   O47   S    
C42   C192  A    
C99   C100  S    
C96   C97   S    
C108  H34   S    
C119  C132  A    
C82   H117  S    
C137  C182  A    
C204  O22   D    
C76   H79   S    
C87   H118  S    
C112  C179  S    
C125  H92   S    
C60   C197  A    
C100  H7    S    
C89   H130  S    
C143  H46   S    
C142  C155  A    
C183  O13   A    
C68   C126  A    
Cr6   O4    S    
C33   C73   A    
C136  C149  A    
C12   N1    Am   
C113  C131  A    
C26   C65   A    
C97   H141  S    
C80   C81   S    
C96   H144  S    
C104  H16   S    
Cr5   O49   S    
C78   H108  S    
C91   H127  S    
Cr3   O10   S    
Cr4   O2    S    
C143  C156  A    
C55   H74   S    
C4    N8    Am   
C124  H91   S    
C154  C167  A    
C194  O14   A    
C56   C193  A    
C9    C199  A    
C120  C173  A    
C94   H136  S    
C40   C190  A    
C54   C191  A    
C13   C182  S    
C159  C173  A    
C137  C151  A    
C147  H53   S    
C10   O31   D    
C162  H78   S    
