data_mof_unit_33267.cif
_audit_creation_date              2013-03-05T15:53:29-0500
_audit_creation_method            fapswitch 2.2
_symmetry_space_group_name_H-M    P1
_symmetry_Int_Tables_number       1
_space_group_crystal_system       triclinic
_cell_length_a                    24.66923
_cell_length_b                    17.360918
_cell_length_c                    15.793124
_cell_angle_alpha                 90.112499
_cell_angle_beta                  129.387802
_cell_angle_gamma                 89.707137
_cell_volume                      5227.52078479

loop_
_atom_site_label
_atom_site_type_symbol
_atom_site_description
_atom_site_fract_x
_atom_site_fract_y
_atom_site_fract_z
_atom_type_partial_charge
C1    C     C_R   0.848602 0.861682 0.232231 0.344147
C2    C     C_R   0.156109 0.865785 0.772113 0.369937
C3    C     C_R   0.348538 0.361479 0.236519 0.377245
C4    C     C_R   0.657816 0.370383 0.779240 0.280440
N1    N     N_R   0.888400 0.921830 0.294620 -0.097226
N2    N     N_R   0.111600 0.921830 0.705380 -0.101794
N3    N     N_R   0.388400 0.421830 0.294620 -0.094956
N4    N     N_R   0.611600 0.421830 0.705380 -0.094060
C5    C     C_R   0.115267 0.898545 0.409801 -0.121247
C6    C     C_R   0.913174 0.857255 0.591686 -0.102554
C7    C     C_R   0.593473 0.362725 0.408454 -0.098869
C8    C     C_R   0.385787 0.397076 0.591043 -0.095370
H1    H     H_    0.094787 0.900669 0.326075 0.169282
H2    H     H_    0.943316 0.839664 0.674558 0.150271
H3    H     H_    0.567665 0.352043 0.325305 0.126358
H4    H     H_    0.407158 0.396220 0.675292 0.164836
N5    N     N_R   0.079940 0.922160 0.443410 -0.058796
N6    N     N_R   0.920060 0.922160 0.556590 -0.051365
N7    N     N_R   0.579940 0.422160 0.443410 -0.051429
N8    N     N_R   0.420060 0.422160 0.556590 -0.057324
C9    C     C_R   0.188921 0.903661 0.590644 -0.027344
C10   C     C_R   0.830788 0.863216 0.411595 -0.128889
C11   C     C_R   0.668466 0.361516 0.590800 -0.160175
C12   C     C_R   0.311390 0.404501 0.410488 -0.023488
H5    H     H_    0.236685 0.916553 0.671718 0.158668
H6    H     H_    0.778342 0.858950 0.336315 0.192836
H7    H     H_    0.712014 0.347510 0.674336 0.157004
H8    H     H_    0.262910 0.417901 0.330453 0.165085
N9    N     N_R   0.125650 0.922400 0.556620 -0.061369
N10   N     N_R   0.874350 0.922400 0.443380 -0.065971
N11   N     N_R   0.625650 0.422400 0.556620 -0.054847
N12   N     N_R   0.374350 0.422400 0.443380 -0.056074
C13   C     C_R   0.071004 0.872196 0.784390 -0.145751
C14   C     C_R   0.943076 0.860645 0.241345 -0.114672
C15   C     C_R   0.562439 0.366888 0.770076 -0.134296
C16   C     C_R   0.435009 0.365883 0.227122 -0.119057
H9    H     H_    0.044714 0.867262 0.818598 0.191372
H10   H     H_    0.981031 0.845615 0.230845 0.161333
H11   H     H_    0.527344 0.354610 0.787239 0.158029
H12   H     H_    0.462282 0.357822 0.195249 0.190517
N13   N     N_R   0.054230 0.922730 0.705400 -0.077907
N14   N     N_R   0.945770 0.922730 0.294600 -0.075257
N15   N     N_R   0.554230 0.422730 0.705400 -0.071535
N16   N     N_R   0.445770 0.422730 0.294600 -0.081911
C17   C     C_R   0.882891 0.820990 0.202043 -0.050842
C18   C     C_R   0.131558 0.831969 0.820622 -0.056517
C19   C     C_R   0.377428 0.323819 0.195898 -0.053521
C20   C     C_R   0.625222 0.331313 0.813423 -0.020793
C21   C     C_R   0.184197 0.886843 0.501247 0.042149
C22   C     C_R   0.857774 0.819009 0.502572 0.034894
C23   C     C_R   0.647258 0.322030 0.498017 0.056925
C24   C     C_R   0.317079 0.385572 0.499801 0.027939
C25   C     C_R   0.809678 0.090051 0.409054 -0.021575
C26   C     C_R   0.169725 0.136948 0.590267 -0.024840
C27   C     C_R   0.330046 0.637368 0.409673 -0.034697
C28   C     C_R   0.689190 0.597632 0.592610 -0.008951
N17   N     N_R   0.873790 0.077030 0.443380 -0.067120
N18   N     N_R   0.126210 0.077030 0.556620 -0.068595
N19   N     N_R   0.373790 0.577030 0.443380 -0.068901
N20   N     N_R   0.626210 0.577030 0.556620 -0.066822
C29   C     C_R   0.923660 0.103198 0.197725 -0.010371
C30   C     C_R   0.075159 0.106353 0.799718 -0.011012
C31   C     C_R   0.424440 0.615321 0.203913 -0.001145
C32   C     C_R   0.577241 0.602211 0.803208 -0.026902
N21   N     N_R   0.945200 0.076700 0.294600 -0.082868
N22   N     N_R   0.054800 0.076700 0.705400 -0.085645
N23   N     N_R   0.445200 0.576700 0.294600 -0.085772
N24   N     N_R   0.554800 0.576700 0.705400 -0.084757
C33   C     C_R   0.165871 0.107011 0.801491 0.344023
C34   C     C_R   0.833440 0.102322 0.196406 0.277366
C35   C     C_R   0.665999 0.605926 0.801513 0.383125
C36   C     C_R   0.334376 0.612601 0.203719 0.336440
N25   N     N_R   0.111030 0.077600 0.705380 -0.106587
N26   N     N_R   0.888970 0.077600 0.294620 -0.107780
N27   N     N_R   0.611030 0.577600 0.705380 -0.112088
N28   N     N_R   0.388970 0.577600 0.294620 -0.105183
C37   C     C_R   0.884212 0.104074 0.588921 -0.100069
C38   C     C_R   0.086973 0.143040 0.408058 -0.125741
C39   C     C_R   0.412429 0.643074 0.591780 -0.114545
C40   C     C_R   0.614479 0.607812 0.411063 -0.108458
H13   H     H_    0.903955 0.105643 0.672258 0.115179
H14   H     H_    0.055319 0.160906 0.323915 0.117342
H15   H     H_    0.444447 0.660767 0.675856 0.115393
H16   H     H_    0.595484 0.609547 0.328082 0.117318
N29   N     N_R   0.919490 0.077280 0.556590 -0.052709
N30   N     N_R   0.080510 0.077280 0.443410 -0.053598
N31   N     N_R   0.419490 0.577280 0.556590 -0.054616
N32   N     N_R   0.580510 0.577280 0.443410 -0.052337
Ni1   Ni    Ni4+2 0.882160 0.999430 0.370180 0.276982
Ni2   Ni    Ni4+2 0.117840 0.999430 0.629820 0.284980
Ni3   Ni    Ni4+2 0.382160 0.499430 0.370180 0.294223
Ni4   Ni    Ni4+2 0.617840 0.499430 0.629820 0.273637
Ni5   Ni    Ni4+2 0.012460 0.999430 0.370180 0.222580
Ni6   Ni    Ni4+2 0.987540 0.999430 0.629820 0.227539
Ni7   Ni    Ni4+2 0.512460 0.499430 0.370180 0.222051
Ni8   Ni    Ni4+2 0.487540 0.499430 0.629820 0.221517
C41   C     C_R   0.815162 0.114061 0.496313 -0.020043
C42   C     C_R   0.142174 0.182364 0.498400 0.014651
C43   C     C_R   0.357282 0.683064 0.501300 0.016413
C44   C     C_R   0.682138 0.623000 0.504392 -0.025037
C45   C     C_R   0.854416 0.122535 0.136429 -0.050873
C46   C     C_R   0.144788 0.125100 0.862664 -0.058336
C47   C     C_R   0.355173 0.639709 0.145989 -0.075668
C48   C     C_R   0.646523 0.621766 0.864788 -0.064725
C49   C     C_R   0.830860 0.749556 0.603614 0.013144
C50   C     C_R   0.232744 0.848732 0.409594 0.039057
C51   C     C_R   0.266169 0.345944 0.586816 0.043303
C52   C     C_R   0.659106 0.229782 0.392302 0.025848
C53   C     C_R   0.825409 0.754921 0.510685 0.037736
C54   C     C_R   0.242256 0.860968 0.506215 -0.000812
C55   C     C_R   0.260678 0.353406 0.493250 0.004188
C56   C     C_R   0.675682 0.251694 0.491594 0.049898
C57   C     C_R   0.784142 0.702267 0.424828 -0.140399
C58   C     C_R   0.300196 0.827738 0.604808 -0.128123
C59   C     C_R   0.209199 0.312238 0.397826 -0.120664
C60   C     C_R   0.722883 0.206022 0.584853 -0.157459
H17   H     H_    0.781762 0.703643 0.354098 0.187239
H18   H     H_    0.310035 0.836364 0.681278 0.173887
H19   H     H_    0.204599 0.314854 0.325058 0.182667
H20   H     H_    0.733272 0.217527 0.661347 0.139082
C61   C     C_R   0.167724 0.259763 0.397863 -0.148799
C62   C     C_R   0.763720 0.151091 0.583252 -0.129611
C63   C     C_R   0.740179 0.652766 0.425755 -0.146348
C64   C     C_R   0.340958 0.773440 0.604460 -0.140723
H21   H     H_    0.133154 0.224935 0.325294 0.142880
H22   H     H_    0.805444 0.122607 0.659088 0.137991
H23   H     H_    0.703829 0.616809 0.355085 0.140855
H24   H     H_    0.380240 0.743984 0.680655 0.140799
C65   C     C_R   0.175370 0.248362 0.492524 0.022043
C66   C     C_R   0.756663 0.142044 0.488193 0.045131
C67   C     C_R   0.738870 0.656150 0.513267 0.031189
C68   C     C_R   0.326175 0.752809 0.506025 0.020948
C69   C     C_R   0.222486 0.293979 0.585192 -0.035235
C70   C     C_R   0.697468 0.174312 0.389259 -0.007018
C71   C     C_R   0.789844 0.699344 0.607096 -0.002395
C72   C     C_R   0.275853 0.795058 0.410655 -0.035164
C73   C     C_3   0.786187 0.754012 0.678861 0.097489
C74   C     C_3   0.289237 0.847618 0.350008 0.119156
C75   C     C_3   0.206134 0.349097 0.639961 0.114050
C76   C     C_3   0.681163 0.209605 0.286777 0.116710
C77   C     C_3   0.829345 0.811385 0.669516 0.099390
C78   C     C_3   0.242633 0.907449 0.349363 0.110128
C79   C     C_3   0.253498 0.407468 0.640861 0.114088
C80   C     C_3   0.640979 0.273206 0.294239 0.095748
H25   H     H_    0.753296 0.209523 0.067237 0.145403
H26   H     H_    0.285419 0.114073 0.040308 0.188324
H27   H     H_    0.227941 0.597183 0.961259 0.181410
H28   H     H_    0.784569 0.616886 0.033312 0.178855
H29   H     H_    0.173429 0.700716 0.792067 0.176553
H30   H     H_    0.758342 0.793485 0.024874 0.163164
H31   H     H_    0.696400 0.211983 0.826107 0.141631
H32   H     H_    0.249325 0.284541 0.051020 0.177395
C81   C     C_2   0.167101 0.767441 0.898001 -0.024485
C82   C     C_2   0.859232 0.748733 0.141631 -0.122179
C83   C     C_2   0.654537 0.270065 0.891243 -0.133461
C84   C     C_2   0.353298 0.250375 0.138229 -0.039570
C85   C     C_2   0.190765 0.708004 0.874221 -0.111454
C86   C     C_2   0.791071 0.741924 0.059868 0.102871
C87   C     C_2   0.695786 0.219119 0.893968 -0.031977
C88   C     C_2   0.285136 0.236623 0.075842 -0.004508
H33   H     H_    0.812148 0.135744 0.963176 0.147697
H34   H     H_    0.157015 0.201424 0.980797 0.162922
H35   H     H_    0.326513 0.734918 0.032493 0.198473
H36   H     H_    0.659252 0.717076 0.964677 0.179234
C89   C     C_2   0.805765 0.149280 0.023588 -0.100608
C90   C     C_2   0.185283 0.158657 0.971378 -0.121750
C91   C     C_2   0.309586 0.679283 0.039294 -0.085460
C92   C     C_2   0.686586 0.668211 0.963602 -0.134874
C93   C     C_2   0.752538 0.190722 0.000638 0.019029
C94   C     C_2   0.254685 0.160909 0.036504 -0.024795
C95   C     C_2   0.244194 0.654667 0.959212 -0.016267
C96   C     C_2   0.756248 0.667853 0.026294 -0.061073
H37   H     H_    0.180198 0.772397 0.977617 0.235833
H38   H     H_    0.894226 0.699171 0.175269 0.150565
H39   H     H_    0.651062 0.274418 0.956470 0.177712
H40   H     H_    0.390611 0.206178 0.156124 0.187677
N33   N     N_R   0.778318 0.847910 0.190316 0.197688
O1    O     O_R   0.758706 0.778921 0.192249 -0.477843
O2    O     O_R   0.733782 0.904327 0.152532 -0.352758
N34   N     N_R   0.225155 0.854846 0.807331 0.222318
O3    O     O_R   0.236004 0.799107 0.764439 -0.455233
O4    O     O_R   0.278110 0.879887 0.903651 -0.328897
N35   N     N_R   0.290352 0.336004 0.228087 0.196034
O5    O     O_R   0.294115 0.270184 0.270884 -0.424235
O6    O     O_R   0.229475 0.368947 0.157943 -0.387277
N36   N     N_R   0.732036 0.381767 0.844242 0.222365
O7    O     O_R   0.776031 0.324391 0.886446 -0.431450
O8    O     O_R   0.755913 0.451130 0.858308 -0.390944
C97   C     C_1   0.713971 0.779166 0.628633 0.147578
N37   N     N_1   0.657475 0.798964 0.588847 -0.030293
C98   C     C_1   0.364298 0.868475 0.415329 0.111273
N38   N     N_1   0.422828 0.884607 0.466294 -0.037727
C99   C     C_1   0.130599 0.369783 0.569774 0.102779
N39   N     N_1   0.071680 0.385802 0.514997 -0.049300
C100  C     C_1   0.742838 0.236750 0.299392 0.095534
N40   N     N_1   0.790812 0.258297 0.308987 -0.063328
N41   N     N_R   0.825576 0.726677 0.792098 0.306895
O9    O     O_R   0.866380 0.666571 0.826422 -0.296652
O10   O     O_R   0.835103 0.773555 0.864947 -0.264333
N42   N     N_R   0.259273 0.816991 0.241193 0.267726
O11   O     O_R   0.198246 0.783709 0.180647 -0.300444
O12   O     O_R   0.292600 0.824149 0.202718 -0.376934
N43   N     N_R   0.234047 0.321449 0.749153 0.272803
O13   O     O_R   0.295569 0.288794 0.814178 -0.273359
O14   O     O_R   0.197962 0.329692 0.782847 -0.366878
N44   N     N_R   0.633610 0.162452 0.187799 0.296805
O15   O     O_R   0.600510 0.104598 0.188533 -0.309610
O16   O     O_R   0.610439 0.190063 0.093434 -0.276362
C101  C     C_1   0.791843 0.882444 0.605364 0.056823
N45   N     N_1   0.762741 0.937829 0.555391 -0.060844
C102  C     C_1   0.277908 0.978369 0.414304 0.065734
N46   N     N_1   0.305316 0.033769 0.464973 -0.038077
C103  C     C_1   0.218326 0.476778 0.571062 0.054294
N47   N     N_1   0.190993 0.530932 0.516566 -0.049946
C104  C     C_1   0.672597 0.351213 0.321542 0.034025
N48   N     N_1   0.697149 0.411988 0.342806 -0.061457
N49   N     N_R   0.898869 0.828016 0.774832 0.260890
O17   O     O_R   0.949210 0.777038 0.821799 -0.327584
O18   O     O_R   0.908998 0.891600 0.826871 -0.341400
N50   N     N_R   0.177989 0.926361 0.238917 0.275246
O19   O     O_R   0.118684 0.893548 0.198398 -0.345901
O20   O     O_R   0.180806 0.972437 0.176893 -0.334777
N51   N     N_R   0.316422 0.428565 0.751540 0.275855
O21   O     O_R   0.376928 0.396447 0.796229 -0.347267
O22   O     O_R   0.310980 0.476690 0.809134 -0.339479
N52   N     N_R   0.565365 0.273988 0.199949 0.260557
O23   O     O_R   0.522304 0.228879 0.197375 -0.357903
O24   O     O_R   0.541367 0.316792 0.114978 -0.312995
C105  C     C_1   0.752928 0.040319 0.328624 0.224572
N53   N     N_1   0.707639 0.999233 0.266069 0.044434
C106  C     C_1   0.244464 0.129059 0.674053 0.259636
N54   N     N_1   0.304808 0.122772 0.738794 0.038833
C107  C     C_1   0.255422 0.630100 0.325111 0.250982
N55   N     N_1   0.195163 0.624118 0.259598 0.033692
C108  C     C_1   0.750579 0.554865 0.678773 0.246279
N56   N     N_1   0.799792 0.519292 0.745742 0.037379
C109  C     C_1   0.958097 0.085409 0.153003 0.093147
N57   N     N_1   0.985788 0.070992 0.117128 -0.026936
C110  C     C_1   0.039321 0.093220 0.843034 0.124697
N58   N     N_1   0.011296 0.082426 0.879117 -0.034212
C111  C     C_1   0.458859 0.610043 0.157234 0.126745
N59   N     N_1   0.485811 0.605714 0.118439 -0.049288
C112  C     C_1   0.542366 0.586805 0.847636 0.093093
N60   N     N_1   0.514330 0.574306 0.883301 -0.034762
N61   N     N_R   0.236641 0.094642 0.845668 0.208348
O25   O     O_R   0.255135 0.028588 0.832094 -0.397223
O26   O     O_R   0.280751 0.151514 0.888555 -0.352982
N62   N     N_R   0.764701 0.073598 0.143673 0.233641
O27   O     O_R   0.737257 0.026870 0.061279 -0.326477
O28   O     O_R   0.722688 0.114845 0.147897 -0.403142
N63   N     N_R   0.720816 0.645323 0.814195 0.210553
O29   O     O_R   0.783481 0.615590 0.877239 -0.347757
O30   O     O_R   0.713539 0.719315 0.798600 -0.403243
N64   N     N_R   0.263506 0.595980 0.155914 0.209531
O31   O     O_R   0.247257 0.527674 0.166735 -0.396020
O32   O     O_R   0.214961 0.648559 0.102303 -0.365885

loop_
_geom_bond_atom_site_label_1
_geom_bond_atom_site_label_2
_geom_bond_distance
_ccdc_geom_bond_type
C12   C24   1.366542 A    
C35   N27   1.332949 A    
N43   O13   1.301880 A    
H32   C88   1.086476 S    
C47   C91   1.472330 S    
C23   C56   1.440148 S    
C59   C61   1.373696 A    
C27   N19   1.344155 A    
N14   Ni5   1.851596 S    
N5    N9    1.381874 A    
C76   C100  1.482896 S    
C57   H17   1.081040 S    
N1    Ni1   1.867455 S    
C29   C45   1.365473 A    
C74   C98   1.484985 S    
C14   N14   1.341573 A    
N4    N15   1.415481 A    
C56   C60   1.404439 A    
C4    N4    1.328203 A    
N7    N11   1.381874 A    
C39   N31   1.327500 A    
C9    C21   1.371891 A    
N20   N32   1.381862 A    
C34   C45   1.383263 A    
N63   O29   1.299236 A    
C32   C112  1.439868 S    
C2    N2    1.336982 A    
C103  N47   1.157359 T    
C2    C18   1.375745 A    
N24   N27   1.387517 A    
C61   H21   1.080975 S    
N43   O14   1.302183 A    
C7    N7    1.307309 A    
N24   Ni8   1.865570 S    
C60   C62   1.395494 A    
C43   C68   1.457186 S    
H33   C89   1.086145 S    
C1    N1    1.343080 A    
C32   N24   1.342849 A    
N26   Ni1   1.886028 S    
C39   C43   1.379040 A    
N25   Ni2   1.881418 S    
C82   C86   1.324605 D    
C3    N3    1.329794 A    
N35   O6    1.300754 A    
C79   N51   1.469294 S    
N44   O16   1.302468 A    
N63   O30   1.298370 A    
N12   Ni3   1.858325 S    
C19   C84   1.457657 S    
N41   O9    1.301909 A    
C88   C94   1.446620 S    
C83   H39   1.089020 S    
C112  N60   1.157223 T    
C31   C111  1.437432 S    
C81   H37   1.084934 S    
C64   C68   1.399175 A    
C16   C19   1.383646 A    
C71   C73   1.522542 S    
C111  N59   1.157339 T    
C63   H23   1.082718 S    
C4    N36   1.436213 S    
N41   O10   1.302452 A    
C5    H1    1.075746 S    
N9    Ni2   1.853633 S    
N64   O32   1.299731 A    
C77   N49   1.474487 S    
H34   C90   1.088868 S    
C1    N33   1.431291 S    
H30   C86   1.089445 S    
C110  N58   1.157422 T    
H27   C95   1.085553 S    
N42   O11   1.301706 A    
N33   O2    1.296807 A    
C35   C48   1.382743 A    
C52   C70   1.368768 A    
C38   C42   1.376957 A    
C108  N56   1.157251 T    
C28   C108  1.439971 S    
C33   N25   1.338969 A    
N6    N10   1.381858 A    
C11   H7    1.074066 S    
C15   N15   1.327995 A    
C107  N55   1.157700 T    
C54   C58   1.403870 A    
C86   C96   1.450265 S    
N8    N12   1.381858 A    
C53   C57   1.401187 A    
N4    Ni4   1.871968 S    
C64   H24   1.079828 S    
C58   C64   1.377361 A    
C38   N30   1.325847 A    
C7    H3    1.050419 S    
N21   Ni5   1.856721 S    
N8    Ni8   1.865910 S    
N32   Ni7   1.880276 S    
C37   N29   1.339182 A    
C46   C90   1.452740 S    
N61   O25   1.298850 A    
C40   C44   1.381543 A    
N36   O8    1.298672 A    
N23   Ni7   1.856721 S    
C13   C18   1.397415 A    
C80   N52   1.473669 S    
C66   C70   1.409596 A    
C75   C79   1.543805 S    
C78   C102  1.482697 S    
C27   C107  1.438729 S    
N10   Ni1   1.858325 S    
N11   Ni4   1.853634 S    
C15   C20   1.376651 A    
N18   N30   1.381862 A    
C35   N63   1.414849 S    
N50   O19   1.301268 A    
C8    C24   1.375444 A    
N34   O4    1.300291 A    
C101  N45   1.157444 T    
C31   N23   1.353690 A    
N20   Ni4   1.872425 S    
C89   C93   1.326840 D    
H25   C93   1.089464 S    
C44   C67   1.438225 S    
N62   O28   1.292835 A    
C82   H38   1.086272 S    
C83   C87   1.324752 D    
C98   N38   1.157315 T    
C8    H4    1.076238 S    
C10   C22   1.371775 A    
C16   H12   1.074340 S    
C5    C21   1.378201 A    
N51   O21   1.301193 A    
C31   C47   1.395062 A    
C9    H5    1.079235 S    
C6    H2    1.059861 S    
C36   N64   1.427929 S    
C40   H16   1.076379 S    
C30   N22   1.336508 A    
N44   O15   1.302368 A    
C91   C95   1.341694 D    
C24   C55   1.443418 S    
C25   C41   1.361205 A    
N49   O17   1.303066 A    
C33   C46   1.391884 A    
N22   N25   1.387517 A    
C9    N9    1.327362 A    
N2    N13   1.415481 A    
C22   C53   1.425251 S    
C13   H9    1.079463 S    
C30   C110  1.439388 S    
C52   C56   1.398712 A    
C12   H8    1.077923 S    
H31   C87   1.088241 S    
C62   H22   1.082139 S    
C15   H11   1.080931 S    
N35   O5    1.301367 A    
C12   N12   1.326300 A    
C102  N46   1.157375 T    
C34   N26   1.329143 A    
C105  N53   1.156540 T    
N30   Ni5   1.880276 S    
C29   N21   1.342850 A    
C48   C92   1.451929 S    
N29   Ni6   1.871181 S    
C38   H14   1.074268 S    
C67   C71   1.407076 A    
C11   C23   1.384789 A    
N13   Ni6   1.842854 S    
C57   C63   1.394530 A    
C37   H13   1.075486 S    
H35   C91   1.086396 S    
C68   C72   1.403464 A    
N3    Ni3   1.867455 S    
N31   Ni8   1.871180 S    
C8    N8    1.337573 A    
C26   N18   1.342423 A    
N15   Ni8   1.842855 S    
C73   C77   1.535674 S    
C36   N28   1.336150 A    
C14   C17   1.379432 A    
N19   Ni3   1.867637 S    
N3    N16   1.415643 A    
C37   C41   1.380897 A    
N18   Ni2   1.872427 S    
C78   N50   1.469734 S    
C58   H18   1.080508 S    
N17   Ni1   1.867637 S    
N27   Ni4   1.881417 S    
N33   O1    1.301654 A    
C73   C97   1.481094 S    
H36   C92   1.087787 S    
C33   N61   1.425370 S    
C36   C47   1.383392 A    
C20   C83   1.425976 S    
C73   N41   1.469974 S    
N52   O23   1.302674 A    
N52   O24   1.301815 A    
H26   C94   1.084297 S    
C74   C78   1.540706 S    
N6    Ni6   1.865909 S    
C65   C69   1.402144 A    
C16   N16   1.348956 A    
N5    Ni5   1.856918 S    
C28   C44   1.363590 A    
C51   C79   1.516154 S    
C6    C22   1.361591 A    
C77   C101  1.485916 S    
C26   C106  1.439078 S    
C52   C80   1.512951 S    
N7    Ni7   1.856918 S    
N62   O27   1.301193 A    
C72   C74   1.505617 S    
C4    C20   1.398554 A    
C50   C54   1.404806 A    
C5    N5    1.338598 A    
C32   C48   1.370161 A    
C18   C81   1.467184 S    
C49   C53   1.389486 A    
C84   H40   1.086002 S    
C50   C78   1.518005 S    
C25   N17   1.324800 A    
C87   C93   1.429703 S    
C63   C67   1.403900 A    
C14   H10   1.080110 S    
C51   C55   1.401887 A    
C21   C54   1.452699 S    
C76   C80   1.533726 S    
C61   C65   1.397396 A    
C76   N44   1.472179 S    
C41   C66   1.446814 S    
C80   C104  1.486615 S    
C55   C59   1.403878 A    
N51   O22   1.301632 A    
C69   C75   1.504066 S    
N23   N28   1.387362 A    
C84   C88   1.325052 D    
N49   O18   1.301946 A    
C59   H19   1.081803 S    
C2    N34   1.428804 S    
C49   C71   1.366214 A    
N50   O20   1.301644 A    
C29   C109  1.440112 S    
N64   O31   1.299505 A    
N61   O26   1.300260 A    
C13   N13   1.357428 A    
C25   C105  1.438762 S    
C40   N32   1.339069 A    
N16   Ni7   1.851598 S    
N2    Ni2   1.871968 S    
C45   C89   1.454310 S    
C39   H15   1.072924 S    
C1    C17   1.395080 A    
H29   C85   1.085369 S    
C6    N6    1.315166 A    
C42   C65   1.448622 S    
C3    C19   1.385918 A    
N1    N14   1.415643 A    
H28   C96   1.085880 S    
C90   C94   1.325271 D    
N17   N29   1.381874 A    
C104  N48   1.157533 T    
C81   C85   1.348037 D    
C97   N37   1.157556 T    
C10   N10   1.336858 A    
C49   C77   1.510445 S    
N19   N31   1.381874 A    
C7    C23   1.368525 A    
N21   N26   1.387362 A    
N28   Ni3   1.886028 S    
C100  N40   1.157688 T    
C60   H20   1.082424 S    
C92   C96   1.331943 D    
C28   N20   1.322491 A    
C70   C76   1.527061 S    
C51   C69   1.396639 A    
C99   N39   1.157302 T    
C10   H6    1.068350 S    
C27   C43   1.393492 A    
C106  N54   1.157784 T    
C79   C103  1.482090 S    
N22   Ni6   1.865571 S    
C26   C42   1.391462 A    
C75   N43   1.473499 S    
C17   C82   1.456248 S    
N36   O7    1.299177 A    
C109  N57   1.157236 T    
C3    N35   1.427368 S    
C62   C66   1.405871 A    
N42   O12   1.302266 A    
C85   C95   1.464057 S    
N34   O3    1.300680 A    
C75   C99   1.484318 S    
C34   N62   1.425636 S    
C50   C72   1.402459 A    
C30   C46   1.371840 A    
C11   N11   1.338458 A    
C74   N42   1.473332 S    
