data_mof_unit_63506.cif
_audit_creation_date              2012-12-11T15:13:00-0500
_audit_creation_method            fapswitch 2.2
_symmetry_space_group_name_H-M    P1
_symmetry_Int_Tables_number       1
_space_group_crystal_system       triclinic
_cell_length_a                    13.58073
_cell_length_b                    13.56189
_cell_length_c                    28.309751
_cell_angle_alpha                 89.868118
_cell_angle_beta                  90.092573
_cell_angle_gamma                 120.001739
_cell_volume                      4515.451586

loop_
_atom_site_label
_atom_site_type_symbol
_atom_type_description
_atom_site_fract_x
_atom_site_fract_y
_atom_site_fract_z
_atom_type_partial_charge
C1    C     C_R   0.378786 0.099907 0.432960 0.542552
C2    C     C_1   0.341301 0.688966 0.349661 0.066720
C3    C     C_3   0.710549 0.066384 0.270974 0.303496
C4    C     C_R   0.398740 0.776401 0.434244 0.543833
C5    C     C_3   0.919672 0.133125 0.283915 0.350258
C6    C     C_3   0.936403 0.137806 0.229383 0.696655
C7    C     C_1   0.897338 0.190906 0.112033 0.082857
C8    C     C_3   0.821317 0.155265 0.296420 -0.136014
C9    C     C_3   0.728737 0.069398 0.216658 0.067834
C10   C     C_3   0.851115 0.166045 0.204232 0.011278
C11   C     C_3   0.869412 0.281899 0.223657 0.692255
C12   C     C_1   0.363301 0.721978 0.389587 0.047871
C13   C     C_3   0.852743 0.275106 0.278016 -0.276618
C14   C     C_1   0.871058 0.174627 0.152996 0.124341
C15   C     C_1   0.801063 0.148424 0.347477 0.038278
C16   C     C_R   0.722391 0.120940 0.433741 0.538720
C17   C     C_1   0.772569 0.138379 0.388122 0.051278
C18   C     C_3   0.450661 0.159440 0.269447 0.106811
C19   C     C_3   0.349842 0.271326 0.280770 0.124722
C20   C     C_3   0.343068 0.279579 0.226221 0.245328
C21   C     C_1   0.305536 0.194754 0.109811 0.083128
C22   C     C_3   0.346193 0.157701 0.294067 -0.052947
C23   C     C_3   0.259387 0.536467 0.243159 -0.082345
C24   C     C_3   0.440248 0.162591 0.214435 0.606928
C25   C     C_3   0.333658 0.172419 0.201541 -0.008354
C26   C     C_3   0.224329 0.065466 0.220188 0.654672
C27   C     C_3   0.232542 0.053462 0.275230 0.450647
C28   C     C_R   0.378354 0.101700 0.565727 0.556990
C29   C     C_1   0.323310 0.183159 0.150394 0.118427
C30   C     C_1   0.354309 0.147406 0.345490 0.031472
C31   C     C_1   0.363176 0.130864 0.386564 0.034626
C32   C     C_3   0.450920 0.765162 0.729541 0.704607
C33   C     C_3   0.300947 0.558013 0.717800 0.578524
C34   C     C_3   0.309279 0.635304 0.206631 -0.000701
C35   C     C_3   0.295016 0.544507 0.772427 -0.110162
C36   C     C_1   0.299441 0.608834 0.889330 0.031474
C37   C     C_3   0.335315 0.683168 0.705007 0.063923
C38   C     C_3   0.439896 0.750875 0.783989 -0.149620
C39   C     C_3   0.318803 0.656083 0.797373 -0.190060
C40   C     C_R   0.399441 0.778784 0.566861 0.551207
C41   C     C_3   0.231999 0.689815 0.779258 -0.207684
C42   C     C_3   0.244366 0.710073 0.725038 0.191781
C43   C     C_1   0.309213 0.636830 0.848554 -0.041100
C44   C     C_1   0.348213 0.703179 0.653764 0.112393
C45   C     C_3   0.371806 0.600383 0.271135 0.234826
C46   C     C_1   0.366934 0.730351 0.612913 0.079195
C47   C     C_3   0.734090 0.181769 0.727168 0.277241
C48   C     C_3   0.943391 0.263050 0.715126 0.156917
C49   C     C_3   0.959144 0.270944 0.769845 0.068562
C50   C     C_1   0.896156 0.199471 0.887093 0.043457
C51   C     C_3   0.825131 0.161446 0.702785 -0.026337
C52   C     C_R   0.723317 0.122536 0.566109 0.555466
C53   C     C_3   0.745621 0.182916 0.781578 -0.178623
C54   C     C_3   0.851404 0.174146 0.795103 -0.072830
C55   C     C_3   0.832887 0.058036 0.777028 0.273047
C56   C     C_3   0.324497 0.663389 0.299483 0.059855
C57   C     C_3   0.817619 0.050688 0.722479 0.363139
C58   C     C_1   0.869569 0.183458 0.846240 0.041914
C59   C     C_1   0.805227 0.152680 0.651750 0.094407
C60   C     C_1   0.775510 0.141251 0.611280 0.080741
C61   C     C_3   0.323933 0.056095 0.727747 0.265629
C62   C     C_3   0.239647 0.182124 0.714511 0.110717
C63   C     C_3   0.230880 0.190050 0.769737 0.495008
C64   C     C_3   0.211284 0.601544 0.271801 -0.149022
C65   C     C_1   0.308089 0.203935 0.886651 0.032367
C66   C     C_3   0.342496 0.166372 0.702492 -0.020338
C67   C     C_3   0.420507 0.696128 0.234605 0.266258
C68   C     C_3   0.329203 0.070979 0.782020 0.227810
C69   C     C_3   0.331671 0.183515 0.794675 -0.018905
C70   C     C_3   0.445556 0.282532 0.775594 -0.254613
C71   C     C_3   0.453127 0.270989 0.721399 0.285991
C72   C     C_1   0.324864 0.193502 0.845916 0.029091
C73   C     C_1   0.350679 0.153546 0.651564 0.043579
C74   C     C_1   0.360864 0.134908 0.611060 0.059842
C75   C     C_R   0.944396 0.224303 0.065873 0.546637
C76   C     C_3   0.260493 0.699476 0.234336 -0.114556
C77   C     C_R   0.282514 0.551463 0.068002 0.549104
C78   C     C_3   0.372796 0.758857 0.262429 0.249655
C79   C     C_R   0.272436 0.213148 0.064394 0.547005
C80   C     C_R   0.944504 0.230231 0.933011 0.538953
C81   C     C_R   0.283739 0.558596 0.935000 0.543638
C82   C     C_R   0.273734 0.219178 0.932145 0.538311
C83   C     C_1   0.296138 0.594887 0.114685 0.057760
C84   C     C_1   0.303141 0.618041 0.155822 0.059557
Cr1   Cr    Cr6+3 0.582410 0.169020 0.499790 1.075881
Cr2   Cr    Cr6+3 0.330970 0.913410 0.499920 1.083235
Cr3   Cr    Cr6+3 0.586650 0.917610 0.500320 1.110804
Cr4   Cr    Cr6+3 0.083990 0.164050 0.998170 1.099018
Cr5   Cr    Cr6+3 0.080550 0.415820 0.000690 1.089409
Cr6   Cr    Cr6+3 0.335830 0.419220 0.999920 1.080103
F1    F     F_    0.897569 0.028561 0.301644 -0.505734
F2    F     F_    0.534783 0.743213 0.713888 -0.481449
F3    F     F_    0.381275 0.532186 0.700579 -0.569328
F4    F     F_    0.140021 0.644089 0.703193 -0.603343
F5    F     F_    0.484120 0.876724 0.718057 -0.476041
F6    F     F_    0.027583 0.248745 0.694207 -0.615562
F7    F     F_    0.714917 0.956722 0.710155 -0.445503
F8    F     F_    0.739020 0.968753 0.798804 -0.565885
F9    F     F_    0.625887 0.098819 0.714015 -0.429137
F10   F     F_    0.238554 0.977502 0.803259 -0.652795
F11   F     F_    0.547060 0.260626 0.710755 -0.575721
F12   F     F_    0.919348 0.033792 0.213335 -0.488482
F13   F     F_    0.404699 0.028652 0.713486 -0.510941
F14   F     F_    0.675403 0.957931 0.288160 -0.558942
F15   F     F_    0.047167 0.220021 0.218589 -0.579261
F16   F     F_    0.793090 0.308443 0.202772 -0.474245
F17   F     F_    0.978076 0.369227 0.212920 -0.588251
F18   F     F_    0.537543 0.255449 0.196021 -0.443313
F19   F     F_    0.437819 0.377556 0.209905 -0.582227
F20   F     F_    0.207877 0.968402 0.196867 -0.575504
F21   F     F_    0.131088 0.076876 0.209367 -0.492559
H1    H     H_    0.216207 0.742002 0.218816 0.204928
H2    H     H_    0.358474 0.520738 0.784508 0.172616
H3    H     H_    0.210000 0.474146 0.783231 0.218378
H4    H     H_    0.270778 0.800570 0.717763 0.211002
H5    H     H_    0.246139 0.768675 0.797308 0.176803
H6    H     H_    0.458203 0.832440 0.800832 0.183332
H7    H     H_    0.144121 0.621396 0.787949 0.229249
H8    H     H_    0.751514 0.261714 0.796204 0.095143
H9    H     H_    0.745537 0.265270 0.715451 0.152350
H10   H     H_    0.951080 0.343017 0.700684 0.196616
H11   H     H_    0.031963 0.258530 0.778482 0.247809
H12   H     H_    0.784647 0.294438 0.287439 0.192405
H13   H     H_    0.885779 0.038938 0.706393 0.132693
H14   H     H_    0.667894 0.110492 0.797270 0.234186
H15   H     H_    0.908001 0.049710 0.786263 0.145137
H16   H     H_    0.239311 0.983609 0.717634 0.131721
H17   H     H_    0.160349 0.107088 0.700893 0.098197
H18   H     H_    0.213418 0.444216 0.234774 0.226436
H19   H     H_    0.465624 0.350038 0.703946 0.213533
H20   H     H_    0.518557 0.282087 0.793348 0.153233
H21   H     H_    0.408044 0.074820 0.795636 0.198083
H22   H     H_    0.452699 0.366086 0.783792 0.157977
H23   H     H_    0.932008 0.340709 0.295567 0.133081
H24   H     H_    0.718228 0.985688 0.205564 0.220107
H25   H     H_    0.999400 0.199433 0.300930 0.165454
H26   H     H_    0.636897 0.053669 0.161314 0.337078
H27   H     H_    0.574226 0.234123 0.315107 0.304227
H28   H     H_    0.283466 0.305333 0.334838 0.344268
H29   H     H_    0.280638 0.938939 0.266978 0.358843
H30   H     H_    0.070513 0.980877 0.289496 0.430141
H31   H     H_    0.444564 0.075029 0.160766 0.367233
H32   H     H_    0.460968 0.913786 0.242708 0.381030
H33   H     H_    0.205765 0.474091 0.664273 0.368543
H34   H     H_    0.641877 0.085917 0.278937 0.191206
H35   H     H_    0.582149 0.765653 0.241342 0.399736
H36   H     H_    0.930518 0.398814 0.774563 0.335444
H37   H     H_    0.474122 0.542270 0.265594 0.391255
H38   H     H_    0.225604 0.260504 0.659234 0.343357
H39   H     H_    0.107876 0.029264 0.771794 0.347789
H40   H     H_    0.212200 0.291470 0.813507 0.318948
H41   H     H_    0.125146 0.562074 0.287708 0.174564
H42   H     H_    0.432069 0.344561 0.293056 0.228238
H43   H     H_    0.267831 0.287602 0.216758 0.237500
H44   H     H_    0.453341 0.081368 0.279471 0.150539
H45   H     H_    0.503798 0.729526 0.797802 0.194087
O1    O     O_R   0.697410 0.194200 0.448260 -0.516970
O2    O     O_R   0.358220 0.530810 0.052620 -0.483297
O3    O     O_R   0.327700 0.313010 0.046780 -0.486005
O4    O     O_R   0.476980 0.157590 0.451760 -0.506090
O5    O     O_R   0.175720 0.143820 0.946060 -0.481272
O6    O     O_R   0.988130 0.174220 0.950720 -0.491531
O7    O     O_R   0.966820 0.326980 0.948540 -0.498694
O8    O     O_R   0.184860 0.514240 0.953480 -0.490542
O9    O     O_R   0.358870 0.535710 0.949380 -0.502577
O10   O     O_R   0.328300 0.317550 0.951070 -0.505874
O11   O     O_3   0.166790 0.333030 0.999590 -0.280458
O12   O     O_R   0.341890 0.819480 0.547990 -0.494627
O13   O     O_R   0.305060 0.002060 0.448040 -0.481462
O14   O     O_R   0.341740 0.818420 0.452260 -0.497813
O15   O     O_R   0.497310 0.801990 0.448770 -0.483693
O16   O     O_R   0.680990 0.022320 0.452370 -0.475885
O17   O     O_R   0.697560 0.195350 0.551530 -0.493935
O18   O     O_R   0.477130 0.158650 0.547490 -0.477508
O19   O     O_R   0.305220 0.003210 0.551310 -0.501096
O20   O     O_3   0.646687 0.086176 0.193509 -0.622575
O21   O     O_3   0.553281 0.254404 0.284450 -0.608389
O22   O     O_3   0.260159 0.278977 0.301891 -0.642292
O23   O     O_R   0.497470 0.803140 0.552040 -0.477215
O24   O     O_3   0.227790 0.949850 0.287357 -0.647875
O25   O     O_3   0.139978 0.053851 0.297450 -0.522925
O26   O     O_3   0.430354 0.062468 0.195227 -0.674155
O27   O     O_3   0.433366 0.874547 0.273438 -0.667058
O28   O     O_3   0.194279 0.481116 0.698441 -0.542727
O29   O     O_3   0.528861 0.745933 0.214430 -0.644760
O30   O     O_3   0.987328 0.379585 0.786780 -0.704658
O31   O     O_3   0.429842 0.550191 0.291571 -0.662417
O32   O     O_3   0.251950 0.280845 0.692373 -0.548890
O33   O     O_3   0.124522 0.102442 0.786283 -0.687072
O34   O     O_R   0.681130 0.023390 0.548100 -0.480888
O35   O     O_3   0.239136 0.295251 0.780611 -0.621505
O36   O     O_3   0.500010 0.000010 0.500010 -0.274241
O37   O     O_R   0.175070 0.138920 0.049300 -0.478163
O38   O     O_R   0.987530 0.169680 0.046430 -0.486149
O39   O     O_R   0.966170 0.322080 0.051780 -0.479706
O40   O     O_R   0.184260 0.509700 0.049190 -0.486463

loop_
_geom_bond_atom_site_label_1
_geom_bond_atom_site_label_2
_ccdc_geom_bond_type
C3    F14   S    
C5    H25   S    
H33   O28   S    
C8    C13   S    
C23   C45   S    
C4    O15   A    
Cr6   O11   S    
Cr2   O13   S    
C13   H23   S    
H35   O29   S    
C19   C20   S    
C38   H45   S    
C2    C12   T    
C27   O25   S    
C47   F9    S    
C39   C41   S    
C32   F2    S    
C53   C54   S    
H37   O31   S    
C40   C46   S    
C26   C27   S    
C34   C84   S    
C35   H3    S    
C83   C84   T    
C18   C24   S    
C61   F13   S    
C77   O40   A    
C76   C78   S    
C78   O27   S    
C79   O3    A    
C30   C31   T    
C13   H12   S    
C63   O35   S    
C20   C25   S    
C77   C83   S    
Cr4   O5    S    
Cr5   O39   S    
C1    C31   S    
C56   C78   S    
C23   H18   S    
C9    O20   S    
Cr2   O19   S    
C41   C42   S    
Cr6   O3    S    
C68   H21   S    
Cr5   O11   S    
C52   C60   S    
H29   O24   S    
C38   H6    S    
C61   C66   S    
C48   C51   S    
C47   C51   S    
C49   O30   S    
C63   C69   S    
C18   O21   S    
C68   C69   S    
C45   C67   S    
C70   H22   S    
Cr1   O17   S    
C56   C64   S    
C70   C71   S    
C51   C57   S    
Cr1   O4    S    
C32   C38   S    
C41   H7    S    
C4    C12   S    
C22   C30   S    
C9    C10   S    
C26   F20   S    
Cr5   O8    S    
C77   O2    A    
C47   C53   S    
C23   C34   S    
H40   O35   S    
C71   F11   S    
C28   C74   S    
C59   C60   T    
C42   F4    S    
Cr6   O10   S    
C67   C78   S    
Cr1   O1    S    
C57   F7    S    
C11   F16   S    
C44   C46   T    
C37   C42   S    
C7    C14   T    
H36   O30   S    
C25   C29   S    
C38   C39   S    
C82   O10   A    
C62   C66   S    
C24   O26   S    
C50   C58   T    
Cr4   O38   S    
Cr5   O40   S    
C19   C22   S    
Cr2   O12   S    
C24   C25   S    
C45   C56   S    
H26   O20   S    
C3    C8    S    
C10   C14   S    
C48   H10   S    
C16   C17   S    
C7    C75   S    
C25   C26   S    
C63   O33   S    
C66   C73   S    
C21   C29   T    
C33   C37   S    
C33   F3    S    
Cr1   O36   S    
H32   O27   S    
Cr6   O2    S    
C69   C72   S    
C35   C39   S    
C68   F10   S    
C80   O7    A    
C62   C63   S    
C3    C9    S    
C40   O23   A    
C16   O16   A    
C66   C71   S    
C55   H15   S    
C36   C81   S    
C76   H1    S    
Cr4   O11   S    
Cr3   O15   S    
C21   C79   S    
C33   O28   S    
Cr1   O18   S    
C64   C76   S    
C61   H16   S    
C52   O34   A    
C32   C37   S    
C27   O24   S    
C19   O22   S    
C80   O6    A    
C5    F1    S    
C4    O14   A    
Cr3   O34   S    
C24   F18   S    
C9    H24   S    
C47   H9    S    
H31   O26   S    
C64   H41   S    
C3    H34   S    
C8    C15   S    
C22   C27   S    
C55   C57   S    
Cr6   O9    S    
C11   F17   S    
C19   H42   S    
C81   O8    A    
C51   C59   S    
C41   H5    S    
C49   H11   S    
C73   C74   T    
C62   O32   S    
C54   C58   S    
C15   C17   T    
C54   C55   S    
C48   C49   S    
C48   F6    S    
C16   O1    A    
Cr2   O14   S    
Cr4   O37   S    
C1    O4    A    
C45   O31   S    
C20   H43   S    
C50   C80   S    
C34   C67   S    
C6    C10   S    
C5    C8    S    
C39   C43   S    
C53   H8    S    
C28   O19   A    
C82   O5    A    
C65   C72   T    
Cr2   O36   S    
C79   O37   A    
C53   H14   S    
C37   C44   S    
C18   C22   S    
C23   C64   S    
H28   O22   S    
C2    C56   S    
H39   O33   S    
C62   H17   S    
C11   C13   S    
C61   C68   S    
C28   O18   A    
C65   C82   S    
C5    C6    S    
Cr4   O6    S    
Cr3   O16   S    
C52   O17   A    
C55   F8    S    
C1    O13   A    
C70   H20   S    
C33   C35   S    
C6    F15   S    
C35   H2    S    
H30   O25   S    
C6    F12   S    
C69   C70   S    
C40   O12   A    
C10   C11   S    
Cr3   O23   S    
C20   F19   S    
C75   O38   A    
C67   O29   S    
C42   H4    S    
C32   F5    S    
H38   O32   S    
C81   O9    A    
C71   H19   S    
C36   C43   T    
H27   O21   S    
C26   F21   S    
Cr5   O7    S    
C18   H44   S    
C49   C54   S    
C34   C76   S    
Cr3   O36   S    
C57   H13   S    
C75   O39   A    
