data_mof_unit_11052.cif
_audit_creation_date              2012-10-26T18:32:23-0400
_audit_creation_method            fapswitch 2.2
_symmetry_space_group_name_H-M    P1
_symmetry_Int_Tables_number       1
_space_group_crystal_system       triclinic
_cell_length_a                    12.337808
_cell_length_b                    13.07902
_cell_length_c                    15.865805
_cell_angle_alpha                 77.444862
_cell_angle_beta                  101.398556
_cell_angle_gamma                 116.54909
_cell_volume                      2220.62443186

loop_
_atom_site_label
_atom_site_type_symbol
_atom_type_description
_atom_site_fract_x
_atom_site_fract_y
_atom_site_fract_z
_atom_type_partial_charge
C1    C     C_R   0.855024 0.286085 0.506793 0.529838
C2    C     C_R   0.227554 0.838713 0.470294 -0.000887
C3    C     C_R   0.815464 0.080428 0.555379 -0.100814
C4    C     C_R   0.999854 0.499742 0.659574 0.550999
C5    C     C_R   0.736352 0.963997 0.567941 0.236127
C6    C     C_R   0.612827 0.928435 0.538214 -0.065339
C7    C     C_R   0.566528 0.009027 0.491643 -0.002440
C8    C     C_R   0.650787 0.124289 0.469054 -0.017343
C9    C     C_R   0.439874 0.979370 0.466714 -0.022921
C10   C     C_R   0.400442 0.061934 0.413070 0.057392
C11   C     C_R   0.489122 0.167284 0.374861 0.152070
C12   C     C_3   0.079594 0.436610 0.072854 0.072879
C13   C     C_R   0.612185 0.197038 0.404306 -0.075309
C14   C     C_R   0.351552 0.870295 0.495722 -0.166292
C15   C     C_R   0.187223 0.923301 0.425185 0.130318
C16   C     C_R   0.145085 0.714603 0.487240 0.565637
C17   C     C_R   0.773404 0.162104 0.508180 -0.046043
C18   C     C_R   0.341629 0.318094 0.632954 0.196768
C19   C     C_R   0.759479 0.646205 0.383214 0.065101
C20   C     C_R   0.663660 0.679341 0.357990 0.198222
C21   C     C_R   0.560407 0.624317 0.402175 -0.106729
C22   C     C_R   0.551768 0.534968 0.472414 -0.033399
C23   C     C_3   0.004304 0.502773 0.083410 -0.006723
C24   C     C_R   0.653047 0.504897 0.496062 0.172046
C25   C     C_R   0.446742 0.473895 0.519622 -0.053231
C26   C     C_R   0.444557 0.382409 0.587604 0.021865
C27   C     C_R   0.545337 0.356087 0.609494 -0.134851
C28   C     C_R   0.000175 0.500150 0.340463 0.544431
C29   C     C_R   0.647057 0.416736 0.565784 -0.082717
C30   C     C_R   0.342721 0.498470 0.501763 -0.008459
C31   C     C_R   0.244910 0.351026 0.615218 0.296866
C32   C     C_3   0.092420 0.445312 0.974240 0.373773
C33   C     C_3   0.874756 0.434739 0.943055 -0.222190
C34   C     C_3   0.057063 0.629094 0.035339 -0.133735
C35   C     C_3   0.870795 0.437825 0.039925 -0.006925
C36   C     C_1   0.001003 0.500617 0.251046 -0.034686
C37   C     C_3   0.007903 0.504527 0.917295 0.063909
C38   C     C_3   0.282331 0.571489 0.148014 -0.231359
C39   C     C_3   0.002441 0.908022 0.470909 -0.220777
C40   C     C_3   0.493829 0.355703 0.302772 -0.284915
C41   C     C_3   0.249062 0.194250 0.435804 -0.283025
C42   C     C_3   0.129186 0.267741 0.988105 -0.256619
C43   C     C_3   0.165849 0.317247 0.751901 -0.227695
C44   C     C_3   0.661310 0.418153 0.034101 -0.275299
C45   C     C_3   0.052448 0.633383 0.935388 0.344976
C46   C     C_3   0.222076 0.832622 0.913336 -0.234026
C47   C     C_1   0.002484 0.501382 0.175677 -0.075329
C48   C     C_1   0.003550 0.502166 0.824663 0.022669
C49   C     C_1   0.000938 0.500779 0.749050 0.008919
C50   C     C_R   0.273976 0.036724 0.399682 0.146883
Cl1   Cl    Cl    0.248355 0.528042 0.949160 -0.613095
Cl2   Cl    Cl    0.791139 0.862341 0.625106 -0.572059
Cl3   Cl    Cl    0.329671 0.193206 0.709168 -0.686234
Cl4   Cl    Cl    0.673141 0.790366 0.270707 -0.640707
Cl5   Cl    Cl    0.945681 0.692172 0.877437 -0.567236
Cu1   Cu    Cu3+1 0.098280 0.475420 0.519630 0.956860
Cu2   Cu    Cu3+1 0.901720 0.524580 0.480370 0.943731
H1    H     H_    0.019311 0.344083 0.093602 0.093471
H2    H     H_    0.488612 0.652755 0.379882 0.130405
H3    H     H_    0.719280 0.390897 0.589450 0.182504
H4    H     H_    0.812520 0.469227 0.899633 0.218473
H5    H     H_    0.834116 0.343944 0.931144 0.073707
H6    H     H_    0.832839 0.347186 0.074261 0.129858
H7    H     H_    0.150685 0.677489 0.064586 0.107774
H8    H     H_    0.183328 0.396495 0.186773 0.236757
H9    H     H_    0.248651 0.605715 0.190263 0.124444
H10   H     H_    0.306943 0.632232 0.087192 0.225231
H11   H     H_    0.367334 0.565961 0.183003 0.160614
H12   H     H_    0.005713 0.675180 0.047075 0.163292
H13   H     H_    0.030643 0.919039 0.342338 0.253260
H14   H     H_    0.987512 0.987975 0.450792 0.141404
H15   H     H_    0.058230 0.911945 0.535455 0.184601
H16   H     H_    0.912515 0.833384 0.477685 0.207911
H17   H     H_    0.377579 0.195146 0.261052 0.276893
H18   H     H_    0.467442 0.398042 0.238643 0.152185
H19   H     H_    0.593933 0.402073 0.318427 0.159340
H20   H     H_    0.447254 0.363811 0.352220 0.155110
H21   H     H_    0.153089 0.106605 0.331140 0.250839
H22   H     H_    0.185843 0.140534 0.485299 0.162545
H23   H     H_    0.376939 0.806566 0.538383 0.140384
H24   H     H_    0.228434 0.269491 0.405672 0.138831
H25   H     H_    0.343870 0.226577 0.468563 0.174608
H26   H     H_    0.962605 0.273936 0.958221 0.223891
H27   H     H_    0.083139 0.179219 0.970264 0.134307
H28   H     H_    0.145482 0.260276 0.060065 0.155159
H29   H     H_    0.217401 0.311344 0.960348 0.209231
H30   H     H_    0.100768 0.204269 0.661532 0.263736
H31   H     H_    0.215248 0.269521 0.795798 0.181555
H32   H     H_    0.077322 0.289990 0.776494 0.159033
H33   H     H_    0.220236 0.411246 0.754195 0.194757
H34   H     H_    0.909483 0.106876 0.583561 0.151559
H35   H     H_    0.813839 0.534731 0.098122 0.270130
H36   H     H_    0.609802 0.470516 0.030383 0.184603
H37   H     H_    0.635384 0.347486 0.090025 0.137549
H38   H     H_    0.635455 0.380315 0.972977 0.166601
H39   H     H_    0.182605 0.700165 0.845997 0.292260
H40   H     H_    0.321215 0.872891 0.907150 0.166261
H41   H     H_    0.210327 0.846636 0.976734 0.141015
H42   H     H_    0.177838 0.877051 0.860259 0.214379
H43   H     H_    0.556864 0.836989 0.550748 0.142817
H44   H     H_    0.678796 0.274649 0.371674 0.152106
H45   H     H_    0.548087 0.288672 0.662064 0.184921
H46   H     H_    0.336427 0.565459 0.450631 0.129576
H47   H     H_    0.839290 0.689091 0.348714 0.167875
N1    N     N_R   0.246300 0.438200 0.549400 -0.237839
N2    N     N_2   0.172100 0.710642 0.905988 -0.454755
N3    N     N_R   0.754300 0.561180 0.451130 -0.271077
N4    N     N_2   0.193435 0.457013 0.131423 -0.485853
N5    N     N_2   0.060006 0.894254 0.405550 -0.518195
N6    N     N_2   0.458575 0.235178 0.298653 -0.515470
N7    N     N_2   0.235637 0.127733 0.369441 -0.531281
N8    N     N_2   0.052693 0.328783 0.952737 -0.512894
N9    N     N_2   0.143316 0.291836 0.663859 -0.448958
N10   N     N_2   0.790961 0.491033 0.045887 -0.477340
O1    O     O_R   0.972520 0.318130 0.524690 -0.480057
O2    O     O_R   0.806530 0.359650 0.491530 -0.533791
O3    O     O_R   0.083030 0.479240 0.637150 -0.470473
O4    O     O_R   0.917040 0.520750 0.603990 -0.497391
O5    O     O_R   0.193470 0.640350 0.508470 -0.513619
O6    O     O_R   0.027480 0.681870 0.475310 -0.464469
O7    O     O_R   0.082960 0.479250 0.396010 -0.505307
O8    O     O_R   0.916970 0.520760 0.362850 -0.511865

loop_
_geom_bond_atom_site_label_1
_geom_bond_atom_site_label_2
_ccdc_geom_bond_type
C46   H42   S    
C8    C13   A    
C27   C29   A    
Cu1   O3    S    
C15   N5    S    
C19   C20   A    
C18   C26   A    
C7    C8    A    
C12   C23   S    
C26   C27   A    
C43   H32   S    
C35   N10   S    
C43   H31   S    
C21   H2    S    
C16   O6    A    
C5    C6    A    
C28   O8    A    
Cu1   Cu2   S    
C36   C47   T    
C3    H34   S    
C15   C50   A    
C42   N8    S    
C24   C29   A    
C44   H36   S    
C18   Cl3   S    
Cu2   O8    S    
C38   H9    S    
C33   H5    S    
C22   C25   A    
C30   H46   S    
C39   H15   S    
C5    Cl2   S    
H21   N7    S    
C42   H29   S    
C1    O2    A    
C14   H23   S    
C2    C16   S    
C9    C10   A    
H8    N4    S    
C12   H1    S    
C46   H41   S    
C44   N10   S    
C21   C22   A    
C12   C32   S    
C11   N6    S    
C31   N1    A    
C4    O4    A    
Cu2   O2    S    
C43   H33   S    
C23   C47   S    
C42   H27   S    
C20   Cl4   S    
C16   O5    A    
C42   H28   S    
C28   O7    A    
C40   N6    S    
C25   C26   A    
C33   C37   S    
C40   H19   S    
C6    H43   S    
C9    C14   A    
C32   Cl1   S    
C41   H22   S    
H13   N5    S    
C19   H47   S    
C29   H3    S    
C23   C34   S    
C41   H24   S    
C34   H7    S    
C24   N3    A    
C32   C37   S    
C38   H10   S    
C37   C48   S    
C2    C15   A    
C34   H12   S    
C45   Cl5   S    
C34   C45   S    
Cu2   O6    S    
C48   C49   T    
Cu2   N3    S    
C46   H40   S    
C38   H11   S    
C23   C35   S    
C30   N1    A    
Cu1   O5    S    
C22   C24   A    
C4    O3    A    
C37   C45   S    
C10   C50   A    
C45   N2    S    
C12   N4    S    
C25   C30   A    
C7    C9    A    
H39   N2    S    
C32   N8    S    
H26   N8    S    
C3    C5    A    
H17   N6    S    
C6    C7    A    
C27   H45   S    
C1    C17   S    
C8    C17   A    
C40   H18   S    
C4    C49   S    
Cu1   O7    S    
C44   H38   S    
C43   N9    S    
C11   C13   A    
H35   N10   S    
C41   H25   S    
C46   N2    S    
C50   N7    S    
C33   C35   S    
Cu1   O1    S    
C3    C17   A    
C39   H16   S    
C38   N4    S    
C2    C14   A    
Cu1   N1    S    
H30   N9    S    
C44   H37   S    
C10   C11   A    
C39   N5    S    
C20   C21   A    
C28   C36   S    
C33   H4    S    
C41   N7    S    
C39   H14   S    
C40   H20   S    
C35   H6    S    
C18   C31   A    
C1    O1    A    
C13   H44   S    
C31   N9    S    
Cu2   O4    S    
C19   N3    A    
