data_mof_unit_23242.cif
_audit_creation_date              2012-12-10T18:20:37-0500
_audit_creation_method            fapswitch 2.2
_symmetry_space_group_name_H-M    P1
_symmetry_Int_Tables_number       1
_space_group_crystal_system       triclinic
_cell_length_a                    15.853207
_cell_length_b                    10.617242
_cell_length_c                    9.439868
_cell_angle_alpha                 90.979105
_cell_angle_beta                  90.301626
_cell_angle_gamma                 89.983698
_cell_volume                      1588.63939355

loop_
_atom_site_label
_atom_site_type_symbol
_atom_type_description
_atom_site_fract_x
_atom_site_fract_y
_atom_site_fract_z
_atom_type_partial_charge
C1    C     C_R   0.500149 0.259590 0.498958 0.843813
C2    C     C_R   0.499850 0.740410 0.501041 0.843809
C3    C     C_3   0.569408 0.957277 0.440233 0.573695
C4    C     C_3   0.430587 0.042723 0.559763 0.573703
C5    C     C_3   0.499360 0.877194 0.502681 -0.097046
C6    C     C_3   0.500636 0.122806 0.497315 -0.097046
C7    C     C_3   0.496843 0.962570 0.636659 -0.265666
C8    C     C_3   0.503152 0.037431 0.363338 -0.265644
C9    C     C_3   0.546301 0.591460 0.053299 -0.196612
C10   C     C_3   0.453699 0.408538 0.946701 -0.196621
C11   C     C_3   0.470609 0.603087 0.953122 0.669304
C12   C     C_3   0.529392 0.396913 0.046879 0.669301
C13   C     C_3   0.576232 0.486581 0.949805 -0.197357
C14   C     C_3   0.423768 0.513419 0.050196 -0.197357
C15   C     C_R   0.339983 0.499937 0.499683 0.820078
C16   C     C_R   0.660017 0.500063 0.500317 0.820074
C17   C     C_3   0.972263 0.386091 0.526987 0.599129
C18   C     C_3   0.027736 0.613905 0.473017 0.599127
C19   C     C_3   0.027304 0.418057 0.398245 -0.301077
C20   C     C_3   0.972695 0.581938 0.601760 -0.301223
C21   C     C_1   0.250246 0.499540 0.499122 -0.156418
C22   C     C_1   0.749754 0.500460 0.500877 -0.156422
C23   C     C_3   0.028588 0.464330 0.628998 -0.296398
C24   C     C_3   0.971413 0.535666 0.371008 -0.296237
C25   C     C_3   0.082953 0.498518 0.499729 0.051574
C26   C     C_3   0.917047 0.501479 0.500273 0.051578
C27   C     C_1   0.174660 0.499095 0.499176 0.010394
C28   C     C_1   0.825340 0.500903 0.500824 0.010398
C29   C     C_3   0.568263 0.043612 0.573032 -0.328663
C30   C     C_3   0.431733 0.956389 0.426963 -0.328637
Cu1   Cu    Cu3+1 0.500020 0.499990 0.643150 0.992538
Cu2   Cu    Cu3+1 0.499980 0.500010 0.356850 0.992540
H1    H     H_    0.050885 0.350485 0.316621 0.154054
H2    H     H_    0.949107 0.649493 0.683396 0.154011
H3    H     H_    0.946802 0.566097 0.266737 0.156067
H4    H     H_    0.053207 0.433929 0.733275 0.155998
H5    H     H_    0.623737 0.082490 0.631171 0.151470
H6    H     H_    0.376261 0.917511 0.368822 0.151472
H7    H     H_    0.493339 0.930167 0.747529 0.188131
H8    H     H_    0.506657 0.069834 0.252467 0.188135
H9    H     H_    0.584872 0.667634 0.103035 0.159828
H10   H     H_    0.415130 0.332362 0.896966 0.159826
H11   H     H_    0.639931 0.473707 0.903539 0.150233
H12   H     H_    0.360069 0.526292 0.096461 0.150235
N1    N     N_3   0.500060 0.499970 0.858290 -0.201504
N2    N     N_3   0.499940 0.500030 0.141710 -0.201503
O1    O     O_R   0.500040 0.316850 0.620870 -0.581583
O2    O     O_R   0.499960 0.683150 0.379130 -0.581582
O3    O     O_R   0.500000 0.316860 0.379090 -0.541059
O4    O     O_R   0.500000 0.683140 0.620910 -0.541058
O5    O     O_R   0.379090 0.499980 0.620870 -0.552443
O6    O     O_R   0.620910 0.500020 0.379130 -0.552439
O7    O     O_R   0.379060 0.499990 0.379090 -0.592063
O8    O     O_R   0.620940 0.500010 0.620910 -0.592063
O9    O     O_3   0.936389 0.267639 0.555358 -0.577879
C31   C     C_3   0.001216 0.178668 0.574212 -0.338042
H13   H     H_    0.042807 0.205056 0.665197 0.163885
H14   H     H_    0.038934 0.165699 0.476060 0.158365
H15   H     H_    0.972078 0.086573 0.598306 0.185565
O10   O     O_3   0.063600 0.732341 0.444533 -0.577867
C32   C     C_3   0.998775 0.821455 0.426478 -0.338010
H16   H     H_    0.961688 0.834766 0.525256 0.158331
H17   H     H_    0.956589 0.794996 0.336291 0.163807
H18   H     H_    0.027877 0.913396 0.401596 0.185707
O11   O     O_3   0.640911 0.901596 0.376591 -0.589650
C33   C     C_3   0.699788 0.996193 0.344873 -0.327054
H19   H     H_    0.727859 0.037212 0.443446 0.175146
H20   H     H_    0.671359 0.071589 0.279566 0.177945
H21   H     H_    0.751766 0.953002 0.282612 0.187227
O12   O     O_3   0.359079 0.098409 0.623385 -0.589647
C34   C     C_3   0.300223 0.003807 0.655183 -0.327019
H22   H     H_    0.328656 0.928526 0.720646 0.177933
H23   H     H_    0.272203 0.962635 0.556648 0.175112
H24   H     H_    0.248202 0.047033 0.717314 0.187211
O13   O     O_3   0.436799 0.713711 0.894658 -0.567366
C35   C     C_3   0.423679 0.803988 0.003599 -0.393352
H25   H     H_    0.484720 0.837864 0.048509 0.172999
H26   H     H_    0.382745 0.767027 0.088804 0.173319
H27   H     H_    0.391092 0.886553 0.958233 0.186461
O14   O     O_3   0.563205 0.286294 0.105351 -0.567363
C36   C     C_3   0.576324 0.196008 0.996419 -0.393360
H28   H     H_    0.617243 0.232971 0.911194 0.173311
H29   H     H_    0.515282 0.162109 0.951537 0.172990
H30   H     H_    0.608929 0.113460 0.041791 0.186503

loop_
_geom_bond_atom_site_label_1
_geom_bond_atom_site_label_2
_ccdc_geom_bond_type
C33   H20   S    
O9    C31   S    
C7    C29   S    
C10   H10   S    
C35   H27   S    
C4    O12   S    
C36   H28   S    
C14   N2    S    
C17   C23   S    
C18   C24   S    
C17   C26   S    
C15   O7    A    
C24   C26   S    
C11   C14   S    
C33   H21   S    
C31   H13   S    
C30   H6    S    
C32   H17   S    
C3    C29   S    
C9    C13   S    
Cu2   O6    S    
C2    O4    A    
O12   C34   S    
C15   O5    A    
C17   O9    S    
C20   H2    S    
C33   H19   S    
C21   C27   T    
C9    N2    S    
C22   C28   T    
Cu2   O2    S    
C3    O11   S    
C18   C25   S    
Cu2   N2    S    
C4    C7    S    
C36   H29   S    
C24   H3    S    
C35   H26   S    
C35   H25   S    
C12   N2    S    
C3    C8    S    
C19   H1    S    
C5    C7    S    
C1    O1    A    
C6    C8    S    
C2    O2    A    
C1    C6    S    
O10   C32   S    
C32   H18   S    
O13   C35   S    
Cu1   Cu2   S    
C20   C23   S    
C10   N1    S    
C9    C11   S    
C10   C12   S    
C18   O10   S    
C23   H4    S    
C10   C14   S    
C11   N1    S    
C4    C6    S    
Cu1   O4    S    
C29   H5    S    
Cu2   O7    S    
C13   H11   S    
C36   H30   S    
C14   H12   S    
C5    C30   S    
C16   C22   S    
C26   C28   S    
C16   O6    A    
Cu1   O5    S    
O14   C36   S    
C3    C5    S    
C34   H24   S    
C25   C27   S    
C9    H9    S    
C31   H15   S    
C8    C30   S    
C19   C24   S    
C34   H22   S    
C11   O13   S    
C13   N1    S    
C20   C26   S    
C12   O14   S    
C17   C19   S    
C31   H14   S    
C18   C20   S    
C23   C25   S    
Cu1   O8    S    
C32   H16   S    
C19   C25   S    
C16   O8    A    
Cu2   O3    S    
C2    C5    S    
C15   C21   S    
C6    C29   S    
C12   C13   S    
O11   C33   S    
Cu1   N1    S    
C34   H23   S    
C7    H7    S    
Cu1   O1    S    
C8    H8    S    
C1    O3    A    
C4    C30   S    
