data_mof_unit_54295.cif
_audit_creation_date              2012-12-10T18:04:29-0500
_audit_creation_method            fapswitch 2.2
_symmetry_space_group_name_H-M    P1
_symmetry_Int_Tables_number       1
_space_group_crystal_system       triclinic
_cell_length_a                    19.94982
_cell_length_b                    17.44784
_cell_length_c                    12.656916
_cell_angle_alpha                 89.997574
_cell_angle_beta                  98.898359
_cell_angle_gamma                 89.994387
_cell_volume                      4352.61041287

loop_
_atom_site_label
_atom_site_type_symbol
_atom_type_description
_atom_site_fract_x
_atom_site_fract_y
_atom_site_fract_z
_atom_type_partial_charge
C1    C     C_R   0.412432 0.104290 0.444108 0.904348
C2    C     C_R   0.412437 0.895711 0.444113 0.904335
C3    C     C_R   0.912431 0.604290 0.444108 0.904347
C4    C     C_R   0.912437 0.395711 0.444113 0.904335
C5    C     C_R   0.737467 0.227506 0.532536 0.057168
C6    C     C_R   0.737495 0.772533 0.532561 0.057121
C7    C     C_R   0.237466 0.727506 0.532536 0.057168
C8    C     C_R   0.237494 0.272533 0.532561 0.057121
C9    C     C_R   0.760325 0.247355 0.640415 -0.015164
C10   C     C_R   0.760394 0.752737 0.640449 -0.015171
C11   C     C_R   0.260325 0.747355 0.640415 -0.015164
C12   C     C_R   0.260394 0.252737 0.640449 -0.015171
C13   C     C_R   0.327617 0.769962 0.670696 -0.191389
C14   C     C_R   0.327703 0.230159 0.670706 -0.191344
C15   C     C_R   0.827617 0.269961 0.670696 -0.191389
C16   C     C_R   0.827703 0.730159 0.670706 -0.191344
C17   C     C_R   0.367568 0.783643 0.592916 0.271386
C18   C     C_R   0.367624 0.216417 0.592902 0.271384
C19   C     C_R   0.867568 0.283642 0.592916 0.271386
C20   C     C_R   0.867624 0.716417 0.592902 0.271384
C21   C     C_R   0.676630 0.187996 0.508744 -0.248898
C22   C     C_R   0.676598 0.811934 0.508751 -0.248918
C23   C     C_R   0.176630 0.687996 0.508744 -0.248898
C24   C     C_R   0.176598 0.311934 0.508751 -0.248918
C25   C     C_R   0.658060 0.194948 0.693712 0.174395
C26   C     C_R   0.658108 0.805096 0.693755 0.174300
C27   C     C_R   0.158060 0.694948 0.693712 0.174396
C28   C     C_R   0.158108 0.305096 0.693755 0.174300
C29   C     C_R   0.367105 0.830696 0.410055 -0.134905
C30   C     C_R   0.367106 0.169328 0.410052 -0.134944
C31   C     C_R   0.867105 0.330695 0.410055 -0.134905
C32   C     C_R   0.867106 0.669328 0.410052 -0.134944
C33   C     C_R   0.640969 0.000044 0.132602 0.093626
C34   C     C_R   0.140969 0.500044 0.132602 0.093625
C35   C     C_R   0.380290 0.000017 0.763520 0.036513
C36   C     C_R   0.880290 0.500018 0.763520 0.036513
C37   C     C_R   0.355543 0.000001 0.860174 -0.160454
C38   C     C_R   0.855543 0.500001 0.860174 -0.160454
C39   C     C_R   0.589114 0.896652 0.556667 0.916549
C40   C     C_R   0.589119 0.103337 0.556668 0.916622
C41   C     C_R   0.089114 0.396652 0.556667 0.916550
C42   C     C_R   0.089119 0.603337 0.556668 0.916623
C43   C     C_R   0.400946 0.999985 0.955509 -0.156594
C44   C     C_R   0.900946 0.499985 0.955509 -0.156594
C45   C     C_R   0.471780 0.999979 0.954312 0.025841
C46   C     C_R   0.971781 0.499979 0.954312 0.025841
C47   C     C_R   0.494063 0.999986 0.853656 0.252395
C48   C     C_R   0.994063 0.499986 0.853656 0.252395
C49   C     C_R   0.521216 0.999981 0.048232 -0.025534
C50   C     C_R   0.021216 0.499981 0.048232 -0.025535
C51   C     C_R   0.591748 0.000008 0.039877 0.121146
C52   C     C_R   0.091748 0.500008 0.039877 0.121146
C53   C     C_R   0.611514 0.000004 0.939304 -0.175364
C54   C     C_R   0.111514 0.500004 0.939304 -0.175363
C55   C     C_R   0.563349 0.999992 0.848251 -0.148841
C56   C     C_R   0.063349 0.499992 0.848251 -0.148841
C57   C     C_R   0.503533 0.999967 0.150932 -0.038162
C58   C     C_R   0.003533 0.499967 0.150932 -0.038162
C59   C     C_R   0.619374 0.000041 0.231322 -0.041899
C60   C     C_R   0.119374 0.500040 0.231322 -0.041898
C61   C     C_R   0.716983 0.240032 0.716628 0.257256
C62   C     C_R   0.717068 0.760063 0.716685 0.257241
C63   C     C_R   0.216983 0.740032 0.716628 0.257256
C64   C     C_R   0.217068 0.260063 0.716685 0.257241
C65   C     C_R   0.640903 0.163189 0.589300 -0.163661
C66   C     C_R   0.640902 0.836794 0.589313 -0.163647
C67   C     C_R   0.140903 0.663189 0.589300 -0.163661
C68   C     C_R   0.140902 0.336794 0.589313 -0.163647
C69   C     C_R   0.347766 0.814878 0.300923 -0.214757
C70   C     C_R   0.347777 0.185193 0.300923 -0.214712
C71   C     C_R   0.847766 0.314878 0.300923 -0.214757
C72   C     C_R   0.847777 0.685193 0.300923 -0.214712
C73   C     C_R   0.296025 0.762546 0.268554 0.249857
C74   C     C_R   0.296086 0.237611 0.268587 0.249933
C75   C     C_R   0.796025 0.262546 0.268554 0.249857
C76   C     C_R   0.796086 0.737611 0.268587 0.249933
C77   C     C_R   0.258246 0.732598 0.342558 -0.192738
C78   C     C_R   0.258320 0.267574 0.342610 -0.192791
C79   C     C_R   0.758246 0.232598 0.342558 -0.192738
C80   C     C_R   0.758320 0.767575 0.342610 -0.192791
C81   C     C_R   0.276527 0.748842 0.452721 0.046766
C82   C     C_R   0.276562 0.251227 0.452748 0.046760
C83   C     C_R   0.776527 0.248842 0.452721 0.046766
C84   C     C_R   0.776561 0.751227 0.452748 0.046759
C85   C     C_R   0.337612 0.788455 0.485453 0.013002
C86   C     C_R   0.337636 0.211580 0.485461 0.013004
C87   C     C_R   0.837613 0.288455 0.485453 0.013001
C88   C     C_R   0.837636 0.711580 0.485461 0.013003
H1    H     H_    0.664337 0.000015 0.929214 0.199559
H2    H     H_    0.164337 0.500015 0.929214 0.199559
H3    H     H_    0.451832 0.999934 0.165638 0.131188
H4    H     H_    0.951832 0.499934 0.165638 0.131189
H5    H     H_    0.345365 0.000051 0.689099 0.151445
H6    H     H_    0.845365 0.500051 0.689099 0.151445
H7    H     H_    0.379065 0.999998 0.028157 0.151416
H8    H     H_    0.879065 0.499998 0.028157 0.151416
H9    H     H_    0.301387 0.000015 0.861265 0.203748
H10   H     H_    0.801387 0.500015 0.861265 0.203748
H11   H     H_    0.582178 0.999993 0.773975 0.211247
H12   H     H_    0.082178 0.499993 0.773975 0.211247
H13   H     H_    0.350716 0.771054 0.753936 0.217358
H14   H     H_    0.350832 0.229117 0.753934 0.217384
H15   H     H_    0.850716 0.271054 0.753936 0.217358
H16   H     H_    0.850833 0.729116 0.753934 0.217384
H17   H     H_    0.657784 0.172854 0.427376 0.183075
H18   H     H_    0.657658 0.826907 0.427364 0.183090
H19   H     H_    0.157784 0.672855 0.427376 0.183075
H20   H     H_    0.157657 0.326906 0.427364 0.183090
H21   H     H_    0.372170 0.843225 0.240926 0.180859
H22   H     H_    0.372173 0.156846 0.240912 0.180872
H23   H     H_    0.872170 0.343225 0.240926 0.180859
H24   H     H_    0.872174 0.656847 0.240912 0.180872
H25   H     H_    0.716391 0.196035 0.311242 0.153915
H26   H     H_    0.716540 0.804281 0.311367 0.153916
H27   H     H_    0.216390 0.696036 0.311242 0.153915
H28   H     H_    0.216540 0.304281 0.311367 0.153916
H29   H     H_    0.655832 0.000072 0.304119 0.157544
H30   H     H_    0.155832 0.500072 0.304119 0.157544
N1    N     N_R   0.552340 0.000000 0.237260 -0.121705
N2    N     N_R   0.052340 0.500000 0.237260 -0.121705
N3    N     N_R   0.448170 0.000000 0.762060 -0.127153
N4    N     N_R   0.948170 0.500000 0.762060 -0.127153
O1    O     O_R   0.448200 0.076800 0.373930 -0.617514
O2    O     O_R   0.448200 0.923200 0.373930 -0.617583
O3    O     O_R   0.948200 0.576800 0.373930 -0.617514
O4    O     O_R   0.948200 0.423200 0.373930 -0.617583
O5    O     O_R   0.414750 0.076790 0.542400 -0.598738
O6    O     O_R   0.414750 0.923210 0.542400 -0.598714
O7    O     O_R   0.914750 0.576790 0.542400 -0.598738
O8    O     O_R   0.914750 0.423210 0.542400 -0.598714
O9    O     O_R   0.585240 0.923200 0.457600 -0.622462
O10   O     O_R   0.585240 0.076800 0.457600 -0.622516
O11   O     O_R   0.085240 0.423200 0.457600 -0.622462
O12   O     O_R   0.085240 0.576800 0.457600 -0.622516
O13   O     O_R   0.551780 0.923190 0.626070 -0.598357
O14   O     O_R   0.551780 0.076810 0.626070 -0.598355
O15   O     O_R   0.051780 0.423190 0.626070 -0.598357
O16   O     O_R   0.051780 0.576810 0.626070 -0.598355
Zn1   Zn    Zn3+2 0.522330 1.000000 0.387520 0.962268
Zn2   Zn    Zn3+2 0.022330 0.500000 0.387520 0.962268
Zn3   Zn    Zn3+2 0.477660 0.000000 0.612480 1.001469
Zn4   Zn    Zn3+2 0.977660 0.500000 0.612480 1.001469
I1    I     I_    0.599988 0.181442 0.820206 -0.178874
I2    I     I_    0.600021 0.818558 0.820233 -0.178862
I3    I     I_    0.099988 0.681442 0.820206 -0.178875
I4    I     I_    0.100021 0.318558 0.820233 -0.178862
I5    I     I_    0.747541 0.000126 0.132769 -0.268169
I6    I     I_    0.247541 0.500126 0.132769 -0.268168
Br1   Br    Br    0.734862 0.302110 0.843891 -0.427138
Br2   Br    Br    0.735035 0.698072 0.844027 -0.427218
Br3   Br    Br    0.234862 0.802110 0.843891 -0.427138
Br4   Br    Br    0.235035 0.198072 0.844027 -0.427218
I7    I     I_    0.272840 0.729785 0.107887 -0.196348
I8    I     I_    0.273000 0.270537 0.107965 -0.196331
I9    I     I_    0.772841 0.229785 0.107887 -0.196348
I10   I     I_    0.773001 0.770537 0.107965 -0.196331
Br5   Br    Br    0.462869 0.768681 0.629384 -0.442667
Br6   Br    Br    0.462926 0.231362 0.629256 -0.442710
Br7   Br    Br    0.962870 0.268681 0.629384 -0.442667
Br8   Br    Br    0.962926 0.731362 0.629256 -0.442710

loop_
_geom_bond_atom_site_label_1
_geom_bond_atom_site_label_2
_ccdc_geom_bond_type
C83   C87   A    
O15   Zn4   S    
C72   H24   S    
C42   O16   A    
C14   H14   S    
C14   C18   A    
O2    Zn1   S    
C62   Br2   S    
C72   C76   A    
C37   H9    S    
C32   C72   A    
C25   I1    S    
O10   Zn1   S    
C15   C19   A    
C40   O14   A    
O4    Zn2   S    
C18   C86   A    
C64   Br4   S    
C2    C29   S    
C9    C61   A    
C28   C68   A    
C54   H2    S    
C19   C87   A    
O12   Zn2   S    
C12   C64   A    
C47   N3    A    
C6    C22   A    
O1    Zn1   S    
C49   C57   A    
C74   I8    S    
O5    Zn3   S    
C23   C67   A    
C73   C77   A    
C22   C66   A    
C34   C52   A    
C70   H22   S    
C6    C84   A    
C69   H21   S    
C16   H16   S    
C44   C46   A    
C49   C51   A    
C71   H23   S    
C70   C74   A    
C50   C52   A    
C60   H30   S    
N2    Zn2   S    
C45   C49   A    
C8    C12   A    
C30   C86   A    
C33   I5    S    
O6    Zn3   S    
C29   C85   A    
C38   H10   S    
C57   N1    A    
C21   C65   A    
C31   C71   A    
C40   O10   A    
C59   H29   S    
C34   C60   A    
C55   H11   S    
C10   C62   A    
C34   I6    S    
C26   I2    S    
C41   O11   A    
C27   I3    S    
C30   C70   A    
C52   C54   A    
C38   C44   A    
C7    C11   A    
C41   C68   S    
C29   C69   A    
C45   C47   A    
O3    Zn2   S    
C46   C48   A    
C71   C75   A    
C31   C87   A    
C80   C84   A    
C26   C66   A    
N3    Zn3   S    
C35   N3    A    
C25   C65   A    
O16   Zn4   S    
C39   O13   A    
O7    Zn4   S    
C22   H18   S    
C76   I10   S    
C51   C53   A    
C84   C88   A    
C37   C43   A    
C36   N4    A    
C1    O1    A    
C5    C83   A    
C5    C9    A    
O14   Zn3   S    
C18   Br6   S    
C36   H6    S    
C78   C82   A    
C35   H5    S    
C43   H7    S    
C77   C81   A    
C16   C20   A    
C23   H19   S    
C58   N2    A    
C50   C58   A    
C27   C67   A    
C25   C61   A    
C69   C73   A    
C43   C45   A    
C63   Br3   S    
C27   C63   A    
C24   H20   S    
C28   C64   A    
C7    C81   A    
C12   C14   A    
C40   C65   S    
C79   H25   S    
C53   H1    S    
C42   C67   S    
C39   C66   S    
C17   C85   A    
C76   C80   A    
C56   H12   S    
C53   C55   A    
C13   H13   S    
C8    C82   A    
C17   Br5   S    
C47   C55   A    
C48   C56   A    
C59   N1    A    
C44   H8    S    
C57   H3    S    
C35   C37   A    
C3    O7    A    
C41   O15   A    
C78   H28   S    
C1    O5    A    
C80   H26   S    
C6    C10   A    
C4    O8    A    
C3    O3    A    
C54   C56   A    
C2    O2    A    
C33   C51   A    
C61   Br1   S    
C46   C50   A    
C28   I4    S    
C4    O4    A    
C42   O12   A    
N1    Zn1   S    
C36   C38   A    
C9    C15   A    
C19   Br7   S    
C82   C86   A    
C48   N4    A    
C11   C13   A    
C39   O9    A    
C7    C23   A    
C20   C88   A    
C74   C78   A    
C1    C30   S    
C8    C24   A    
C60   N2    A    
C26   C62   A    
C3    C32   S    
O8    Zn4   S    
C21   H17   S    
C4    C31   S    
O9    Zn1   S    
C24   C68   A    
C13   C17   A    
C79   C83   A    
C75   I9    S    
O13   Zn3   S    
C5    C21   A    
O11   Zn2   S    
C33   C59   A    
C20   Br8   S    
C73   I7    S    
N4    Zn4   S    
C58   H4    S    
C10   C16   A    
C15   H15   S    
C77   H27   S    
C11   C63   A    
C75   C79   A    
C81   C85   A    
C2    O6    A    
C32   C88   A    
