data_mof_unit_51708.cif
_audit_creation_date              2012-10-26T19:26:32-0400
_audit_creation_method            fapswitch 2.2
_symmetry_space_group_name_H-M    P1
_symmetry_Int_Tables_number       1
_space_group_crystal_system       triclinic
_cell_length_a                    15.037507
_cell_length_b                    13.79075
_cell_length_c                    15.897031
_cell_angle_alpha                 89.803115
_cell_angle_beta                  89.191468
_cell_angle_gamma                 89.815787
_cell_volume                      3296.33820506

loop_
_atom_site_label
_atom_site_type_symbol
_atom_type_description
_atom_site_fract_x
_atom_site_fract_y
_atom_site_fract_z
_atom_type_partial_charge
C1    C     C_R   0.329127 0.500239 0.500538 0.517853
C2    C     C_R   0.905910 0.534421 0.576496 -0.006259
C3    C     C_R   0.953418 0.491903 0.507901 0.031010
C4    C     C_R   0.500765 0.500058 0.340259 0.550810
C5    C     C_R   0.907517 0.452729 0.438652 0.012237
C6    C     C_R   0.953366 0.568715 0.645872 -0.144281
C7    C     C_R   0.045262 0.563099 0.647483 -0.091983
C8    C     C_R   0.093528 0.523875 0.579476 0.030856
C9    C     C_R   0.047076 0.490377 0.508186 0.003251
C10   C     C_R   0.094518 0.456668 0.436835 0.031417
C11   C     C_R   0.049540 0.403201 0.374486 0.013484
C12   C     C_3   0.592773 0.463055 0.947668 -0.186177
C13   C     C_R   0.955515 0.408487 0.370991 -0.022980
C14   C     C_R   0.187266 0.518931 0.579926 -0.016049
C15   C     C_R   0.232481 0.500626 0.503480 -0.017611
C16   C     C_R   0.670957 0.499845 0.501910 0.585672
C17   C     C_R   0.185694 0.479874 0.429722 0.031911
C18   C     C_R   0.446459 0.793662 0.555505 0.024641
C19   C     C_R   0.446654 0.206241 0.555667 0.036003
C20   C     C_R   0.552873 0.793786 0.443232 0.157556
C21   C     C_R   0.552609 0.206193 0.443063 0.167196
C22   C     C_R   0.553641 0.896751 0.442113 -0.009355
C23   C     C_3   0.593932 0.448131 0.046462 0.025501
C24   C     C_R   0.553530 0.103247 0.442056 -0.007675
C25   C     C_R   0.499019 0.948247 0.499198 0.042636
C26   C     C_R   0.499019 0.051693 0.499209 0.042170
C27   C     C_R   0.444821 0.896500 0.556451 -0.015163
C28   C     C_R   0.444913 0.103386 0.556531 -0.012847
C29   C     C_R   0.608678 0.949574 0.386156 -0.129124
C30   C     C_R   0.608617 0.050502 0.386113 -0.132565
C31   C     C_R   0.390708 0.051011 0.613395 -0.128803
C32   C     C_R   0.390638 0.948802 0.613334 -0.133973
C33   C     C_R   0.498755 0.499827 0.659716 0.593141
C34   C     C_1   0.499152 0.499037 0.824630 -0.052778
C35   C     C_3   0.499081 0.605075 0.046136 -0.074164
C36   C     C_3   0.421373 0.439150 0.050099 -0.075678
C37   C     C_3   0.426275 0.432130 0.952096 -0.183847
C38   C     C_3   0.483878 0.602512 0.949941 -0.237082
C39   C     C_1   0.498612 0.499389 0.749218 0.025735
C40   C     C_3   0.504213 0.497894 0.082446 0.027414
C41   C     C_3   0.500567 0.498788 0.916688 0.002217
C42   C     C_2   0.239028 0.534172 0.658123 0.200303
C43   C     C_3   0.227587 0.505835 0.344573 -0.231572
C44   C     C_3   0.230870 0.616722 0.334409 -0.330609
C45   C     C_1   0.503705 0.498883 0.175193 -0.062546
C46   C     C_3   0.273119 0.646481 0.250702 -0.424635
C47   C     C_2   0.099130 0.328876 0.323594 0.200493
C48   C     C_3   0.907105 0.367056 0.295611 -0.266939
C49   C     C_3   0.875031 0.263375 0.313426 -0.295026
C50   C     C_3   0.817951 0.225989 0.242120 -0.458585
C51   C     C_2   0.609678 0.740826 0.382347 0.274928
C52   C     C_2   0.608839 0.259071 0.381741 0.265847
C53   C     C_2   0.432077 0.670691 0.089535 0.199993
C54   C     C_2   0.332848 0.476312 0.083982 0.183844
C55   C     C_3   0.678425 0.494340 0.089911 -0.234697
C56   C     C_1   0.502528 0.499782 0.250677 0.016368
C57   C     C_3   0.764081 0.502537 0.035478 -0.310647
C58   C     C_3   0.846936 0.507100 0.089638 -0.451272
C59   C     C_3   0.594562 0.335571 0.066550 -0.243861
C60   C     C_3   0.682111 0.280535 0.047784 -0.311043
C61   C     C_3   0.672422 0.172643 0.067786 -0.444158
C62   C     C_2   0.761475 0.587309 0.644617 0.220910
C63   C     C_R   0.814273 0.455375 0.440650 -0.167873
C64   C     C_R   0.767493 0.498909 0.506555 -0.001290
C65   C     C_R   0.812212 0.540005 0.574898 0.001682
Cu1   Cu    Cu3+1 0.499990 0.597420 0.500010 0.969310
Cu2   Cu    Cu3+1 0.499990 0.402580 0.500010 0.993054
H1    H     H_    0.414898 0.625306 0.934296 0.148044
H2    H     H_    0.423402 0.364376 0.075865 0.094459
H3    H     H_    0.563888 0.641445 0.054054 0.152190
H4    H     H_    0.440343 0.355941 0.933258 0.097476
H5    H     H_    0.529657 0.654758 0.918026 0.117945
H6    H     H_    0.641997 0.517860 0.926485 0.128394
H7    H     H_    0.610907 0.395109 0.914108 0.121628
H8    H     H_    0.775505 0.424122 0.391070 0.104260
H9    H     H_    0.920326 0.599640 0.700371 0.106481
H10   H     H_    0.302521 0.571198 0.655494 0.109017
H11   H     H_    0.341972 0.617764 0.246083 0.183426
H12   H     H_    0.362041 0.451008 0.922325 0.200280
H13   H     H_    0.233309 0.618767 0.197689 0.166223
H14   H     H_    0.275639 0.726792 0.246286 0.183487
H15   H     H_    0.162129 0.646587 0.337891 0.162020
H16   H     H_    0.269582 0.649930 0.385662 0.198716
H17   H     H_    0.295321 0.473930 0.338641 0.166161
H18   H     H_    0.188825 0.478004 0.291226 0.159029
H19   H     H_    0.073422 0.300330 0.265597 0.107696
H20   H     H_    0.758036 0.272433 0.235388 0.180841
H21   H     H_    0.856499 0.225986 0.182009 0.151509
H22   H     H_    0.796214 0.150753 0.256268 0.147747
H23   H     H_    0.077843 0.593256 0.701582 0.168417
H24   H     H_    0.933268 0.214479 0.320874 0.172552
H25   H     H_    0.835273 0.260954 0.372808 0.163623
H26   H     H_    0.851031 0.414851 0.277567 0.136832
H27   H     H_    0.949712 0.368360 0.238211 0.119032
H28   H     H_    0.670902 0.706887 0.402243 0.094262
H29   H     H_    0.669582 0.293297 0.401390 0.094384
H30   H     H_    0.361856 0.665678 0.076145 0.150128
H31   H     H_    0.319626 0.472491 0.151144 0.107078
H32   H     H_    0.840955 0.566750 0.136191 0.160098
H33   H     H_    0.856202 0.437150 0.123089 0.140433
H34   H     H_    0.404850 0.753295 0.599239 0.118056
H35   H     H_    0.906381 0.520286 0.049022 0.162740
H36   H     H_    0.771456 0.440643 0.991638 0.165873
H37   H     H_    0.761276 0.570177 0.997362 0.158283
H38   H     H_    0.665141 0.567471 0.115490 0.149577
H39   H     H_    0.692981 0.452174 0.147968 0.151253
H40   H     H_    0.653727 0.161995 0.135040 0.185286
H41   H     H_    0.620811 0.139691 0.027670 0.162716
H42   H     H_    0.736674 0.135064 0.055380 0.145663
H43   H     H_    0.701296 0.287960 0.980445 0.158843
H44   H     H_    0.736871 0.308784 0.086425 0.167187
H45   H     H_    0.405212 0.246536 0.599546 0.133978
H46   H     H_    0.577210 0.324243 0.134077 0.187197
H47   H     H_    0.543493 0.298174 0.029162 0.138449
H48   H     H_    0.783521 0.656010 0.669828 0.090422
H49   H     H_    0.653055 0.913675 0.341996 0.141911
H50   H     H_    0.652964 0.086450 0.341930 0.133234
H51   H     H_    0.348408 0.089086 0.658115 0.116774
H52   H     H_    0.348285 0.910665 0.658008 0.109687
N1    N     N_R   0.499930 0.743810 0.499960 -0.256231
N2    N     N_R   0.499930 0.256190 0.499960 -0.255717
O1    O     O_R   0.370250 0.582280 0.500020 -0.537777
O2    O     O_2   0.169360 0.295155 0.348245 -0.491745
O3    O     O_2   0.590507 0.739602 0.307967 -0.480055
O4    O     O_2   0.589527 0.260057 0.307394 -0.552616
O5    O     O_2   0.456782 0.732124 0.139091 -0.472176
O6    O     O_2   0.275226 0.508444 0.038124 -0.527651
O7    O     O_2   0.695959 0.548716 0.675801 -0.509712
O8    O     O_R   0.370250 0.417720 0.500020 -0.481581
O9    O     O_R   0.499990 0.582310 0.379440 -0.466101
O10   O     O_R   0.499990 0.417690 0.379440 -0.471724
O11   O     O_R   0.629730 0.582260 0.499990 -0.512357
O12   O     O_R   0.629730 0.417740 0.499990 -0.519332
O13   O     O_R   0.499980 0.582240 0.620570 -0.491858
O14   O     O_R   0.499980 0.417760 0.620570 -0.501922
O15   O     O_2   0.213240 0.501339 0.725560 -0.508736

loop_
_geom_bond_atom_site_label_1
_geom_bond_atom_site_label_2
_ccdc_geom_bond_type
C62   O7    D    
C43   H17   S    
C22   C29   A    
C12   H7    S    
C35   C53   S    
C11   C47   S    
C44   H16   S    
C61   H42   S    
C7    C8    A    
C2    C6    A    
C19   H45   S    
C23   C59   S    
C37   H12   S    
C12   C23   S    
C29   C30   A    
C48   H27   S    
C55   H38   S    
C36   C37   S    
Cu2   O12   S    
C24   C26   A    
C20   C51   S    
C44   H15   S    
C10   C17   A    
C23   C40   S    
C5    C63   A    
C42   O15   D    
C61   H41   S    
C1    O1    A    
Cu1   O13   S    
C33   O13   A    
C35   H3    S    
C8    C9    A    
C22   C25   A    
Cu1   O1    S    
C52   H29   S    
C58   H35   S    
C9    C10   A    
C5    C13   A    
C50   H21   S    
C14   C42   S    
C2    C65   A    
Cu1   Cu2   S    
C59   C60   S    
C36   C54   S    
Cu1   N1    S    
C12   H6    S    
C4    C56   S    
C37   C41   S    
C51   O3    D    
Cu2   O8    S    
C34   C41   S    
C32   H52   S    
C49   H24   S    
C16   O11   A    
C16   O12   A    
Cu2   N2    S    
C44   C46   S    
C4    O10   A    
Cu1   O11   S    
C40   C45   S    
C57   H36   S    
C38   H5    S    
C48   H26   S    
C18   C27   A    
C55   H39   S    
C34   C39   T    
C43   H18   S    
C47   H19   S    
C36   C40   S    
C35   C38   S    
C58   H33   S    
C45   C56   T    
C38   C41   S    
C10   C11   A    
C46   H11   S    
C4    O9    A    
C53   H30   S    
C25   C26   A    
C7    H23   S    
C60   C61   S    
C18   H34   S    
Cu2   O14   S    
C43   C44   S    
C17   C43   S    
C31   H51   S    
C12   C41   S    
C3    C9    A    
C46   H14   S    
C33   O14   A    
C50   H22   S    
C47   O2    D    
C31   C32   A    
C59   H46   S    
C33   C39   S    
C6    H9    S    
C19   C28   A    
C50   H20   S    
C1    C15   S    
C48   C49   S    
C29   H49   S    
C20   C22   A    
C55   C57   S    
C49   H25   S    
C18   N1    A    
C20   N1    A    
C36   H2    S    
C15   C17   A    
C57   H37   S    
C19   N2    A    
C8    C14   A    
C62   C65   S    
C27   C32   A    
C26   C28   A    
C28   C31   A    
Cu2   O10   S    
C58   H32   S    
C38   H1    S    
C3    C5    A    
C13   C48   S    
C52   O4    D    
C23   C55   S    
C6    C7    A    
C30   H50   S    
C25   C27   A    
C54   O6    D    
C1    O8    A    
C64   C65   A    
C37   H4    S    
C35   C40   S    
C62   H48   S    
C60   H44   S    
C46   H13   S    
C11   C13   A    
C57   C58   S    
C63   H8    S    
C59   H47   S    
C2    C3    A    
C21   N2    A    
C61   H40   S    
C24   C30   A    
C60   H43   S    
C53   O5    D    
C63   C64   A    
C42   H10   S    
C49   C50   S    
C21   C24   A    
C14   C15   A    
C54   H31   S    
C16   C64   S    
C21   C52   S    
C51   H28   S    
Cu1   O9    S    
