data_mof_unit_56885.cif
_audit_creation_date              2013-03-05T15:41:04-0500
_audit_creation_method            fapswitch 2.2
_symmetry_space_group_name_H-M    P1
_symmetry_Int_Tables_number       1
_space_group_crystal_system       triclinic
_cell_length_a                    11.029825
_cell_length_b                    11.157259
_cell_length_c                    18.497771
_cell_angle_alpha                 89.50294
_cell_angle_beta                  89.353976
_cell_angle_gamma                 59.652165
_cell_volume                      1964.32375232

loop_
_atom_site_label
_atom_site_type_symbol
_atom_site_description
_atom_site_fract_x
_atom_site_fract_y
_atom_site_fract_z
_atom_type_partial_charge
O1    O     O_R   0.507110 0.256280 0.580300 -0.496740
O2    O     O_R   0.280830 0.527190 0.577940 -0.484850
C1    C     C_R   0.234827 0.646322 0.608041 0.540617
O3    O     O_R   0.261360 0.738990 0.584270 -0.510665
O4    O     O_R   0.532590 0.694780 0.574370 -0.515201
C2    C     C_R   0.626330 0.584836 0.609662 0.557826
O5    O     O_R   0.744470 0.503750 0.577000 -0.448155
O6    O     O_R   0.698520 0.277230 0.571620 -0.505553
C3    C     C_R   0.634709 0.214869 0.595524 0.549008
O7    O     O_R   0.498530 0.256920 0.419280 -0.512836
O8    O     O_R   0.272880 0.527780 0.428680 -0.483452
C4    C     C_R   0.235741 0.645503 0.396480 0.569201
O9    O     O_R   0.252780 0.739630 0.423250 -0.463845
O10   O     O_R   0.524640 0.695370 0.425100 -0.485703
C5    C     C_R   0.643306 0.622201 0.393455 0.549225
O11   O     O_R   0.735890 0.504390 0.415980 -0.491042
O12   O     O_R   0.690560 0.277820 0.422350 -0.477944
C6    C     C_R   0.621300 0.223610 0.396742 0.539511
Cr1   Cr    Cr6+3 0.393010 0.398050 0.501480 1.074620
Cr2   Cr    Cr6+3 0.398820 0.707980 0.501630 1.069174
Cr3   Cr    Cr6+3 0.708140 0.393940 0.496850 1.101029
O13   O     O_3   0.499990 0.499990 0.499980 -0.306493
C7    C     C_3   0.526961 0.759895 0.795888 0.063708
H1    H     H_    0.519503 0.860009 0.783301 0.214397
C8    C     C_3   0.501191 0.708760 0.723158 -0.284219
H2    H     H_    0.438022 0.657693 0.729347 0.176406
H3    H     H_    0.436186 0.802162 0.689189 0.164808
H4    H     H_    0.662068 0.794738 0.672817 0.148412
C9    C     C_3   0.784768 0.671903 0.766137 0.046920
C10   C     C_3   0.714823 0.496123 0.814915 -0.022974
C11   C     C_3   0.683565 0.652937 0.821073 -0.053326
C12   C     C_3   0.646178 0.608565 0.686109 -0.059542
C13   C     C_3   0.731551 0.684058 0.688704 -0.198816
C14   C     C_3   0.723408 0.465183 0.730119 0.020835
H5    H     H_    0.665795 0.409828 0.719126 0.159157
H6    H     H_    0.891758 0.579805 0.768861 0.223824
H7    H     H_    0.819423 0.647491 0.649260 0.194993
C15   C     C_2   0.695829 0.112534 0.654256 -0.092286
C16   C     C_2   0.689291 0.149945 0.819491 0.096954
C17   C     C_2   0.804493 0.095916 0.775148 -0.049832
C18   C     C_2   0.800705 0.103535 0.693921 -0.103878
H8    H     H_    0.908214 0.041909 0.799197 0.188704
H9    H     H_    0.881898 0.111305 0.664879 0.201017
H10   H     H_    0.629962 0.073985 0.675219 0.166888
C19   C     C_2   0.178245 0.664316 0.681123 -0.133979
C20   C     C_2   0.196932 0.661809 0.839840 0.007112
C21   C     C_2   0.208669 0.553355 0.802300 0.236880
C22   C     C_2   0.218099 0.551143 0.722575 -0.076024
H11   H     H_    0.264842 0.449845 0.697261 0.216998
H12   H     H_    0.212193 0.738711 0.812296 0.135930
H13   H     H_    0.126767 0.768006 0.703807 0.138334
C23   C     C_2   0.655029 0.645275 0.317539 -0.070816
C24   C     C_2   0.634578 0.666593 0.160052 -0.079347
C25   C     C_2   0.700804 0.546797 0.195567 -0.124767
C26   C     C_2   0.675286 0.542452 0.272383 -0.100189
H14   H     H_    0.783116 0.453014 0.170066 0.193608
H15   H     H_    0.684437 0.447099 0.293343 0.211371
H16   H     H_    0.548674 0.756479 0.185413 0.210736
H17   H     H_    0.646917 0.741680 0.299036 0.111942
C27   C     C_2   0.683413 0.123267 0.337435 0.026486
C28   C     C_2   0.712885 0.006772 0.187081 -0.122825
C29   C     C_2   0.602270 0.043099 0.232413 0.117770
C30   C     C_2   0.613591 0.062455 0.310994 -0.167704
H18   H     H_    0.525567 0.071670 0.342496 0.173375
H19   H     H_    0.817787 0.960422 0.207614 0.121621
C31   C     C_2   0.202161 0.662188 0.319170 -0.086991
C32   C     C_2   0.213054 0.635255 0.164027 -0.003836
C33   C     C_2   0.261007 0.711154 0.195924 0.120490
C34   C     C_2   0.237334 0.739595 0.274687 0.037083
H20   H     H_    0.179928 0.585886 0.296930 0.110061
O14   O     O_R   0.089190 0.825870 0.932320 -0.470844
O15   O     O_R   0.819070 0.053960 0.931440 -0.487827
C35   C     C_R   0.704288 0.097718 0.895132 0.607319
O16   O     O_R   0.607070 0.076440 0.916460 -0.419053
O17   O     O_R   0.647110 0.806550 0.917690 -0.429191
C36   C     C_R   0.716474 0.682449 0.893141 0.629116
O18   O     O_R   0.837080 0.593860 0.915300 -0.480995
O19   O     O_R   0.064770 0.636080 0.932550 -0.441244
C37   C     C_R   0.121167 0.705326 0.908642 0.601184
O20   O     O_R   0.068250 0.829200 0.092940 -0.497224
O21   O     O_R   0.799650 0.057040 0.080330 -0.484401
C38   C     C_R   0.706925 0.028597 0.108835 0.559914
O22   O     O_R   0.586130 0.079760 0.077080 -0.421048
O23   O     O_R   0.627700 0.809630 0.066580 -0.474562
C39   C     C_R   0.692534 0.688736 0.094539 0.554800
O24   O     O_R   0.816140 0.597180 0.075920 -0.499527
O25   O     O_R   0.045360 0.639170 0.081440 -0.473996
C40   C     C_R   0.103191 0.704030 0.109201 0.516665
Cr4   Cr    Cr6+3 0.937950 0.938450 0.008940 1.112364
Cr5   Cr    Cr6+3 0.626180 0.937030 0.994750 1.215260
Cr6   Cr    Cr6+3 0.937790 0.625760 0.001410 1.166021
O26   O     O_3   0.833980 0.833750 0.001700 -0.351186
N1    N     N_R   0.871976 0.370742 0.705248 0.088048
O27   O     O_R   0.942289 0.244074 0.729073 -0.334056
O28   O     O_R   0.943280 0.412910 0.667325 -0.310057
C41   C     C_2   0.545780 0.215988 0.787772 0.621946
O29   O     O_2   0.507055 0.311941 0.745064 -0.546301
O30   O     O_R   0.464054 0.154036 0.798107 -0.568108
H21   H     H_    0.400910 0.169915 0.755397 0.360516
N2    N     N_R   0.218466 0.434189 0.838241 0.126005
O31   O     O_R   0.188731 0.352828 0.802603 -0.254330
O32   O     O_R   0.284144 0.391055 0.899479 -0.274778
N3    N     N_R   0.410753 0.798306 0.847652 0.075362
O33   O     O_R   0.288595 0.904149 0.831479 -0.316407
O34   O     O_R   0.431951 0.755661 0.914394 -0.292221
N4    N     N_R   0.463497 0.083641 0.206474 0.095719
O35   O     O_R   0.353342 0.178352 0.240871 -0.304024
O36   O     O_R   0.445748 0.007670 0.159796 -0.276933
C42   C     C_2   0.825520 0.085689 0.312833 0.577350
O37   O     O_2   0.920189 0.965153 0.318418 -0.513270
O38   O     O_R   0.851740 0.187048 0.284732 -0.689883
H22   H     H_    0.952427 0.147565 0.267764 0.376049
N5    N     N_R   0.299823 0.795482 0.152845 -0.151596
O39   O     O_R   0.347778 0.760998 0.087075 -0.000004
O40   O     O_R   0.347775 0.760998 0.087074 -0.000004
C43   C     C_2   0.253753 0.857312 0.301205 0.660034
O41   O     O_2   0.163097 0.948336 0.339082 -0.445321
O42   O     O_R   0.371191 0.866024 0.281349 -0.694811
H23   H     H_    0.371950 0.947564 0.304575 0.358544
C44   C     C_2   0.296406 0.481903 0.171165 0.566370
O43   O     O_2   0.258189 0.408605 0.142230 -0.404893
O44   O     O_R   0.423416 0.421548 0.208683 -0.699411
H24   H     H_    0.479398 0.317220 0.203844 0.369402
N6    N     N_R   0.798212 0.792373 0.781545 0.046066
O45   O     O_R   0.689167 0.915051 0.779064 -0.403778
O46   O     O_R   0.920907 0.780083 0.786490 -0.421741
C45   C     C_2   0.849795 0.382503 0.852284 0.653231
O47   O     O_2   0.961634 0.376636 0.841648 -0.383306
O48   O     O_R   0.848467 0.281338 0.897005 -0.661340
H25   H     H_    0.944520 0.213367 0.917164 0.363047
C46   C     C_2   0.596511 0.488937 0.855092 0.589363
O49   O     O_2   0.497834 0.496397 0.822895 -0.532185
O50   O     O_R   0.596973 0.481564 0.930850 -0.618665
H26   H     H_    0.513100 0.478024 0.951270 0.365626

loop_
_geom_bond_atom_site_label_1
_geom_bond_atom_site_label_2
_geom_bond_distance
_ccdc_geom_bond_type
C2    C12   1.479786 S    
O25   C40   1.294032 A    
C34   C43   1.500650 S    
C17   C18   1.504052 S    
N1    O27   1.297060 A    
O25   Cr6   1.960730 S    
C35   O16   1.268036 A    
O38   H22   1.012960 S    
C14   N1    1.501277 S    
O14   C37   1.285492 A    
O21   C38   1.318198 A    
O4    Cr2   1.957258 S    
C31   H20   1.083265 S    
C39   O24   1.268480 A    
C9    H6    1.107298 S    
O8    Cr1   1.931988 S    
C32   C40   1.469816 S    
O11   Cr3   2.046680 S    
C27   C30   1.354593 D    
N5    O39   1.302267 A    
O24   Cr6   2.045653 S    
C42   O38   1.396301 S    
C10   C11   1.608110 S    
C31   C34   1.375684 D    
N4    O35   1.301752 A    
C19   H13   1.084489 S    
C10   C46   1.531179 S    
C9    N6    1.455640 S    
C9    C13   1.532863 S    
C43   O41   1.221684 D    
C14   H5    1.108285 S    
C20   C21   1.348127 D    
O20   Cr4   2.052536 S    
O42   H23   1.013349 S    
C3    C15   1.468190 S    
C27   C42   1.470660 S    
O17   Cr5   1.973195 S    
C25   C26   1.450571 S    
C7    N3    1.472343 S    
C20   C37   1.459632 S    
C33   C34   1.485698 S    
C41   O30   1.396540 S    
C7    H1    1.100792 S    
C45   O47   1.215667 D    
C32   C44   1.483049 S    
C23   C26   1.348023 D    
C33   N5    1.445640 S    
O21   Cr4   1.940833 S    
C8    C12   1.568061 S    
C17   H8    1.086281 S    
N1    O28   1.299119 A    
Cr3   O13   1.981792 S    
C18   H9    1.079311 S    
C28   C29   1.356142 D    
O23   Cr5   1.931282 S    
C44   O44   1.399352 S    
O6    Cr3   1.929987 S    
C25   H14   1.086557 S    
O1    Cr1   2.049723 S    
C10   C14   1.600460 S    
C32   C33   1.346580 D    
O10   Cr2   1.926547 S    
Cr1   O13   2.010368 S    
O1    C3    1.274023 A    
C36   O18   1.261417 A    
C15   C18   1.336786 D    
C16   C17   1.364487 D    
O19   C37   1.285670 A    
O6    C3    1.287432 A    
C8    H2    1.105178 S    
O5    Cr3   2.097794 S    
C4    C31   1.467833 S    
C1    C19   1.454786 S    
O12   Cr3   1.976388 S    
C21   N2    1.436145 S    
C12   C14   1.601107 S    
O17   C36   1.281150 A    
C45   O48   1.399555 S    
C15   H10   1.081521 S    
C29   C30   1.487241 S    
C23   H17   1.085895 S    
Cr5   O26   1.983144 S    
C21   C22   1.476766 S    
O14   Cr4   2.056565 S    
O7    Cr1   2.072618 S    
C24   H16   1.077752 S    
C41   O29   1.217999 D    
N2    O32   1.302431 A    
O12   C6    1.286009 A    
N3    O34   1.299667 A    
C5    C23   1.441615 S    
O23   C39   1.272705 A    
Cr4   O26   2.014321 S    
C6    C27   1.468200 S    
C22   H11   1.085072 S    
Cr2   O13   2.003763 S    
H4    C13   1.114046 S    
C38   O22   1.299743 A    
C26   H15   1.085158 S    
O50   H26   1.014316 S    
C1    O3    1.281770 A    
Cr6   O26   2.002831 S    
C44   O43   1.222288 D    
N6    O46   1.293694 A    
O48   H25   1.014269 S    
C19   C22   1.343686 D    
O22   Cr5   2.089610 S    
C10   C45   1.549876 S    
O18   Cr6   2.084939 S    
O9    Cr2   2.071337 S    
O2    Cr1   1.949811 S    
O15   C35   1.296593 A    
C46   O50   1.402962 S    
O8    C4    1.302309 A    
C24   C25   1.326898 D    
C2    O5    1.296901 A    
C29   N4    1.445984 S    
O19   Cr6   1.928081 S    
C8    H3    1.112949 S    
C20   H12   1.077284 S    
C28   C38   1.462311 S    
C12   C13   1.549725 S    
O16   Cr5   2.048793 S    
O2    C1    1.288092 A    
C9    C11   1.591484 S    
C42   O37   1.220919 D    
O15   Cr4   1.933420 S    
C11   C36   1.468555 S    
O4    C2    1.311353 A    
N4    O36   1.298657 A    
O7    C6    1.275543 A    
N2    O31   1.297031 A    
C43   O42   1.392153 S    
C16   C35   1.489402 S    
C46   O49   1.211798 D    
C13   H7    1.108071 S    
C16   C41   1.492517 S    
C30   H18   1.086342 S    
O3    Cr2   2.045012 S    
C28   H19   1.073466 S    
C7    C8    1.549848 S    
C4    O9    1.262545 A    
O20   C40   1.280946 A    
O30   H21   1.012873 S    
N3    O33   1.301777 A    
O10   C5    1.278091 A    
C24   C39   1.440542 S    
O44   H24   1.009199 S    
C5    O11   1.260122 A    
C7    C11   1.596972 S    
N6    O45   1.287947 A    
N5    O40   1.302267 A    
