data_mof_unit_67079.cif
_audit_creation_date              2012-12-11T17:41:23-0500
_audit_creation_method            fapswitch 2.2
_symmetry_space_group_name_H-M    P1
_symmetry_Int_Tables_number       1
_space_group_crystal_system       triclinic
_cell_length_a                    8.269739
_cell_length_b                    12.703977
_cell_length_c                    14.148797
_cell_angle_alpha                 92.809542
_cell_angle_beta                  90.51916
_cell_angle_gamma                 98.37459
_cell_volume                      1468.63734448

loop_
_atom_site_label
_atom_site_type_symbol
_atom_type_description
_atom_site_fract_x
_atom_site_fract_y
_atom_site_fract_z
_atom_type_partial_charge
Ba1   Ba    Ba6+2 0.855630 0.555280 0.454520 1.639589
Ba2   Ba    Ba6+2 0.334200 0.444810 0.545490 1.633492
C1    C     C_3   0.644015 0.959471 0.200939 -0.385080
C2    C     C_R   0.183439 0.497685 0.196068 0.034459
C3    C     C_R   0.338550 0.547094 0.225998 -0.303646
C4    C     C_3   0.189190 0.802030 0.196564 0.424147
C5    C     C_R   0.450428 0.593854 0.162040 0.003257
C6    C     C_R   0.405122 0.598108 0.067110 -0.153598
C7    C     C_R   0.248077 0.552248 0.034763 0.013915
C8    C     C_R   0.137054 0.498135 0.098425 -0.003530
C9    C     C_R   0.051166 0.506607 0.902679 -0.007539
C10   C     C_R   0.940255 0.452361 0.966312 0.028330
C11   C     C_R   0.007093 0.503337 0.804456 0.026478
C12   C     C_3   0.674292 0.856383 0.243546 0.338309
C13   C     C_R   0.855981 0.448185 0.773503 -0.322235
C14   C     C_R   0.743598 0.402029 0.837303 0.036802
C15   C     C_R   0.785424 0.403042 0.933258 -0.071318
C16   C     C_3   0.218685 0.844105 0.097075 -0.225626
C17   C     C_R   0.203058 0.558435 0.939081 -0.007878
C18   C     C_R   0.759086 0.176743 0.539170 -0.268723
C19   C     C_R   0.427945 0.813622 0.463528 -0.284426
C20   C     C_R   0.404025 0.994831 0.430518 -0.101354
C21   C     C_R   0.339451 0.887465 0.425700 -0.010046
C22   C     C_R   0.574800 0.846598 0.513585 0.062903
C23   C     C_3   0.474297 0.308155 0.257655 0.280680
C24   C     C_R   0.637737 0.957324 0.523762 -0.053925
C25   C     C_R   0.552254 0.031693 0.479526 -0.063629
C26   C     C_R   0.616152 0.141341 0.486740 0.028801
C27   C     C_R   0.846019 0.105178 0.581261 -0.015305
C28   C     C_3   0.219712 0.765620 0.655742 0.276483
C29   C     C_R   0.784171 0.996312 0.574982 -0.090983
C30   C     C_3   0.136820 0.864059 0.660596 -0.349043
C31   C     C_3   0.967033 0.236833 0.344421 0.283168
C32   C     C_3   0.981942 0.119734 0.328232 -0.330810
C33   C     C_3   0.714545 0.673000 0.738445 0.275574
C34   C     C_3   0.454032 0.284861 0.151339 -0.356592
C35   C     C_3   0.726937 0.696405 0.844928 -0.352236
C36   C     C_2   0.119253 0.256060 0.846362 0.618482
C37   C     C_2   0.876843 0.121300 0.817704 0.330982
C38   C     C_2   0.083742 0.806690 0.025980 0.470214
C39   C     C_3   0.058529 0.140437 0.820426 0.235213
C40   C     C_3   0.108890 0.070455 0.898612 -0.297361
C41   C     C_3   0.502943 0.144584 0.750208 0.411670
C42   C     C_3   0.487354 0.030875 0.783064 -0.348692
C43   C     C_R   0.984669 0.447086 0.062111 0.038699
H1    H     H_    0.781586 0.873379 0.292234 0.099140
H2    H     H_    0.832951 0.653328 0.712755 0.009112
H3    H     H_    0.616637 0.604447 0.723366 0.071188
H4    H     H_    0.632312 0.020698 0.258205 0.088924
H5    H     H_    0.827410 0.762864 0.861781 0.138579
H6    H     H_    0.751831 0.625247 0.881549 0.074124
H7    H     H_    0.610280 0.719452 0.871272 0.118076
H8    H     H_    0.565333 0.826949 0.284971 -0.042990
H9    H     H_    0.529609 0.946034 0.158112 0.117135
H10   H     H_    0.357457 0.328883 0.285677 0.026303
H11   H     H_    0.573087 0.376787 0.270430 0.054166
H12   H     H_    0.192831 0.919667 0.716780 0.125788
H13   H     H_    0.352000 0.218848 0.136210 0.144463
H14   H     H_    0.426567 0.356663 0.116365 0.080946
H15   H     H_    0.568498 0.261732 0.121760 0.127662
H16   H     H_    0.746166 0.988704 0.154174 0.145501
H17   H     H_    0.331146 0.816738 0.068680 0.006084
H18   H     H_    0.240215 0.091559 0.917932 0.146242
H19   H     H_    0.040082 0.081195 0.964805 0.124650
H20   H     H_    0.083961 0.985106 0.874453 0.074244
H21   H     H_    0.626032 0.166037 0.720440 -0.055916
H22   H     H_    0.413506 0.147254 0.691971 0.091019
H23   H     H_    0.146699 0.903883 0.592642 0.113963
H24   H     H_    0.570863 0.023713 0.843006 0.161006
H25   H     H_    0.511495 0.975424 0.723502 0.054500
H26   H     H_    0.113669 0.722020 0.192623 0.082013
H27   H     H_    0.365195 0.005808 0.810142 0.110437
H28   H     H_    0.374940 0.546051 0.299571 0.072053
H29   H     H_    0.492324 0.637309 0.018800 0.081683
H30   H     H_    0.697355 0.365078 0.981789 0.081429
H31   H     H_    0.821785 0.445766 0.699328 0.072721
H32   H     H_    0.899144 0.401613 0.107175 0.081166
H33   H     H_    0.289169 0.602853 0.893602 0.085200
H34   H     H_    0.007842 0.842248 0.680434 0.136386
H35   H     H_    0.334988 0.048481 0.396911 0.102567
H36   H     H_    0.852807 0.943672 0.609364 0.092835
H37   H     H_    0.808205 0.260630 0.542729 0.061816
H38   H     H_    0.310485 0.792696 0.226331 -0.130103
H39   H     H_    0.378541 0.729868 0.457329 0.066873
H40   H     H_    0.240343 0.932630 0.101327 0.074978
H41   H     H_    0.353665 0.790084 0.655830 0.001848
H42   H     H_    0.181623 0.721064 0.588020 0.062917
H43   H     H_    0.114966 0.314943 0.794588 -0.010962
H44   H     H_    0.815255 0.059444 0.769458 -0.013033
H45   H     H_    0.837981 0.245531 0.355506 0.000759
H46   H     H_    0.100859 0.827588 0.953054 -0.017992
H47   H     H_    0.040866 0.266770 0.408658 0.083315
H48   H     H_    0.928883 0.089827 0.258360 0.121916
H49   H     H_    0.917237 0.072974 0.384114 0.088087
H50   H     H_    0.112545 0.109170 0.328901 0.129692
O1    O     O_2   0.887370 0.460630 0.272300 -0.474577
O2    O     O_2   0.168292 0.113693 0.554641 -0.475109
O3    O     O_3   0.126729 0.106992 0.733996 -0.660342
O4    O     O_3   0.129410 0.451380 0.388510 -0.494754
O5    O     O_3   0.575400 0.626570 0.547370 -0.487243
O6    O     O_2   0.344320 0.238700 0.455090 -0.459749
O7    O     O_3   0.514774 0.217436 0.299583 -0.646103
O8    O     O_2   0.412771 0.412413 0.836386 -0.471715
O9    O     O_3   0.474891 0.215111 0.826378 -0.563737
O10   O     O_3   0.670210 0.653170 0.329170 -0.491322
O11   O     O_2   0.788023 0.592744 0.164102 -0.453630
O12   O     O_3   0.678113 0.764133 0.696280 -0.644243
O13   O     O_3   0.020088 0.289309 0.263210 -0.633435
O14   O     O_3   0.706744 0.783772 0.170420 -0.543091
O15   O     O_2   0.845380 0.761330 0.544970 -0.477630
O16   O     O_3   0.088930 0.704860 0.376040 -0.482810
O17   O     O_2   0.999196 0.889730 0.426519 -0.495915
O18   O     O_2   0.170424 0.285172 0.926150 -0.591399
O19   O     O_2   0.799517 0.166521 0.876144 -0.615595
O20   O     O_2   0.957414 0.751691 0.047443 -0.544236
O21   O     O_3   0.113524 0.873866 0.254082 -0.604240
O22   O     O_2   0.302330 0.539400 0.727760 -0.465350
O23   O     O_3   0.060300 0.548700 0.611500 -0.494234
O24   O     O_3   0.519500 0.346920 0.670840 -0.498374
O25   O     O_3   0.179077 0.710354 0.737598 -0.640627
O26   O     O_3   0.614310 0.373510 0.452640 -0.479670
O27   O     O_3   0.100780 0.295230 0.623970 -0.490526
P1    P     P_3+3 0.054400 0.427280 0.286870 0.976309
P2    P     P_3+3 0.668300 0.742890 0.573060 0.967693
P3    P     P_3+3 0.135457 0.842034 0.372412 0.946868
P4    P     P_3+3 0.135310 0.572810 0.713130 0.972253
P5    P     P_3+3 0.054190 0.156038 0.628509 0.885305
P6    P     P_3+3 0.654187 0.653303 0.206078 1.009324
P7    P     P_3+3 0.525897 0.241503 0.422535 0.931117
P8    P     P_3+3 0.538397 0.345762 0.793545 0.990203

loop_
_geom_bond_atom_site_label_1
_geom_bond_atom_site_label_2
_ccdc_geom_bond_type
C12   O14   S    
C18   H37   S    
C39   C40   S    
O7    P7    S    
O2    P5    D    
C34   H14   S    
C33   H2    S    
Ba1   O4    S    
Ba2   O23   S    
C5    C6    A    
C12   H1    S    
C9    C17   A    
C24   C25   A    
O12   P2    S    
C33   C35   S    
C22   C24   A    
C26   P7    S    
C34   H13   S    
C41   H21   S    
C35   H6    S    
C1    H9    S    
O25   P4    S    
C23   O7    S    
C38   O20   D    
C13   C14   A    
O11   P6    D    
C22   P2    S    
O24   P8    S    
Ba1   Ba2   S    
O27   P5    S    
C16   C38   S    
C41   O9    S    
O15   P2    D    
C7    C17   A    
C6    C7    A    
C10   C15   A    
O16   P3    S    
C40   H20   S    
C23   H11   S    
C42   H25   S    
C5    P6    S    
C28   H41   S    
C14   P8    S    
O22   P4    D    
O10   P6    S    
C21   P3    S    
Ba2   O27   S    
C13   H31   S    
Ba2   O5    S    
C24   C29   A    
O9    P8    S    
C31   O13   S    
C30   H12   S    
C33   H3    S    
Ba1   O5    S    
O8    P8    D    
Ba2   O22   S    
C18   C27   A    
C1    H16   S    
C19   C21   A    
C1    H4    S    
C4    H26   S    
C4    C16   S    
C16   H40   S    
C32   H49   S    
C32   H50   S    
C36   C39   S    
C37   C39   S    
C31   H47   S    
C3    C5    A    
C35   H7    S    
C16   H17   S    
C18   C26   A    
Ba2   O6    S    
C2    P1    S    
C36   H43   S    
O5    P2    S    
C17   H33   S    
C41   C42   S    
Ba1   P1    S    
Ba1   O15   S    
O14   P6    S    
C19   H39   S    
C9    C10   A    
C37   O19   D    
C8    C43   A    
C6    H29   S    
C31   C32   S    
C42   H24   S    
C4    O21   S    
O17   P3    D    
C1    C12   S    
C11   P4    S    
Ba2   P4    S    
O3    P5    S    
Ba2   O4    S    
O21   P3    S    
C27   P5    S    
O13   P1    S    
C2    C8    A    
C40   H19   S    
O4    P1    S    
C7    C8    A    
Ba2   O26   S    
C36   O18   D    
C4    H38   S    
O1    P1    D    
C39   O3    S    
C23   H10   S    
O26   P7    S    
C10   C43   A    
C34   H15   S    
Ba2   O24   S    
C29   H36   S    
C30   H23   S    
C20   C25   A    
C11   C13   A    
Ba1   P2    S    
C20   H35   S    
C27   C29   A    
C31   H45   S    
Ba1   O16   S    
C30   H34   S    
C28   C30   S    
C35   H5    S    
C9    C11   A    
C14   C15   A    
C28   O25   S    
Ba1   O1    S    
C42   H27   S    
Ba1   O23   S    
C38   H46   S    
C3    H28   S    
C32   H48   S    
Ba1   O26   S    
C33   O12   S    
C23   C34   S    
C2    C3    A    
C12   H8    S    
C41   H22   S    
C19   C22   A    
C25   C26   A    
C15   H30   S    
C20   C21   A    
C43   H32   S    
O23   P4    S    
C28   H42   S    
C40   H18   S    
C37   H44   S    
Ba1   O10   S    
O6    P7    D    
