data_mof_unit_43298.cif
_audit_creation_date              2012-12-10T17:12:37-0500
_audit_creation_method            fapswitch 2.2
_symmetry_space_group_name_H-M    P1
_symmetry_Int_Tables_number       1
_space_group_crystal_system       triclinic
_cell_length_a                    23.408831
_cell_length_b                    10.698111
_cell_length_c                    10.067192
_cell_angle_alpha                 88.615005
_cell_angle_beta                  89.987507
_cell_angle_gamma                 90.378546
_cell_volume                      2520.33790872

loop_
_atom_site_label
_atom_site_type_symbol
_atom_type_description
_atom_site_fract_x
_atom_site_fract_y
_atom_site_fract_z
_atom_type_partial_charge
C1    C     C_R   0.494765 0.262977 0.501658 0.829588
C2    C     C_R   0.967941 0.442775 0.277686 -0.074121
C3    C     C_R   0.027575 0.438180 0.274419 -0.047631
C4    C     C_R   0.059017 0.476651 0.387449 -0.072201
C5    C     C_R   0.029648 0.508236 0.505402 -0.005607
C6    C     C_R   0.060296 0.535732 0.622669 -0.108956
C7    C     C_R   0.030627 0.578638 0.735918 -0.161356
C8    C     C_R   0.970881 0.580674 0.735324 0.621488
C9    C     C_R   0.118834 0.488368 0.387577 0.461636
C10   C     C_R   0.119498 0.515688 0.622024 0.554353
C11   C     C_R   0.238453 0.613017 0.525868 -0.013106
C12   C     C_R   0.389771 0.500358 0.500124 0.787816
C13   C     C_R   0.298644 0.613827 0.522499 -0.098889
C14   C     C_R   0.327630 0.500673 0.500842 -0.167383
C15   C     C_R   0.297785 0.387265 0.482426 -0.070562
C16   C     C_R   0.237583 0.387795 0.481554 0.017083
C17   C     C_R   0.208583 0.500447 0.503984 0.101376
C18   C     C_R   0.761949 0.425005 0.579739 0.607834
C19   C     C_R   0.702761 0.418857 0.578615 0.552674
C20   C     C_R   0.671996 0.504581 0.500509 -0.267267
C21   C     C_R   0.700150 0.598246 0.426175 -0.340606
C22   C     C_R   0.759553 0.608752 0.430408 -0.052607
C23   C     C_R   0.498595 0.737365 0.497741 0.843899
C24   C     C_R   0.790588 0.519200 0.506280 0.044187
C25   C     C_2   0.471469 0.936332 0.395139 -0.120574
C26   C     C_2   0.499889 0.870013 0.490157 0.496003
C27   C     C_2   0.478941 0.070171 0.393988 -0.201189
C28   C     C_2   0.474304 0.135760 0.505488 -0.113421
C29   C     C_2   0.500555 0.599781 0.923204 0.051306
C30   C     C_2   0.514740 0.595201 0.068410 0.056321
C31   C     C_R   0.610275 0.500057 0.500024 1.010152
C32   C     C_R   0.880187 0.551925 0.617801 0.702123
C33   C     C_R   0.879315 0.481646 0.394435 0.625588
C34   C     C_R   0.938929 0.479634 0.391545 -0.038249
C35   C     C_R   0.969589 0.512091 0.506103 -0.085278
C36   C     C_R   0.940086 0.547723 0.621320 -0.169754
H1    H     H_    0.943907 0.413526 0.191685 0.237785
H2    H     H_    0.675521 0.665776 0.368663 0.224851
H3    H     H_    0.494390 0.112771 0.301517 0.160557
H4    H     H_    0.492973 0.689896 0.874949 0.089784
N1    N     N_R   0.851529 0.519050 0.505667 -0.323746
N2    N     N_R   0.147387 0.500788 0.504626 -0.377834
N3    N     N_2   0.500610 0.501330 0.852150 0.162651
N4    N     N_2   0.500630 0.501360 0.147810 -0.154680
O1    O     O_R   0.499990 0.319060 0.613040 -0.572141
O2    O     O_2   0.849093 0.446572 0.287179 -0.505451
O3    O     O_2   0.148605 0.490134 0.272849 -0.534493
O4    O     O_2   0.149287 0.509143 0.736625 -0.477625
O5    O     O_R   0.500010 0.319100 0.386900 -0.658066
O6    O     O_R   0.416150 0.499940 0.613100 -0.621089
O7    O     O_R   0.416160 0.499980 0.386960 -0.598345
O8    O     O_R   0.499990 0.680900 0.613100 -0.624586
O9    O     O_R   0.500010 0.680940 0.386960 -0.598061
O10   O     O_R   0.583840 0.500020 0.613040 -0.547033
O11   O     O_R   0.583850 0.500060 0.386900 -0.563122
O12   O     O_2   0.850472 0.588625 0.724769 -0.413282
Zn1   Zn    Zn3+2 0.499990 0.499970 0.650990 1.112438
Zn2   Zn    Zn3+2 0.500010 0.500030 0.349010 1.040172
F1    F     F_    0.675492 0.327497 0.650575 -0.568445
C37   C     C_2   0.786884 0.715135 0.356699 0.584995
H5    H     H_    0.761703 0.771509 0.287667 0.082500
O13   O     O_2   0.836867 0.743585 0.373931 -0.539622
C38   C     C_2   0.433756 0.886252 0.289334 0.421770
H6    H     H_    0.425778 0.943465 0.200832 0.089475
O14   O     O_2   0.408954 0.786009 0.301315 -0.539446
F2    F     F_    0.535330 0.926947 0.577977 -0.651177
C39   C     C_2   0.444542 0.088945 0.628948 0.555051
H7    H     H_    0.451906 0.134469 0.722613 0.095533
O15   O     O_2   0.409933 0.003117 0.626550 -0.517633
F3    F     F_    0.527096 0.401287 0.904982 -0.559725
C40   C     C_2   0.548993 0.701377 0.116017 0.449151
H8    H     H_    0.546095 0.791822 0.065342 0.039302
O16   O     O_2   0.583255 0.687961 0.206185 -0.536421
C41   C     C_2   0.054639 0.380236 0.157344 0.498406
H9    H     H_    0.095383 0.333363 0.166337 0.142059
O17   O     O_2   0.030541 0.380015 0.049744 -0.557141
C42   C     C_2   0.455134 0.419344 0.110680 0.719941
H10   H     H_    0.456402 0.321890 0.142546 0.025371
O18   O     O_2   0.412753 0.458515 0.052626 -0.576621
C43   C     C_2   0.059535 0.634212 0.852012 0.650608
H11   H     H_    0.042029 0.619456 0.951008 0.123499
O19   O     O_2   0.100502 0.704434 0.837282 -0.493238
F4    F     F_    0.943149 0.620016 0.845365 -0.598089
C44   C     C_2   0.205186 0.727482 0.554049 0.610766
H12   H     H_    0.165265 0.745224 0.502351 0.052230
O20   O     O_2   0.220308 0.799090 0.640074 -0.459985
C45   C     C_2   0.332032 0.731917 0.537457 0.619769
H13   H     H_    0.373344 0.730453 0.586137 0.050821
O21   O     O_2   0.314969 0.831142 0.490524 -0.447427
C46   C     C_2   0.330371 0.268925 0.470036 0.508313
H14   H     H_    0.370329 0.268439 0.415601 0.021672
O22   O     O_2   0.314080 0.172155 0.525011 -0.458509
C47   C     C_2   0.203467 0.272963 0.455710 0.565775
H15   H     H_    0.162856 0.257579 0.505707 0.048015
O23   O     O_2   0.218808 0.197944 0.373680 -0.490771
F5    F     F_    0.791880 0.338475 0.651281 -0.574129

loop_
_geom_bond_atom_site_label_1
_geom_bond_atom_site_label_2
_ccdc_geom_bond_type
C45   H13   S    
C38   O14   D    
C47   H15   S    
C24   N1    S    
C10   N2    A    
C8    F4    S    
C18   F5    S    
C19   C20   A    
C25   C38   S    
C30   C40   S    
C23   O8    A    
C7    C8    A    
C42   H10   S    
O1    Zn1   S    
C16   C47   S    
C41   O17   D    
C18   C24   A    
C32   C36   A    
N4    C42   S    
C44   O20   D    
C18   C19   A    
C22   C37   S    
C5    C6    A    
C15   C16   A    
C37   O13   D    
C34   C35   A    
C8    C36   A    
C23   C26   S    
C3    C41   S    
C17   N2    S    
C21   H2    S    
C35   C36   A    
C27   H3    S    
C16   C17   A    
C1    C28   S    
C32   N1    A    
C2    C34   A    
C47   O23   D    
C13   C14   A    
C29   N3    D    
C33   O2    S    
C30   N4    D    
C23   O9    A    
C42   O18   D    
C41   H9    S    
C39   H7    S    
C26   F2    S    
C28   C39   S    
C44   H12   S    
C43   O19   D    
N4    Zn2   S    
C40   O16   D    
C43   H11   S    
C19   F1    S    
C25   C26   D    
O5    Zn2   S    
C37   H5    S    
C39   O15   D    
C29   C30   S    
C46   O22   D    
C13   C45   S    
C33   C34   A    
C9    N2    A    
O7    Zn2   S    
C12   C14   S    
C9    O3    S    
N3    F3    S    
C45   O21   D    
C10   O4    S    
C20   C31   S    
C22   C24   A    
C3    C4    A    
C12   O7    A    
C11   C17   A    
O6    Zn1   S    
C4    C5    A    
C6    C10   A    
C12   O6    A    
O9    Zn2   S    
C6    C7    A    
C11   C44   S    
C25   C27   S    
C33   N1    A    
C2    C3    A    
C40   H8    S    
C15   C46   S    
C11   C13   A    
C2    H1    S    
C1    O1    A    
C46   H14   S    
C5    C35   A    
C29   H4    S    
C31   O10   A    
O8    Zn1   S    
N3    Zn1   S    
C38   H6    S    
C20   C21   A    
O11   Zn2   S    
C27   C28   D    
C14   C15   A    
C31   O11   A    
C4    C9    A    
C21   C22   A    
C1    O5    A    
C32   O12   S    
C7    C43   S    
O10   Zn1   S    
