data_mof_unit_40069.cif
_audit_creation_date              2012-12-11T14:28:21-0500
_audit_creation_method            fapswitch 2.2
_symmetry_space_group_name_H-M    P1
_symmetry_Int_Tables_number       1
_space_group_crystal_system       triclinic
_cell_length_a                    11.128088
_cell_length_b                    19.7271
_cell_length_c                    18.688962
_cell_angle_alpha                 90.054024
_cell_angle_beta                  89.959683
_cell_angle_gamma                 89.946554
_cell_volume                      4102.68797663

loop_
_atom_site_label
_atom_site_type_symbol
_atom_type_description
_atom_site_fract_x
_atom_site_fract_y
_atom_site_fract_z
_atom_type_partial_charge
Br1   Br    Br    0.046776 0.622572 0.590562 -0.386758
Br2   Br    Br    0.029276 0.619687 0.908102 -0.402052
Br3   Br    Br    0.278079 0.369783 0.446426 -0.547324
Br4   Br    Br    0.280965 0.368588 0.053641 -0.547419
Br5   Br    Br    0.529086 0.119057 0.591439 -0.403512
Br6   Br    Br    0.529367 0.119661 0.908090 -0.403624
Br7   Br    Br    0.791170 0.865784 0.447257 -0.547218
Br8   Br    Br    0.780919 0.868609 0.053653 -0.547646
C1    C     C_R   0.315846 0.937958 0.637605 0.528870
C2    C     C_3   0.174564 0.702064 0.028792 0.020239
C3    C     C_3   0.062532 0.188452 0.966650 -0.004784
C4    C     C_3   0.627387 0.308294 0.460819 -0.012178
C5    C     C_3   0.627120 0.308732 0.039427 -0.011285
C6    C     C_3   0.563930 0.688636 0.532702 -0.005089
C7    C     C_3   0.562555 0.688449 0.966653 -0.004680
C8    C     C_3   0.228472 0.773340 0.499449 -0.213701
C9    C     C_3   0.216627 0.767953 0.992890 -0.202607
C10   C     C_3   0.194332 0.189350 0.508619 -0.198716
C11   C     C_3   0.194995 0.188879 0.991041 -0.197967
C12   C     C_3   0.716164 0.267197 0.507407 -0.200868
C13   C     C_3   0.212672 0.255924 0.550422 0.007224
C14   C     C_3   0.716616 0.267971 0.992894 -0.202254
C15   C     C_3   0.696940 0.687077 0.508947 -0.198007
C16   C     C_3   0.695018 0.688889 0.991042 -0.198025
C17   C     C_3   0.137154 0.763058 0.560560 0.023165
C18   C     C_3   0.116627 0.758258 0.936482 0.024494
C19   C     C_3   0.155999 0.232130 0.441977 -0.002190
C20   C     C_3   0.157026 0.231727 0.057844 -0.002652
C21   C     C_3   0.615781 0.257910 0.563723 0.026975
C22   C     C_3   0.616630 0.258254 0.936480 0.025943
C23   C     C_3   0.662092 0.730889 0.442337 -0.002668
C24   C     C_3   0.213492 0.255422 0.949279 0.007756
C25   C     C_3   0.657032 0.731723 0.057851 -0.002653
C26   C     C_3   0.040742 0.802454 0.518647 -0.106525
C27   C     C_3   0.028817 0.800446 0.981871 -0.109936
C28   C     C_3   0.023773 0.230141 0.466299 -0.133764
C29   C     C_3   0.024825 0.229920 0.033698 -0.135818
C30   C     C_3   0.528605 0.300377 0.518256 -0.111441
C31   C     C_3   0.528780 0.300424 0.981861 -0.109832
C32   C     C_3   0.529773 0.731229 0.465971 -0.135974
C33   C     C_3   0.524833 0.729900 0.033705 -0.135711
C34   C     C_3   0.000358 0.734834 0.485518 -0.109102
C35   C     C_3   0.673437 0.201485 0.471403 0.021618
C36   C     C_3   0.988477 0.733901 0.017293 -0.108370
C37   C     C_3   0.045335 0.297048 0.507191 -0.144396
C38   C     C_3   0.046563 0.296789 0.992939 -0.144535
C39   C     C_3   0.487705 0.233962 0.482718 -0.108795
C40   C     C_3   0.488477 0.233870 0.017282 -0.108291
C41   C     C_3   0.554339 0.797316 0.507405 -0.143916
C42   C     C_3   0.546540 0.796778 0.992958 -0.144571
C43   C     C_3   0.095975 0.695866 0.528041 0.170845
C44   C     C_3   0.076800 0.692480 0.971640 0.149746
C45   C     C_3   0.177898 0.297947 0.484281 0.146316
C46   C     C_3   0.674588 0.202072 0.028794 0.020401
C47   C     C_3   0.179200 0.297477 0.015613 0.145995
C48   C     C_3   0.575400 0.192302 0.528403 0.150085
C49   C     C_3   0.576839 0.192467 0.971635 0.150051
C50   C     C_3   0.686999 0.795905 0.485252 0.143680
C51   C     C_3   0.679177 0.797479 0.015629 0.146022
C52   C     C_2   0.156671 0.870830 0.409057 0.275685
C53   C     C_2   0.161215 0.867203 0.086044 0.268410
C54   C     C_2   0.010704 0.130301 0.574464 0.232955
C55   C     C_2   0.011677 0.129748 0.925418 0.230763
C56   C     C_2   0.662581 0.366520 0.414258 0.268093
C57   C     C_3   0.717843 0.753096 0.551554 0.002420
C58   C     C_2   0.661095 0.367211 0.086052 0.268826
C59   C     C_2   0.507706 0.630631 0.572436 0.226920
C60   C     C_2   0.511703 0.629751 0.925415 0.230557
C61   C     C_2   0.273757 0.656813 0.436258 0.191083
C62   C     C_2   0.263989 0.652297 0.055264 0.185563
C63   C     C_2   0.301661 0.270874 0.608357 0.261197
C64   C     C_2   0.302394 0.270352 0.891250 0.262026
C65   C     C_2   0.761298 0.150522 0.445624 0.189122
C66   C     C_2   0.764032 0.152319 0.055278 0.185571
C67   C     C_2   0.807803 0.766724 0.609267 0.267067
C68   C     C_3   0.713482 0.755439 0.949288 0.007577
C69   C     C_2   0.802378 0.770394 0.891272 0.261787
C70   C     C_3   0.090327 0.745343 0.424351 0.046656
C71   C     C_3   0.086373 0.743584 0.074341 0.049421
C72   C     C_3   0.081774 0.254693 0.572899 0.026507
C73   C     C_R   0.315686 0.937622 0.862327 0.537653
C74   C     C_3   0.082483 0.254412 0.926994 0.027152
C75   C     C_3   0.585952 0.243306 0.425795 0.049050
C76   C     C_3   0.586358 0.243577 0.074335 0.049425
C77   C     C_3   0.586248 0.753941 0.573313 0.027287
C78   C     C_3   0.582474 0.754416 0.927005 0.027111
C79   C     C_R   0.322537 0.037290 0.436523 -0.044458
C80   C     C_R   0.322006 0.037175 0.063360 -0.043293
C81   C     C_R   0.320469 0.960059 0.562493 -0.033837
C82   C     C_R   0.320067 0.959348 0.937620 -0.037492
C83   C     C_R   0.821395 0.537321 0.436760 -0.045389
C84   C     C_R   0.316395 0.061112 0.362398 0.501194
C85   C     C_R   0.822021 0.537177 0.063361 -0.043359
C86   C     C_R   0.820289 0.459700 0.562504 -0.038420
C87   C     C_R   0.820099 0.459355 0.937618 -0.037309
C88   C     C_R   0.546280 0.035552 0.439874 -0.056133
C89   C     C_R   0.545330 0.037208 0.058648 -0.054248
C90   C     C_R   0.541605 0.953482 0.556861 -0.058472
C91   C     C_R   0.541017 0.953201 0.943017 -0.055776
C92   C     C_R   0.044161 0.539862 0.442457 -0.054194
C93   C     C_R   0.045342 0.537200 0.058678 -0.054148
C94   C     C_R   0.041668 0.454476 0.557003 -0.056673
C95   C     C_R   0.316327 0.061088 0.137577 0.502081
C96   C     C_R   0.041074 0.453258 0.942994 -0.055796
C97   C     C_R   0.651277 0.010200 0.467607 -0.067904
C98   C     C_R   0.650574 0.013442 0.029550 -0.061073
C99   C     C_R   0.649143 0.973883 0.529829 -0.050704
C100  C     C_R   0.648461 0.976116 0.967909 -0.043744
C101  C     C_R   0.150060 0.517265 0.471647 -0.049897
C102  C     C_R   0.150594 0.513426 0.029610 -0.061179
C103  C     C_R   0.148747 0.478535 0.532325 -0.036908
C104  C     C_R   0.148510 0.476150 0.967933 -0.043984
C105  C     C_R   0.430893 0.975677 0.529095 0.021599
C106  C     C_R   0.815811 0.437745 0.637644 0.536631
C107  C     C_R   0.430351 0.975424 0.970802 0.020514
C108  C     C_R   0.432673 0.016446 0.467405 0.028110
C109  C     C_R   0.432011 0.016816 0.032060 0.027444
C110  C     C_R   0.930532 0.476512 0.529576 0.019710
C111  C     C_R   0.930388 0.475444 0.970795 0.020553
C112  C     C_R   0.931506 0.518109 0.468565 0.024060
C113  C     C_R   0.932032 0.516820 0.032066 0.027414
C114  C     C_R   0.211479 0.977412 0.528374 -0.003340
C115  C     C_R   0.211029 0.976645 0.971782 -0.002880
C116  C     C_R   0.212777 0.022890 0.471534 -0.002365
C117  C     C_R   0.815694 0.437626 0.862327 0.537302
C118  C     C_R   0.212206 0.022344 0.028575 0.002785
C119  C     C_R   0.711004 0.476454 0.528307 -0.002814
C120  C     C_R   0.711064 0.476641 0.971785 -0.002896
C121  C     C_R   0.711583 0.521860 0.471320 0.003825
C122  C     C_R   0.712231 0.522346 0.028572 0.002723
C123  C     C_R   0.099290 0.951022 0.550055 -0.100950
C124  C     C_R   0.099039 0.949724 0.950379 -0.099178
C125  C     C_R   0.101567 0.049866 0.448240 -0.070409
C126  C     C_R   0.100973 0.049233 0.051938 -0.069648
C127  C     C_R   0.599293 0.449185 0.549838 -0.100240
C128  C     C_R   0.816160 0.561112 0.362465 0.502354
C129  C     C_R   0.599082 0.449708 0.950388 -0.099274
C130  C     C_R   0.599886 0.547958 0.447727 -0.069734
C131  C     C_R   0.600995 0.549236 0.051927 -0.069604
C132  C     C_R   0.993167 0.972175 0.519751 -0.079290
C133  C     C_R   0.992737 0.970966 0.980794 -0.078883
C134  C     C_R   0.994687 0.020409 0.466947 -0.038365
C135  C     C_R   0.994250 0.019492 0.033454 -0.039652
C136  C     C_R   0.492786 0.469603 0.519247 -0.081118
C137  C     C_R   0.492776 0.470957 0.980787 -0.078934
C138  C     C_R   0.493769 0.517344 0.465948 -0.039752
C139  C     C_R   0.816329 0.561089 0.137578 0.501937
C140  C     C_R   0.494276 0.519498 0.033434 -0.039529
C141  C     C_R   0.174953 0.769168 0.636037 0.565739
C142  C     C_R   0.145480 0.761570 0.859883 0.614986
C143  C     C_R   0.183817 0.228565 0.363621 0.531230
C144  C     C_R   0.184165 0.228431 0.136370 0.531183
C145  C     C_R   0.644708 0.261314 0.640323 0.612528
C146  C     C_R   0.645480 0.261569 0.859882 0.611178
C147  C     C_R   0.686087 0.728030 0.363312 0.532997
C148  C     C_R   0.684172 0.728429 0.136373 0.531005
C149  C     C_R   0.539463 0.771588 0.644035 0.544190
C150  C     C_3   0.185792 0.705970 0.466376 0.016872
C151  C     C_R   0.538244 0.771901 0.856149 0.549089
C152  C     C_R   0.545248 0.230093 0.353210 0.574471
C153  C     C_R   0.545359 0.230131 0.146836 0.574064
C154  C     C_R   0.038027 0.271977 0.643829 0.549608
C155  C     C_R   0.038256 0.271896 0.856136 0.549192
C156  C     C_R   0.045093 0.730157 0.353178 0.572200
C157  C     C_R   0.045366 0.730133 0.146840 0.574240
C158  C     C_3   0.131155 0.811746 0.456668 -0.006181
C159  C     C_3   0.127170 0.808731 0.039432 -0.010854
C160  C     C_3   0.061925 0.188752 0.533167 -0.004205
Cr1   Cr    Cr6+3 0.488160 0.884660 0.750000 1.032596
Cr2   Cr    Cr6+3 0.333410 0.272740 0.250000 1.159545
Cr3   Cr    Cr6+3 0.833410 0.227260 0.750000 1.156999
Cr4   Cr    Cr6+3 0.833410 0.772740 0.250000 1.159895
Cr5   Cr    Cr6+3 0.488160 0.115340 0.250000 1.060637
Cr6   Cr    Cr6+3 0.988160 0.384660 0.750000 1.034879
Cr7   Cr    Cr6+3 0.988160 0.615340 0.250000 1.063746
Cr8   Cr    Cr6+3 0.173480 0.883120 0.750000 1.015824
Cr9   Cr    Cr6+3 0.173480 0.116880 0.250000 1.082620
Cr10  Cr    Cr6+3 0.673480 0.383120 0.750000 1.014476
Cr11  Cr    Cr6+3 0.673480 0.616880 0.250000 1.083558
Cr12  Cr    Cr6+3 0.333410 0.727260 0.750000 1.156964
H1    H     H_    0.320004 0.791082 0.509582 0.087645
H2    H     H_    0.910656 0.949577 0.962398 0.128935
H3    H     H_    0.915137 0.037174 0.441041 0.141774
H4    H     H_    0.914868 0.036006 0.059812 0.141485
H5    H     H_    0.410945 0.447873 0.537711 0.129068
H6    H     H_    0.410703 0.449563 0.962386 0.128892
H7    H     H_    0.414433 0.532032 0.438473 0.139601
H8    H     H_    0.414890 0.536025 0.059775 0.141479
H9    H     H_    0.974601 0.837398 0.541523 0.135385
H10   H     H_    0.965646 0.837865 0.960828 0.132463
H11   H     H_    0.949708 0.222829 0.428098 0.185146
H12   H     H_    0.308716 0.782654 0.978020 0.096817
H13   H     H_    0.951305 0.223127 0.072373 0.183757
H14   H     H_    0.464985 0.337707 0.539014 0.131915
H15   H     H_    0.465611 0.337838 0.960794 0.132437
H16   H     H_    0.457534 0.726969 0.426209 0.179523
H17   H     H_    0.451309 0.723081 0.072370 0.183967
H18   H     H_    0.909516 0.717003 0.473440 0.119386
H19   H     H_    0.898986 0.718557 0.035002 0.114770
H20   H     H_    0.980739 0.339405 0.504490 0.097891
H21   H     H_    0.981926 0.339057 0.996292 0.098373
H22   H     H_    0.398157 0.219066 0.464763 0.114712
H23   H     H_    0.259217 0.147145 0.512039 0.139899
H24   H     H_    0.398997 0.218496 0.034989 0.114812
H25   H     H_    0.493507 0.841006 0.502687 0.102590
H26   H     H_    0.481896 0.839036 0.996332 0.098319
H27   H     H_    0.733456 0.018968 0.440093 0.147877
H28   H     H_    0.732875 0.023457 0.055995 0.143809
H29   H     H_    0.729236 0.957140 0.555979 0.131551
H30   H     H_    0.728912 0.960216 0.941248 0.129759
H31   H     H_    0.232105 0.530054 0.446643 0.133368
H32   H     H_    0.232874 0.523395 0.056114 0.143971
H33   H     H_    0.229711 0.463635 0.559018 0.130345
H34   H     H_    0.259666 0.146566 0.987457 0.139240
H35   H     H_    0.228972 0.460263 0.941276 0.129688
H36   H     H_    0.560130 0.073609 0.400722 0.191496
H37   H     H_    0.558266 0.075354 0.097816 0.189975
H38   H     H_    0.549895 0.915817 0.595893 0.172562
H39   H     H_    0.548843 0.914604 0.904966 0.170751
H40   H     H_    0.055287 0.578633 0.403989 0.184449
H41   H     H_    0.058282 0.575334 0.097853 0.189845
H42   H     H_    0.050239 0.415627 0.594893 0.169679
H43   H     H_    0.048956 0.414696 0.904906 0.170754
H44   H     H_    0.094999 0.093413 0.414141 0.161677
H45   H     H_    0.808354 0.281522 0.522399 0.098299
H46   H     H_    0.094292 0.092895 0.085988 0.160292
H47   H     H_    0.091307 0.911471 0.588724 0.151286
H48   H     H_    0.091847 0.909542 0.912211 0.151862
H49   H     H_    0.592324 0.591543 0.413624 0.159579
H50   H     H_    0.594310 0.592899 0.085976 0.160246
H51   H     H_    0.592438 0.409093 0.588037 0.153171
H52   H     H_    0.591905 0.409513 0.912233 0.152147
H53   H     H_    0.247679 0.889936 0.404454 0.109555
H54   H     H_    0.253868 0.884110 0.087772 0.106046
H55   H     H_    0.071049 0.091778 0.594895 0.149093
H56   H     H_    0.808702 0.282698 0.978039 0.096850
H57   H     H_    0.072135 0.090854 0.905785 0.148995
H58   H     H_    0.755289 0.383376 0.413145 0.106390
H59   H     H_    0.753758 0.384110 0.087845 0.106329
H60   H     H_    0.564967 0.590776 0.593132 0.147553
H61   H     H_    0.572156 0.590868 0.905767 0.148894
H62   H     H_    0.324399 0.626074 0.472200 0.144393
H63   H     H_    0.309247 0.621118 0.017112 0.153462
H64   H     H_    0.321584 0.323034 0.622290 0.105300
H65   H     H_    0.322630 0.322501 0.877554 0.105048
H66   H     H_    0.801862 0.117732 0.484101 0.155294
H67   H     H_    0.760756 0.644490 0.512953 0.138153
H68   H     H_    0.809369 0.121178 0.017135 0.153639
H69   H     H_    0.829287 0.818569 0.623653 0.108161
H70   H     H_    0.822679 0.822545 0.877648 0.105114
H71   H     H_    0.759705 0.646584 0.987464 0.139149
H72   H     H_    0.911357 0.951026 0.538685 0.130446
O1    O     O_R   0.575450 0.828820 0.667950 -0.568836
O2    O     O_R   0.416860 0.942890 0.825320 -0.467061
O3    O     O_R   0.416860 0.057110 0.325320 -0.502706
O4    O     O_R   0.416860 0.057110 0.174680 -0.501178
O5    O     O_R   0.916860 0.442890 0.674680 -0.469327
O6    O     O_R   0.916860 0.442890 0.825320 -0.468065
O7    O     O_R   0.916860 0.557110 0.325320 -0.498770
O8    O     O_R   0.916860 0.557110 0.174680 -0.500648
O9    O     O_R   0.213790 0.953680 0.668330 -0.502607
O10   O     O_R   0.213790 0.953680 0.831670 -0.499927
O11   O     O_R   0.213790 0.046320 0.331670 -0.471945
O12   O     O_R   0.575450 0.828820 0.832050 -0.569120
O13   O     O_R   0.213790 0.046320 0.168330 -0.469294
O14   O     O_R   0.713790 0.453680 0.668330 -0.500375
O15   O     O_R   0.713790 0.453680 0.831670 -0.500090
O16   O     O_R   0.713790 0.546320 0.331670 -0.469490
O17   O     O_R   0.713790 0.546320 0.168330 -0.469029
O18   O     O_R   0.121360 0.817890 0.672660 -0.531618
O19   O     O_R   0.121360 0.817890 0.827340 -0.546935
O20   O     O_R   0.121360 0.182110 0.327340 -0.513339
O21   O     O_R   0.121360 0.182110 0.172660 -0.513730
O22   O     O_R   0.621360 0.317890 0.672660 -0.549824
O23   O     O_R   0.575450 0.171180 0.332050 -0.501958
O24   O     O_R   0.621360 0.317890 0.827340 -0.549530
O25   O     O_R   0.621360 0.682110 0.327340 -0.512487
O26   O     O_R   0.621360 0.682110 0.172660 -0.513169
O27   O     O_R   0.206850 0.711370 0.665820 -0.392336
O28   O     O_R   0.206850 0.711370 0.834180 -0.414113
O29   O     O_R   0.206850 0.288630 0.334180 -0.418462
O30   O     O_R   0.206850 0.288630 0.165820 -0.418143
O31   O     O_R   0.706850 0.211370 0.665820 -0.416757
O32   O     O_R   0.706850 0.211370 0.834180 -0.416389
O33   O     O_R   0.706850 0.788630 0.334180 -0.419212
O34   O     O_R   0.575450 0.171180 0.167950 -0.501231
O35   O     O_R   0.706850 0.788630 0.165820 -0.418545
O36   O     O_R   0.457710 0.733190 0.672630 -0.466236
O37   O     O_R   0.457710 0.733190 0.827370 -0.458206
O38   O     O_R   0.457710 0.266810 0.327370 -0.463963
O39   O     O_R   0.457710 0.266810 0.172630 -0.463741
O40   O     O_R   0.957710 0.233190 0.672630 -0.458390
O41   O     O_R   0.957710 0.233190 0.827370 -0.457549
O42   O     O_R   0.957710 0.766810 0.327370 -0.461198
O43   O     O_R   0.957710 0.766810 0.172630 -0.463963
O44   O     O_3   0.331690 0.831680 0.750000 -0.373265
O45   O     O_R   0.075450 0.328820 0.667950 -0.568655
O46   O     O_3   0.331690 0.168320 0.250000 -0.394698
O47   O     O_3   0.831690 0.331680 0.750000 -0.363893
O48   O     O_3   0.831690 0.668320 0.250000 -0.396648
O49   O     O_2   0.076487 0.896366 0.373681 -0.410787
O50   O     O_2   0.086180 0.894572 0.123943 -0.413163
O51   O     O_2   0.904809 0.128293 0.590938 -0.498425
O52   O     O_2   0.906151 0.127827 0.908144 -0.497545
O53   O     O_2   0.588448 0.393769 0.375762 -0.414002
O54   O     O_2   0.585985 0.394592 0.123896 -0.412708
O55   O     O_2   0.401079 0.630396 0.587443 -0.497403
O56   O     O_R   0.075450 0.328820 0.832050 -0.569503
O57   O     O_2   0.406176 0.627821 0.908161 -0.497961
O58   O     O_2   0.294405 0.653514 0.372227 -0.478903
O59   O     O_2   0.289208 0.647674 0.118592 -0.490948
O60   O     O_2   0.343481 0.225070 0.644310 -0.419433
O61   O     O_2   0.343644 0.224586 0.854908 -0.418197
O62   O     O_2   0.789484 0.146336 0.382666 -0.495490
O63   O     O_2   0.789189 0.147670 0.118610 -0.492709
O64   O     O_2   0.849178 0.720182 0.644351 -0.405820
O65   O     O_2   0.843515 0.724665 0.854848 -0.417201
O66   O     O_R   0.075450 0.671180 0.332050 -0.502934
O67   O     O_R   0.075450 0.671180 0.167950 -0.500017
O68   O     O_R   0.416860 0.942890 0.674680 -0.467503

loop_
_geom_bond_atom_site_label_1
_geom_bond_atom_site_label_2
_ccdc_geom_bond_type
C145  O31   A    
C10   C13   S    
C146  O32   A    
C26   C34   S    
C61   O58   D    
Cr6   O5    S    
C25   C148  S    
C37   H20   S    
C116  C125  A    
C54   O51   D    
C85   C113  A    
C143  O29   A    
C98   H28   S    
C79   C116  A    
C64   O61   D    
Cr10  O24   S    
C28   H11   S    
C59   H60   S    
C28   C160  S    
C104  H35   S    
C139  O8    A    
C3    C29   S    
C123  C132  A    
C126  C135  A    
Cr5   O23   S    
C151  O12   A    
C38   C47   S    
C10   H23   S    
C39   C75   S    
C147  O33   A    
C96   H43   S    
C56   H58   S    
C17   C26   S    
C136  H5    S    
C92   C101  A    
C25   C51   S    
C95   O4    A    
C94   C103  A    
C11   C24   S    
C156  O42   A    
C36   C71   S    
C81   C105  A    
C8    C150  S    
C138  H7    S    
C34   H18   S    
Cr2   O29   S    
C157  O43   A    
Cr2   O39   S    
C16   C68   S    
C115  C118  A    
C87   C111  A    
C93   C102  A    
C31   H15   S    
C15   C23   S    
Cr9   O13   S    
C4    C12   S    
C152  O23   A    
Br1   C43   S    
Br2   C44   S    
C73   C82   S    
Cr8   O10   S    
C27   H10   S    
C90   H38   S    
Cr9   O46   S    
C60   O57   D    
C42   C51   S    
C85   C122  A    
Cr9   O20   S    
C62   O59   D    
C137  C140  A    
C94   H42   S    
C8    C17   S    
C153  O39   A    
C16   H71   S    
C52   H53   S    
C103  H33   S    
C119  C127  A    
C152  O38   A    
C55   H57   S    
C100  H30   S    
C19   C45   S    
C83   C121  A    
C140  H8    S    
C88   H36   S    
C135  H4    S    
C133  C135  A    
Cr9   O11   S    
C58   O54   D    
Cr5   O3    S    
C37   C72   S    
C95   O13   A    
C89   C109  A    
C61   H62   S    
C110  C112  A    
C41   C50   S    
C84   O3    A    
C18   C27   S    
C22   C146  S    
C118  C126  A    
C88   C108  A    
C69   H70   S    
C71   C159  S    
C101  H31   S    
C72   C160  S    
C76   C153  S    
Cr4   O43   S    
C35   C65   S    
C54   C160  S    
C115  C124  A    
C35   C75   S    
C82   C115  A    
Cr12  O28   S    
C151  O37   A    
C40   C49   S    
C14   C46   S    
C59   O55   D    
C86   C119  A    
C91   C100  A    
C97   C99   A    
C5    C76   S    
C125  C134  A    
C63   H64   S    
C3    C55   S    
C101  C103  A    
Br8   C51   S    
C4    C56   S    
C81   C114  A    
C32   C41   S    
C125  H44   S    
C17   C141  S    
Cr2   O46   S    
C38   C74   S    
C87   C120  A    
C70   C150  S    
C38   H21   S    
C83   C128  S    
C21   C30   S    
C6    C59   S    
Cr10  O47   S    
C78   C151  S    
C24   C47   S    
C96   C111  A    
Cr11  O16   S    
C36   C44   S    
Cr7   O66   S    
C37   C45   S    
C55   O52   D    
C46   C66   S    
C117  O15   A    
C129  H52   S    
C144  O30   A    
C149  O36   A    
C5    C58   S    
C111  C113  A    
C3    C74   S    
C131  C140  A    
C75   C152  S    
Cr1   O1    S    
C33   H17   S    
C96   C104  A    
C117  O6    A    
C39   H22   S    
C119  C121  A    
C148  O26   A    
C62   H63   S    
C1    O68   A    
C66   H68   S    
C50   C57   S    
C60   H61   S    
C71   C157  S    
C146  O24   A    
C11   C20   S    
C72   C154  S    
C42   H26   S    
C7    C16   S    
C14   H56   S    
C114  C116  A    
Cr3   O32   S    
Cr1   O44   S    
C114  C123  A    
C153  O34   A    
C124  C133  A    
C54   H55   S    
C14   C22   S    
C102  H32   S    
Cr6   O6    S    
Cr10  O14   S    
C20   C144  S    
C24   C74   S    
C40   H24   S    
C128  O16   A    
C15   C57   S    
C65   O62   D    
C147  O25   A    
C26   C158  S    
Br3   C45   S    
C98   C100  A    
C20   C29   S    
C130  C138  A    
C22   C31   S    
C141  O27   A    
C15   H67   S    
C106  O5    A    
C102  C104  A    
C92   H40   S    
C63   O60   D    
C148  O35   A    
Cr8   O19   S    
C39   C48   S    
C46   C49   S    
C88   C97   A    
Br5   C48   S    
C132  H72   S    
C2    C44   S    
C80   C95   S    
C46   C76   S    
Cr9   O21   S    
C24   C64   S    
Cr4   O42   S    
C3    C11   S    
C13   C63   S    
C129  C137  A    
Cr2   O30   S    
C132  C134  A    
C154  O40   A    
C144  O21   A    
C124  H48   S    
C91   C107  A    
C143  O20   A    
C22   C49   S    
C23   C32   S    
C155  O56   A    
Cr5   O34   S    
Cr11  O26   S    
C107  C109  A    
Cr7   O8    S    
Cr3   O40   S    
C134  H3    S    
C127  H51   S    
C79   C84   S    
Cr12  O44   S    
Br6   C49   S    
C77   C149  S    
C122  C131  A    
C155  O41   A    
Cr11  O17   S    
C9    H12   S    
Cr7   O67   S    
C70   C158  S    
Cr6   O56   S    
C18   C142  S    
C7    C33   S    
C136  C138  A    
C66   O63   D    
C1    C81   S    
Cr3   O47   S    
C8    H1    S    
C90   C105  A    
C65   H66   S    
C93   C113  A    
C53   O50   D    
C30   H14   S    
C4    C75   S    
C53   C159  S    
C64   H65   S    
C18   C44   S    
C130  H49   S    
C69   O65   D    
Cr5   O46   S    
C128  O7    A    
Cr7   O48   S    
C82   C107  A    
C56   O53   D    
C79   C108  A    
C154  O45   A    
C7    C78   S    
C89   C98   A    
C2    C62   S    
C91   H39   S    
Br4   C47   S    
C89   H37   S    
C68   C78   S    
C33   C42   S    
C93   H41   S    
C19   C143  S    
C120  C122  A    
C142  O19   A    
C141  O18   A    
C23   C147  S    
C2    C71   S    
Cr2   O38   S    
C99   H29   S    
C21   C48   S    
C19   C28   S    
C43   C150  S    
C16   C25   S    
Cr12  O37   S    
C25   C33   S    
C106  O14   A    
C139  O17   A    
Cr4   O33   S    
C13   C72   S    
C5    C14   S    
C142  O28   A    
C84   O11   A    
C90   C99   A    
C123  H47   S    
Cr8   O9    S    
C2    C9    S    
C29   C38   S    
C67   H69   S    
C29   H13   S    
C31   C40   S    
Cr4   O48   S    
C70   C156  S    
C58   H59   S    
C86   C110  A    
Cr8   O44   S    
C86   C106  S    
Cr8   O18   S    
C52   O49   D    
C9    C18   S    
C126  H46   S    
C23   C50   S    
Cr11  O48   S    
C74   C155  S    
Cr5   O4    S    
Cr6   O47   S    
C133  H2    S    
C80   C118  A    
Cr1   O68   S    
C121  C130  A    
C8    C158  S    
C1    O9    A    
C27   C159  S    
C145  O22   A    
C92   C112  A    
C73   O2    A    
Br7   C50   S    
C67   O64   D    
C94   C110  A    
C34   C43   S    
C105  C108  A    
Cr10  O22   S    
C73   O10   A    
C53   H54   S    
Cr12  O27   S    
Cr3   O31   S    
C20   C47   S    
C97   H27   S    
C12   C21   S    
Cr3   O41   S    
C41   C77   S    
C68   C69   S    
C9    C159  S    
Cr4   O35   S    
C10   C160  S    
Cr10  O15   S    
Cr1   O12   S    
C12   H45   S    
C40   C76   S    
C6    C15   S    
Cr12  O36   S    
C120  C129  A    
C17   C43   S    
C149  O1    A    
C87   C117  S    
C61   C150  S    
C28   C37   S    
C27   C36   S    
C30   C39   S    
C156  O66   A    
C127  C136  A    
C157  O67   A    
C34   C70   S    
C12   C35   S    
C21   C145  S    
C32   H16   S    
Cr1   O2    S    
C26   H9    S    
C10   C19   S    
C6    C77   S    
C41   H25   S    
C57   C77   S    
C57   C67   S    
Cr6   O45   S    
C137  H6    S    
C11   H34   S    
C13   C45   S    
C7    C60   S    
C51   C68   S    
C85   C139  S    
C131  H50   S    
C4    C30   S    
C5    C31   S    
C42   C78   S    
C6    C32   S    
C35   C48   S    
Cr11  O25   S    
C36   H19   S    
C52   C158  S    
C83   C112  A    
C80   C109  A    
Cr7   O7    S    
