data_mof_unit_44829.cif
_audit_creation_date              2012-12-10T17:17:25-0500
_audit_creation_method            fapswitch 2.2
_symmetry_space_group_name_H-M    P1
_symmetry_Int_Tables_number       1
_space_group_crystal_system       triclinic
_cell_length_a                    27.621562
_cell_length_b                    13.002164
_cell_length_c                    11.740169
_cell_angle_alpha                 100.837336
_cell_angle_beta                  92.784722
_cell_angle_gamma                 91.290266
_cell_volume                      4134.12233261

loop_
_atom_site_label
_atom_site_type_symbol
_atom_type_description
_atom_site_fract_x
_atom_site_fract_y
_atom_site_fract_z
_atom_type_partial_charge
C1    C     C_R   0.500545 0.298538 0.478009 0.872737
C2    C     C_R   0.498385 0.700961 0.522505 0.860460
C3    C     C_R   0.100363 0.504916 0.468442 -0.052989
C4    C     C_R   0.897795 0.519743 0.452494 -0.056600
C5    C     C_R   0.121676 0.412427 0.488810 -0.016635
C6    C     C_R   0.876605 0.611105 0.509872 -0.027441
C7    C     C_R   0.092289 0.322618 0.486403 -0.146986
C8    C     C_R   0.905952 0.701058 0.551373 -0.145087
C9    C     C_R   0.129680 0.593902 0.466274 -0.051908
C10   C     C_R   0.868496 0.430871 0.405990 -0.048599
C11   C     C_R   0.354560 0.502985 0.505892 -0.159520
C12   C     C_R   0.645253 0.502783 0.498580 -0.149401
C13   C     C_R   0.970460 0.419317 0.408801 0.026842
C14   C     C_R   0.027581 0.606584 0.456112 0.026318
C15   C     C_R   0.977213 0.610227 0.474810 0.072807
C16   C     C_R   0.020846 0.415171 0.436288 0.072590
C17   C     C_R   0.948489 0.516614 0.444010 0.043050
C18   C     C_R   0.049579 0.508830 0.452498 0.042079
C19   C     C_R   0.940624 0.331400 0.353786 -0.023148
C20   C     C_R   0.057388 0.695160 0.446423 -0.017841
C21   C     C_R   0.890053 0.338547 0.353449 -0.229930
C22   C     C_R   0.107988 0.687486 0.452117 -0.227317
C23   C     C_R   0.407579 0.502098 0.501648 0.887734
C24   C     C_R   0.592340 0.499050 0.499085 0.912412
C25   C     C_R   0.042682 0.323327 0.458112 -0.123581
C26   C     C_R   0.955414 0.701230 0.532212 -0.123160
C27   C     C_R   0.492357 0.814730 0.537901 -0.217340
C28   C     C_R   0.500056 0.183331 0.466063 -0.197705
C29   C     C_R   0.486465 0.008780 0.345990 -0.043322
C30   C     C_R   0.493068 0.986239 0.658909 -0.067445
C31   C     C_R   0.494143 0.117510 0.355400 0.297404
C32   C     C_R   0.505157 0.880847 0.645637 0.383803
C33   C     C_R   0.505628 0.137878 0.566121 -0.030627
C34   C     C_R   0.471956 0.859455 0.446289 -0.056834
C35   C     C_R   0.492862 0.031750 0.558667 -0.012088
C36   C     C_R   0.482932 0.966491 0.448539 0.021958
C37   C     C_R   0.455693 0.397559 0.021997 -0.434918
C38   C     C_R   0.544033 0.600016 0.978230 -0.348797
C39   C     C_R   0.458011 0.409899 0.145571 0.591543
C40   C     C_R   0.543365 0.584868 0.856178 0.580709
C41   C     C_R   0.523189 0.534310 0.154074 0.589997
C42   C     C_R   0.476788 0.462554 0.842904 0.545687
C43   C     C_R   0.515434 0.536078 0.033510 -0.129454
C44   C     C_R   0.481745 0.465745 0.965876 -0.136491
C45   C     C_R   0.171896 0.413051 0.513399 0.555948
C46   C     C_R   0.826744 0.608621 0.527907 0.566921
C47   C     C_R   0.180275 0.585790 0.474192 0.635787
C48   C     C_R   0.818033 0.437175 0.411555 0.632458
C49   C     C_R   0.279788 0.568547 0.591270 0.364901
C50   C     C_R   0.725146 0.437573 0.537321 0.355042
C51   C     C_R   0.330613 0.578692 0.584887 -0.153067
C52   C     C_R   0.674132 0.424151 0.532745 -0.156459
C53   C     C_R   0.327763 0.422553 0.432399 -0.352455
C54   C     C_R   0.666928 0.590712 0.467858 -0.422521
C55   C     C_R   0.277276 0.415180 0.434323 0.435219
C56   C     C_R   0.717378 0.600812 0.463319 0.462007
C57   C     C_R   0.252843 0.491666 0.510219 0.172073
C58   C     C_R   0.746563 0.521487 0.493974 0.183323
Cu1   Cu    Cu3+1 0.503580 0.507730 0.615930 1.046866
Cu2   Cu    Cu3+1 0.496420 0.492270 0.384070 1.025420
H1    H     H_    0.346385 0.365683 0.372071 0.182030
H2    H     H_    0.643941 0.650471 0.443994 0.165556
H3    H     H_    0.433694 0.335857 0.968661 0.203977
H4    H     H_    0.568404 0.659213 0.029203 0.196830
H5    H     H_    0.107653 0.250904 0.503925 0.178788
H6    H     H_    0.890742 0.771946 0.597729 0.180811
H7    H     H_    0.867494 0.271291 0.311989 0.179772
H8    H     H_    0.130476 0.755043 0.444482 0.179575
H9    H     H_    0.021274 0.252894 0.459220 0.144962
H10   H     H_    0.976798 0.771470 0.568421 0.144541
N1    N     N_R   0.200641 0.496710 0.499490 -0.427829
N2    N     N_R   0.798065 0.523109 0.476890 -0.432793
N3    N     N_R   0.508960 0.519350 0.790140 -0.251948
N4    N     N_R   0.491040 0.480650 0.209860 -0.260185
O1    O     O_R   0.502540 0.354460 0.582000 -0.582522
O2    O     O_R   0.497460 0.645540 0.418000 -0.598440
O3    O     O_R   0.496500 0.341410 0.386200 -0.524100
O4    O     O_R   0.503500 0.658590 0.613800 -0.479632
O5    O     O_R   0.433290 0.506540 0.597890 -0.564239
O6    O     O_R   0.566710 0.493460 0.402110 -0.572355
O7    O     O_R   0.427240 0.493490 0.402090 -0.552403
O8    O     O_R   0.572760 0.506510 0.597910 -0.561054
O9    O     O_2   0.191566 0.331854 0.553195 -0.599375
O10   O     O_2   0.807436 0.689892 0.597942 -0.578470
O11   O     O_2   0.789168 0.357736 0.352589 -0.519023
O12   O     O_2   0.208837 0.666177 0.456188 -0.505235
O13   O     O_3   0.527187 0.840551 0.736220 -0.572362
C59   C     C_3   0.569168 0.901323 0.786000 0.093799
H11   H     H_    0.584908 0.862795 0.855272 0.181043
H12   H     H_    0.560156 0.980861 0.830889 0.125991
C60   C     C_3   0.608178 0.909286 0.698150 -0.380116
H13   H     H_    0.617816 0.829847 0.654645 0.207319
H14   H     H_    0.594139 0.950967 0.629724 0.236050
C61   C     C_3   0.653416 0.969932 0.757848 -0.874397
H15   H     H_    0.644669 0.052572 0.792103 0.290224
H16   H     H_    0.682116 0.969071 0.694820 0.251818
H17   H     H_    0.667859 0.934678 0.830943 0.239641
O14   O     O_3   0.497110 0.158721 0.255210 -0.623578
C62   C     C_3   0.546235 0.162069 0.226479 0.074824
H18   H     H_    0.561893 0.082782 0.215609 0.134631
H19   H     H_    0.568260 0.216449 0.295308 0.183760
C63   C     C_3   0.549275 0.201293 0.112082 -0.337747
H20   H     H_    0.525482 0.150946 0.043718 0.217669
H21   H     H_    0.536490 0.282628 0.123672 0.216151
C64   C     C_3   0.601064 0.200335 0.072326 -0.929976
H22   H     H_    0.625434 0.251014 0.138969 0.258954
H23   H     H_    0.601872 0.230701 0.990084 0.266275
H24   H     H_    0.614416 0.119187 0.056635 0.260467
C65   C     C_2   0.487436 0.941833 0.228321 0.431561
H25   H     H_    0.474390 0.971580 0.152412 0.094237
O15   O     O_2   0.505047 0.855328 0.214341 -0.552830
C66   C     C_2   0.475151 0.040370 0.771715 0.337519
H26   H     H_    0.479203 0.005250 0.848335 0.089187
O16   O     O_2   0.452496 0.120661 0.778616 -0.589962
O17   O     O_3   0.444786 0.391169 0.773071 -0.582691
C67   C     C_3   0.395741 0.416810 0.791740 0.057959
H27   H     H_    0.385748 0.485144 0.753054 0.158072
H28   H     H_    0.387630 0.438593 0.884545 0.117056
C68   C     C_3   0.363786 0.321555 0.735000 -0.313163
H29   H     H_    0.369742 0.302730 0.640438 0.222347
H30   H     H_    0.374376 0.253151 0.773665 0.259767
C69   C     C_3   0.310112 0.339800 0.751840 -0.930003
H31   H     H_    0.303357 0.362620 0.845549 0.260320
H32   H     H_    0.288725 0.266730 0.715286 0.276893
H33   H     H_    0.297878 0.401890 0.705432 0.249378
O18   O     O_3   0.566174 0.576704 0.211769 -0.575412
C70   C     C_3   0.605301 0.512299 0.170324 0.033987
H34   H     H_    0.597875 0.462426 0.082512 0.119017
H35   H     H_    0.613369 0.457360 0.229937 0.183237
C71   C     C_3   0.650930 0.579875 0.165074 -0.353694
H36   H     H_    0.643305 0.641217 0.113485 0.203890
H37   H     H_    0.662806 0.620454 0.252946 0.249572
C72   C     C_3   0.692418 0.513976 0.113491 -0.879015
H38   H     H_    0.701488 0.454014 0.166538 0.278413
H39   H     H_    0.725038 0.565326 0.112848 0.265507
H40   H     H_    0.682271 0.474513 0.022811 0.237334
O19   O     O_3   0.576156 0.639999 0.803216 -0.559241
C73   C     C_3   0.623835 0.606971 0.824866 0.029249
H41   H     H_    0.629058 0.527429 0.773333 0.162347
H42   H     H_    0.632022 0.603954 0.917471 0.120554
C74   C     C_3   0.660385 0.684224 0.791490 -0.337356
H43   H     H_    0.654194 0.687393 0.698327 0.225617
H44   H     H_    0.655260 0.762615 0.844673 0.218537
C75   C     C_3   0.712454 0.653794 0.812730 -0.905960
H45   H     H_    0.719622 0.647365 0.905011 0.258377
H46   H     H_    0.737751 0.714094 0.791310 0.284285
H47   H     H_    0.719028 0.578173 0.755931 0.249316
O20   O     O_3   0.427658 0.354705 0.206399 -0.566608
C76   C     C_3   0.406645 0.260051 0.141694 0.078873
H48   H     H_    0.400834 0.206660 0.203638 0.180668
H49   H     H_    0.431378 0.217496 0.078197 0.155687
C77   C     C_3   0.356864 0.278655 0.086052 -0.417261
H50   H     H_    0.331449 0.305301 0.155072 0.238368
H51   H     H_    0.359177 0.341675 0.034643 0.220967
C78   C     C_3   0.336189 0.178996 0.007178 -0.884024
H52   H     H_    0.360254 0.154220 0.934592 0.277135
H53   H     H_    0.299788 0.193849 0.970371 0.265981
H54   H     H_    0.332718 0.114749 0.056913 0.258833
O21   O     O_3   0.251471 0.338926 0.354497 -0.592727
C79   C     C_3   0.257768 0.238393 0.383127 0.128784
H55   H     H_    0.221110 0.201873 0.384547 0.204700
H56   H     H_    0.276116 0.239810 0.470494 0.143319
C80   C     C_3   0.285226 0.168051 0.290263 -0.440674
H57   H     H_    0.267889 0.169378 0.203160 0.252335
H58   H     H_    0.323318 0.197071 0.293185 0.211903
C81   C     C_3   0.285495 0.055251 0.309698 -0.828589
H59   H     H_    0.303076 0.051999 0.396045 0.267650
H60   H     H_    0.306199 0.006790 0.241664 0.270916
H61   H     H_    0.247874 0.022047 0.304604 0.258328
O22   O     O_3   0.738388 0.679154 0.414117 -0.589728
C82   C     C_3   0.723872 0.780766 0.465629 0.114043
H62   H     H_    0.757330 0.828447 0.497921 0.199968
H63   H     H_    0.701330 0.783244 0.542417 0.120951
C83   C     C_3   0.697482 0.832047 0.373940 -0.403295
H64   H     H_    0.719688 0.825985 0.296619 0.243637
H65   H     H_    0.662013 0.791032 0.346519 0.217125
C84   C     C_3   0.688247 0.947278 0.420055 -0.870170
H66   H     H_    0.662986 0.954705 0.491485 0.261250
H67   H     H_    0.671392 0.982663 0.349343 0.264276
H68   H     H_    0.722781 0.990988 0.451929 0.261807
C85   C     C_2   0.652646 0.324448 0.556059 0.384257
H69   H     H_    0.674441 0.272477 0.597873 0.118721
O23   O     O_2   0.610942 0.296339 0.524644 -0.586176
C86   C     C_2   0.356590 0.673036 0.655268 0.394360
H70   H     H_    0.340371 0.718048 0.730220 0.098077
O24   O     O_2   0.395353 0.705013 0.627776 -0.572961
O25   O     O_3   0.754524 0.360664 0.567576 -0.583942
C87   C     C_3   0.759830 0.371499 0.689831 0.011802
H71   H     H_    0.765288 0.292081 0.709354 0.178835
H72   H     H_    0.726906 0.400852 0.735224 0.105453
C88   C     C_3   0.804558 0.440647 0.738189 -0.350988
H73   H     H_    0.837158 0.407708 0.694599 0.229968
H74   H     H_    0.799997 0.520794 0.720603 0.232850
C89   C     C_3   0.812337 0.447764 0.869036 -0.864335
H75   H     H_    0.780362 0.482040 0.914235 0.255665
H76   H     H_    0.844780 0.498723 0.901571 0.266200
H77   H     H_    0.818205 0.368792 0.889400 0.259349
O26   O     O_3   0.255176 0.642084 0.666324 -0.578570
C90   C     C_3   0.257968 0.619283 0.779755 0.009279
H78   H     H_    0.257356 0.695055 0.841850 0.184092
H79   H     H_    0.292345 0.581929 0.801344 0.104429
C91   C     C_3   0.214153 0.551366 0.798529 -0.348270
H80   H     H_    0.180179 0.587815 0.773663 0.233617
H81   H     H_    0.216013 0.472709 0.743068 0.243544
C92   C     C_3   0.212980 0.538501 0.924909 -0.851392
H82   H     H_    0.246546 0.501574 0.951267 0.253092
H83   H     H_    0.181302 0.487581 0.935207 0.266340
H84   H     H_    0.209645 0.615875 0.982646 0.261301
C93   C     C_2   0.959676 0.235885 0.282539 0.346827
H85   H     H_    0.938541 0.162752 0.268219 0.078342
O27   O     O_2   0.997593 0.239003 0.233795 -0.513871
C94   C     C_2   0.038217 0.792100 0.414329 0.343148
H86   H     H_    0.059382 0.865094 0.437274 0.069956
O28   O     O_2   0.000179 0.790446 0.356390 -0.517257
C95   C     C_2   0.432304 0.802246 0.366189 0.501070
H87   H     H_    0.424654 0.719508 0.361407 0.095102
O29   O     O_2   0.404918 0.848962 0.310450 -0.562578
C96   C     C_2   0.533982 0.193648 0.671774 0.485378
H88   H     H_    0.518670 0.257091 0.731116 0.137980
O30   O     O_2   0.574610 0.165802 0.694759 -0.589442

loop_
_geom_bond_atom_site_label_1
_geom_bond_atom_site_label_2
_ccdc_geom_bond_type
C89   H76   S    
C82   H62   S    
C8    H6    S    
O18   C70   S    
C45   N1    A    
C63   H20   S    
C1    O3    A    
C14   C18   A    
C80   H57   S    
Cu1   O8    S    
O13   C59   S    
C66   O16   D    
C33   C96   S    
C86   H70   S    
C64   H23   S    
C29   C36   A    
C91   H81   S    
C30   C35   A    
C3    C18   A    
C87   C88   S    
C3    C9    A    
C29   C65   S    
C19   C21   A    
C34   C95   S    
C65   O15   D    
O21   C79   S    
C9    C22   A    
C39   N4    A    
C89   H77   S    
C78   H53   S    
O22   C82   S    
O17   C67   S    
C49   C57   A    
C67   H27   S    
C63   C64   S    
C87   H72   S    
C31   O14   S    
C11   C23   S    
C24   O8    A    
C83   H64   S    
C12   C52   A    
C41   N4    A    
C53   H1    S    
C24   O6    A    
C35   C36   A    
C67   H28   S    
C84   H67   S    
C91   C92   S    
C39   O20   S    
C90   C91   S    
C50   C52   A    
C77   C78   S    
O26   C90   S    
C56   C58   A    
C23   O7    A    
Cu1   N3    S    
C46   N2    A    
C11   C53   A    
C61   H16   S    
C68   H30   S    
C89   H75   S    
Cu1   Cu2   S    
C10   C21   A    
C38   C40   A    
C21   H7    S    
C78   H54   S    
C81   H60   S    
C41   C43   A    
C45   O9    S    
C42   C44   A    
C70   H35   S    
C48   N2    A    
C75   H47   S    
C50   O25   S    
Cu1   O4    S    
C66   H26   S    
C37   H3    S    
C38   H4    S    
C49   O26   S    
C53   C55   A    
C27   C34   A    
C8    C26   A    
C85   O23   D    
C82   C83   S    
C54   C56   A    
Cu2   O3    S    
C91   H80   S    
C13   C19   A    
C88   H73   S    
C50   C58   A    
C47   O12   S    
C14   C20   A    
C80   C81   S    
C52   C85   S    
C75   H46   S    
C51   C86   S    
C76   C77   S    
Cu1   O5    S    
C60   H13   S    
C5    C7    A    
C15   C26   A    
C6    C8    A    
C54   H2    S    
C61   H17   S    
C49   C51   A    
C85   H69   S    
C32   O13   S    
C5    C45   A    
C60   H14   S    
Cu2   O2    S    
C30   C66   S    
C87   H71   S    
C74   H44   S    
C79   H56   S    
C71   H37   S    
C43   C44   A    
C88   H74   S    
C2    O4    A    
C40   N3    A    
C55   O21   S    
C1    C28   S    
C82   H63   S    
Cu2   O7    S    
C96   O30   D    
C62   H18   S    
C14   C15   A    
C59   C60   S    
C84   H68   S    
C22   H8    S    
C40   O19   S    
C93   H85   S    
C16   C18   A    
C64   H24   S    
C57   N1    S    
C63   H21   S    
C83   C84   S    
C47   N1    A    
C2    C27   S    
C1    O1    A    
C73   H42   S    
C84   H66   S    
C72   H40   S    
C46   O10   S    
C4    C17   A    
C4    C6    A    
C62   H19   S    
C77   H51   S    
C28   C33   A    
C9    C47   A    
C55   C57   A    
C10   C48   A    
C72   H38   S    
C26   H10   S    
C74   C75   S    
C71   C72   S    
C25   H9    S    
C20   C22   A    
C69   H32   S    
C70   H34   S    
Cu1   O1    S    
C2    O2    A    
C90   H79   S    
O19   C73   S    
C92   H84   S    
C16   C25   A    
C15   C17   A    
C92   H82   S    
Cu2   O6    S    
C42   N3    A    
C6    C46   A    
C56   O22   S    
C27   C32   A    
C19   C93   S    
C68   C69   S    
C41   O18   S    
C28   C31   A    
C59   H12   S    
C75   H45   S    
C3    C5    A    
C73   C74   S    
C68   H29   S    
C64   H22   S    
C12   C24   S    
C7    H5    S    
C7    C25   A    
C67   C68   S    
C13   C17   A    
C79   H55   S    
C69   H33   S    
C76   H49   S    
C71   H36   S    
C70   C71   S    
C38   C43   A    
C37   C39   A    
C76   H48   S    
C60   C61   S    
C30   C32   A    
C58   N2    S    
C96   H88   S    
C81   H59   S    
C37   C44   A    
Cu2   N4    S    
C33   C35   A    
C86   O24   D    
C34   C36   A    
O20   C76   S    
C20   C94   S    
C95   H87   S    
C61   H15   S    
C83   H65   S    
C88   C89   S    
C95   O29   D    
C11   C51   A    
C73   H41   S    
C94   O28   D    
C42   O17   S    
C90   H78   S    
C62   C63   S    
C59   H11   S    
C81   H61   S    
C29   C31   A    
O14   C62   S    
C13   C16   A    
C65   H25   S    
C78   H52   S    
C72   H39   S    
C93   O27   D    
C48   O11   S    
C80   H58   S    
O25   C87   S    
C77   H50   S    
C23   O5    A    
C69   H31   S    
C74   H43   S    
C92   H83   S    
C4    C10   A    
C12   C54   A    
C94   H86   S    
C79   C80   S    
