data_mof_unit_57309.cif
_audit_creation_date              2012-12-11T15:41:19-0500
_audit_creation_method            fapswitch 2.2
_symmetry_space_group_name_H-M    P1
_symmetry_Int_Tables_number       1
_space_group_crystal_system       triclinic
_cell_length_a                    14.998903
_cell_length_b                    15.039314
_cell_length_c                    14.985636
_cell_angle_alpha                 108.904347
_cell_angle_beta                  109.341328
_cell_angle_gamma                 109.650628
_cell_volume                      2618.59960205

loop_
_atom_site_label
_atom_site_type_symbol
_atom_type_description
_atom_site_fract_x
_atom_site_fract_y
_atom_site_fract_z
_atom_type_partial_charge
C1    C     C_R   0.247728 0.061694 0.969869 -0.010632
C2    C     C_R   0.815596 0.837788 0.245600 0.468606
C3    C     C_R   0.307176 0.197670 0.672664 -0.312287
C4    C     C_R   0.723630 0.736263 0.169286 -0.329562
C5    C     C_R   0.309771 0.282258 0.751001 0.050383
C6    C     C_R   0.715473 0.675654 0.070536 0.006586
C7    C     C_R   0.214639 0.267323 0.756635 -0.233208
C8    C     C_R   0.806459 0.709258 0.056011 -0.147444
C9    C     C_R   0.119856 0.166601 0.689278 -0.236489
C10   C     C_R   0.902054 0.806607 0.136523 -0.266071
C11   C     C_R   0.118801 0.080685 0.614885 0.543616
C12   C     C_R   0.802834 0.004392 0.095733 -0.033324
C13   C     C_R   0.906301 0.872450 0.230402 0.445462
C14   C     C_R   0.419192 0.481001 0.843042 -0.203387
C15   C     C_R   0.605540 0.481716 0.964403 -0.203352
C16   C     C_R   0.760463 0.224383 0.314568 0.477962
C17   C     C_R   0.198877 0.792014 0.701286 0.423816
C18   C     C_R   0.513795 0.579627 0.923427 0.063744
C19   C     C_R   0.505791 0.385475 0.902155 0.036829
C20   C     C_R   0.610563 0.579127 0.980894 0.099283
C21   C     C_R   0.413541 0.383301 0.832132 0.094977
C22   C     C_R   0.942011 0.501767 0.409869 -0.115396
C23   C     C_R   0.784843 0.325226 0.322386 -0.076512
C24   C     C_R   0.958937 0.538507 0.611838 -0.094826
C25   C     C_R   0.030112 0.591406 0.501817 -0.071873
C26   C     C_R   0.869226 0.447296 0.518278 -0.080835
C27   C     C_R   0.039838 0.608865 0.602715 0.151843
C28   C     C_R   0.863383 0.427734 0.418012 0.147345
C29   C     C_R   0.581462 0.919461 0.555616 -0.046823
C30   C     C_R   0.394186 0.878401 0.387155 -0.059828
C31   C     C_R   0.580482 0.914155 0.460800 -0.126659
C32   C     C_R   0.394571 0.881371 0.479311 -0.144232
C33   C     C_R   0.488640 0.900662 0.379279 0.132619
C34   C     C_R   0.140389 0.696423 0.695805 -0.042564
C35   C     C_R   0.491186 0.912531 0.568191 0.121854
C36   C     C_R   0.025762 0.966311 0.970553 0.386533
C37   C     C_R   0.061526 0.144924 0.146361 0.429105
C38   C     C_R   0.937866 0.971480 0.976575 0.377527
C39   C     C_R   0.150276 0.139591 0.140598 0.397223
C40   C     C_R   0.406116 0.898649 0.202630 0.406101
C41   C     C_R   0.590637 0.032743 0.774925 0.467031
C42   C     C_R   0.956769 0.061169 0.063806 -0.359706
C43   C     C_R   0.131087 0.050766 0.052406 -0.366916
C44   C     C_R   0.590475 0.296011 0.991473 -0.103876
C45   C     C_R   0.494251 0.928216 0.296278 -0.078126
C46   C     C_R   0.411284 0.686085 0.939443 -0.062489
C47   C     C_R   0.586797 0.991979 0.297956 -0.099594
C48   C     C_R   0.409073 0.931944 0.688471 -0.148573
C49   C     C_R   0.409584 0.209369 0.905881 -0.104080
C50   C     C_R   0.592054 0.781859 0.018592 -0.091674
C51   C     C_R   0.749152 0.312782 0.219477 -0.170762
C52   C     C_R   0.200017 0.697247 0.788625 -0.156010
C53   C     C_R   0.248946 0.970901 0.063088 -0.026312
C54   C     C_R   0.804164 0.095277 0.005440 -0.011579
C55   C     C_R   0.219624 0.043022 0.043454 0.206820
C56   C     C_R   0.498982 0.952113 0.674500 -0.066105
C57   C     C_R   0.864331 0.064417 0.065810 0.228578
C58   C     C_R   0.500440 0.299352 0.930439 0.066777
C59   C     C_R   0.505086 0.678307 0.953796 0.036106
C60   C     C_R   0.212001 0.097006 0.604476 0.491929
Cl1   Cl    Cl    0.213317 0.992717 0.509318 -0.546123
Cl2   Cl    Cl    0.715194 0.122089 0.794124 -0.675094
Cl3   Cl    Cl    0.001829 0.952761 0.540598 -0.408744
Cl4   Cl    Cl    0.020380 0.002712 0.320360 -0.495124
Cl5   Cl    Cl    0.806217 0.925781 0.347881 -0.553829
Cl6   Cl    Cl    0.003227 0.853867 0.859799 -0.524284
Cl7   Cl    Cl    0.080753 0.255109 0.255852 -0.497128
Cl8   Cl    Cl    0.827033 0.202157 0.418945 -0.603569
Cl9   Cl    Cl    0.142566 0.852220 0.635421 -0.579078
Cl10  Cl    Cl    0.803914 0.865366 0.874292 -0.562918
Cl11  Cl    Cl    0.284446 0.243053 0.242597 -0.519367
Cl12  Cl    Cl    0.281064 0.776476 0.129145 -0.677527
H1    H     H_    0.228472 0.107395 0.931413 0.115188
H2    H     H_    0.679249 0.485496 0.014138 0.137671
H3    H     H_    0.940295 0.486839 0.333436 0.139799
H4    H     H_    0.966739 0.552594 0.690341 0.153316
H5    H     H_    0.094016 0.643519 0.494034 0.149039
H6    H     H_    0.807375 0.390185 0.524144 0.162604
H7    H     H_    0.654515 0.935799 0.620815 0.193217
H8    H     H_    0.322913 0.871153 0.328491 0.187773
H9    H     H_    0.653374 0.928046 0.454815 0.185453
H10   H     H_    0.321769 0.871558 0.483463 0.187948
H11   H     H_    0.673521 0.342203 0.010933 0.111886
H12   H     H_    0.829761 0.977460 0.152265 0.131843
H13   H     H_    0.327889 0.620913 0.892326 0.109223
H14   H     H_    0.668074 0.013500 0.351279 0.226325
H15   H     H_    0.325501 0.873576 0.628351 0.171701
H16   H     H_    0.325282 0.179724 0.852969 0.114731
H17   H     H_    0.673945 0.808037 0.034133 0.131575
H18   H     H_    0.758890 0.375091 0.196520 0.134445
H19   H     H_    0.172807 0.639738 0.815311 0.150238
H20   H     H_    0.231379 0.934506 0.110934 0.160585
H21   H     H_    0.836342 0.155860 0.984193 0.175316
H22   H     H_    0.380099 0.209034 0.667247 0.195138
H23   H     H_    0.653448 0.710611 0.180684 0.194731
H24   H     H_    0.215423 0.331914 0.816740 0.172158
H25   H     H_    0.801999 0.662051 0.981004 0.189250
H26   H     H_    0.048078 0.154548 0.697133 0.209448
H27   H     H_    0.970732 0.833568 0.123220 0.198108
H28   H     H_    0.347178 0.479942 0.792923 0.144950
N1    N     N_R   0.293810 0.002730 0.945950 -0.054035
N2    N     N_R   0.443210 0.997250 0.791090 -0.061665
N3    N     N_R   0.443180 0.152110 0.945950 -0.051541
N4    N     N_R   0.556820 0.847890 0.054050 -0.050506
N5    N     N_R   0.706170 0.208950 0.152090 -0.068741
N6    N     N_R   0.293830 0.791050 0.847910 -0.064176
N7    N     N_R   0.293800 0.945910 0.002760 -0.049982
N8    N     N_R   0.706200 0.054090 0.997240 -0.069088
N9    N     N_R   0.706190 0.997270 0.054050 -0.070832
N10   N     N_R   0.706160 0.152130 0.208910 -0.083519
N11   N     N_R   0.293840 0.847870 0.791090 -0.092589
N12   N     N_R   0.443140 0.945920 0.152090 -0.089955
N13   N     N_R   0.556860 0.054080 0.847910 -0.089905
N14   N     N_R   0.556830 0.208940 0.002760 -0.049481
N15   N     N_R   0.443170 0.791060 0.997240 -0.036590
N16   N     N_R   0.556790 0.002750 0.208910 -0.076535
Ni1   Ni    Ni4+2 0.369690 0.999990 0.869700 0.278070
Ni2   Ni    Ni4+2 0.630310 0.000010 0.130300 0.275640
Ni3   Ni    Ni4+2 0.369670 0.869670 0.000000 0.291360
Ni4   Ni    Ni4+2 0.630330 0.130330 0.000000 0.245642

loop_
_geom_bond_atom_site_label_1
_geom_bond_atom_site_label_2
_ccdc_geom_bond_type
N1    N7    A    
N5    N10   A    
C38   Cl10  S    
C17   Cl9   S    
C9    H26   S    
N6    Ni3   S    
C33   C45   S    
C14   C18   A    
C24   C27   A    
C2    Cl5   S    
N10   Ni2   S    
C16   N10   A    
C40   N12   A    
N3    Ni1   S    
C15   C19   A    
C7    H24   S    
C26   H6    S    
C46   N15   A    
C25   H5    S    
C50   C59   A    
C22   H3    S    
C14   C21   A    
C19   C21   A    
C24   C26   A    
C38   C42   A    
C11   Cl3   S    
C51   H18   S    
C46   C59   A    
C36   Cl6   S    
N4    N15   A    
N8    N9    A    
C12   H12   S    
C48   C56   A    
C37   C42   A    
C2    C13   A    
N8    Ni4   S    
C54   H21   S    
C44   C58   A    
C22   C25   A    
C31   C33   A    
N5    Ni4   S    
C16   Cl8   S    
C46   H13   S    
C30   H8    S    
C3    C60   A    
C44   H11   S    
C53   C55   A    
C44   N14   A    
C27   C34   S    
C22   C28   A    
C49   H16   S    
C15   C20   A    
C41   Cl2   S    
C17   N11   A    
C42   C57   S    
N7    Ni3   S    
C12   N9    A    
N9    Ni2   S    
N4    Ni2   S    
N6    N11   A    
C45   C47   A    
C19   C58   S    
C47   N16   A    
C32   C35   A    
N3    N14   A    
C4    C6    A    
C5    C7    A    
C24   H4    S    
C6    C8    A    
C49   C58   A    
C60   Cl1   S    
C2    C4    A    
C8    H25   S    
C47   H14   S    
C41   C56   A    
N13   Ni4   S    
C53   N7    A    
C50   H17   S    
C23   C51   A    
C29   H7    S    
C51   N5    A    
C48   N2    A    
C53   H20   S    
C36   C43   A    
C48   H15   S    
C23   C28   S    
C9    C11   A    
N2    Ni1   S    
C12   C57   A    
C43   C55   S    
C16   C23   A    
N15   Ni3   S    
C17   C34   A    
C4    H23   S    
C11   C60   A    
C1    N1    A    
N12   N16   A    
C32   H10   S    
C7    C9    A    
C40   Cl12  S    
C30   C33   A    
C35   C56   S    
C26   C28   A    
C8    C10   A    
C41   N13   A    
C3    C5    A    
C10   C13   A    
C49   N3    A    
N12   Ni3   S    
C39   C43   A    
C14   H28   S    
C25   C27   A    
C6    C20   S    
C29   C35   A    
C34   C52   A    
C31   H9    S    
C54   N8    A    
N11   Ni1   S    
N1    Ni1   S    
C36   C38   A    
C1    C55   A    
C1    H1    S    
C29   C31   A    
N2    N13   A    
C30   C32   A    
C13   Cl4   S    
C37   Cl7   S    
N16   Ni2   S    
C3    H22   S    
C18   C20   A    
C10   H27   S    
C52   N6    A    
C18   C59   S    
C15   H2    S    
C5    C21   S    
C40   C45   A    
C37   C39   A    
C39   Cl11  S    
C52   H19   S    
N14   Ni4   S    
C50   N4    A    
C54   C57   A    
