data_mof_unit_64271.cif
_audit_creation_date              2012-10-26T18:16:45-0400
_audit_creation_method            fapswitch 2.2
_symmetry_space_group_name_H-M    P1
_symmetry_Int_Tables_number       1
_space_group_crystal_system       triclinic
_cell_length_a                    37.311989
_cell_length_b                    30.40659
_cell_length_c                    21.640135
_cell_angle_alpha                 89.800742
_cell_angle_beta                  54.557134
_cell_angle_gamma                 89.88315
_cell_volume                      20001.7534774

loop_
_atom_site_label
_atom_site_type_symbol
_atom_type_description
_atom_site_fract_x
_atom_site_fract_y
_atom_site_fract_z
_atom_type_partial_charge
C1    C     C_R   0.914836 0.500044 0.587195 0.568372
C2    C     C_R   0.201957 0.462254 0.320808 0.030921
C3    C     C_R   0.001911 0.843950 0.055672 -0.091582
C4    C     C_R   0.500109 0.366779 0.000117 -0.101721
C5    C     C_R   0.000034 0.866736 0.001010 -0.101988
C6    C     C_R   0.500279 0.274682 0.000069 0.031820
C7    C     C_R   0.000528 0.774578 0.002732 0.030960
C8    C     C_R   0.039679 0.296681 0.956904 -0.073567
C9    C     C_R   0.960209 0.296706 0.042752 -0.072543
C10   C     C_R   0.539676 0.796685 0.956713 -0.073025
C11   C     C_R   0.460214 0.796707 0.042793 -0.072922
C12   C     C_R   0.039923 0.342483 0.957303 0.344031
C13   C     C_R   0.298034 0.962176 0.679792 0.030762
C14   C     C_R   0.960020 0.342509 0.042630 0.345565
C15   C     C_R   0.539919 0.842487 0.957100 0.344931
C16   C     C_R   0.460023 0.842510 0.042677 0.345689
C17   C     C_R   0.999984 0.366095 0.999994 0.039961
C18   C     C_R   0.499984 0.866097 0.999936 0.040813
C19   C     C_3   0.987958 0.544094 0.221001 0.172857
C20   C     C_3   0.012962 0.543235 0.777313 0.179590
C21   C     C_3   0.488030 0.043813 0.221139 0.176175
C22   C     C_3   0.512090 0.043612 0.778356 0.176300
C23   C     C_R   0.999928 0.273596 0.999752 -0.080887
C24   C     C_R   0.701959 0.962122 0.320474 0.030752
C25   C     C_R   0.499931 0.773597 0.999687 -0.080921
C26   C     C_R   0.476442 0.702110 0.068477 -0.073319
C27   C     C_R   0.523344 0.702277 0.930975 -0.073185
C28   C     C_R   0.976415 0.202102 0.068513 -0.073305
C29   C     C_R   0.023358 0.202285 0.931018 -0.073240
C30   C     C_R   0.476656 0.656293 0.068725 0.341192
C31   C     C_R   0.523133 0.656452 0.930844 0.341157
C32   C     C_R   0.976629 0.156286 0.068745 0.341149
C33   C     C_R   0.023144 0.156460 0.930870 0.341086
C34   C     C_R   0.499910 0.633110 0.999817 0.027798
C35   C     C_R   0.843894 0.464054 0.635601 -0.126683
C36   C     C_R   0.999902 0.133110 0.999832 0.027825
C37   C     C_R   0.499900 0.725312 0.999702 -0.085221
C38   C     C_R   0.999895 0.225312 0.999750 -0.085227
C39   C     C_3   0.043327 0.489712 0.245599 -0.232537
C40   C     C_3   0.956496 0.489806 0.754493 -0.232776
C41   C     C_3   0.543402 0.989354 0.245600 -0.232418
C42   C     C_3   0.456590 0.989270 0.754523 -0.232387
C43   C     C_3   0.965323 0.461250 0.320167 0.320169
C44   C     C_3   0.034127 0.460370 0.680566 0.320969
C45   C     C_3   0.465275 0.961237 0.320351 0.320463
C46   C     C_R   0.156073 0.463976 0.364825 -0.127536
C47   C     C_3   0.534630 0.960943 0.680113 0.320442
C48   C     C_3   0.995570 0.500345 0.315018 -0.101596
C49   C     C_3   0.004370 0.499882 0.684904 -0.102817
C50   C     C_3   0.495698 0.000224 0.314969 -0.102308
C51   C     C_3   0.504318 0.000007 0.685028 -0.102158
C52   C     C_3   0.999575 0.496306 0.188989 -0.086397
C53   C     C_3   0.000340 0.495817 0.811002 -0.093824
C54   C     C_3   0.499640 0.996092 0.189007 -0.091900
C55   C     C_3   0.500369 0.995925 0.811044 -0.091885
C56   C     C_3   0.045625 0.484211 0.172137 -0.054475
C57   C     C_R   0.343916 0.963902 0.635767 -0.126505
C58   C     C_3   0.954062 0.484642 0.828193 -0.056391
C59   C     C_3   0.545691 0.983996 0.172111 -0.055455
C60   C     C_3   0.454288 0.983934 0.828084 -0.055475
C61   C     C_2   0.005997 0.586830 0.299922 0.706859
C62   C     C_2   0.994582 0.586398 0.698993 0.704845
C63   C     C_2   0.506792 0.086559 0.298997 0.703919
C64   C     C_2   0.493516 0.086441 0.699978 0.704549
C65   C     C_2   0.956159 0.422022 0.224496 0.645608
C66   C     C_2   0.042247 0.420701 0.777603 0.643121
C67   C     C_2   0.456238 0.921819 0.224627 0.644945
C68   C     C_R   0.656074 0.963863 0.364490 -0.126691
C69   C     C_2   0.543620 0.921547 0.776280 0.644664
C70   C     C_2   0.063957 0.439509 0.134694 0.622313
C71   C     C_2   0.934701 0.440430 0.867330 0.622083
C72   C     C_2   0.564060 0.939353 0.134454 0.621616
C73   C     C_2   0.435818 0.939340 0.866299 0.621788
C74   C     C_2   0.776734 0.422385 0.674709 0.596743
C75   C     C_2   0.223194 0.422138 0.325930 0.596888
C76   C     C_2   0.276802 0.922019 0.675181 0.596730
C77   C     C_2   0.723183 0.921886 0.325285 0.596847
C78   C     C_2   0.864789 0.572823 0.695547 0.640848
C79   C     C_R   0.866235 0.500098 0.638265 -0.048432
C80   C     C_2   0.135288 0.572987 0.304338 0.640774
C81   C     C_2   0.364658 0.073051 0.694895 0.640722
C82   C     C_2   0.635328 0.073191 0.304780 0.640673
C83   C     C_2   0.769705 0.572087 0.783853 0.646391
C84   C     C_2   0.230362 0.572183 0.216134 0.646080
C85   C     C_2   0.269603 0.072226 0.783046 0.645920
C86   C     C_2   0.730391 0.072340 0.216615 0.645939
C87   C     C_2   0.931299 0.554412 0.365353 0.544014
C88   C     C_2   0.069182 0.553428 0.632693 0.546992
C89   C     C_2   0.431736 0.054765 0.365439 0.547272
C90   C     C_R   0.133770 0.500100 0.361932 -0.049032
C91   C     C_2   0.568450 0.054360 0.633941 0.547108
C92   C     C_2   0.066460 0.637368 0.860962 0.624393
C93   C     C_2   0.935336 0.635574 0.140623 0.596065
C94   C     C_2   0.569951 0.136947 0.863617 0.622762
C95   C     C_2   0.429770 0.136775 0.136120 0.622802
C96   C     C_2   0.919808 0.458259 0.395615 0.640819
C97   C     C_2   0.079660 0.456990 0.605243 0.639469
C98   C     C_2   0.419732 0.958553 0.395795 0.639546
C99   C     C_2   0.580156 0.958128 0.604682 0.639639
C100  C     C_R   0.366219 0.000081 0.638162 -0.048685
C101  C     C_R   0.085167 0.500049 0.412873 0.568325
C102  C     C_R   0.633776 0.000096 0.361885 -0.048691
C103  C     C_R   0.842016 0.535510 0.688002 0.019636
C104  C     C_R   0.158024 0.535580 0.312087 0.019618
C105  C     C_R   0.341950 0.035592 0.687578 0.019586
C106  C     C_R   0.658043 0.035665 0.312291 0.019608
C107  C     C_R   0.795566 0.534866 0.731942 0.049691
C108  C     C_R   0.204470 0.534896 0.268188 0.049527
C109  C     C_R   0.295505 0.034898 0.731475 0.049516
C110  C     C_R   0.704487 0.034963 0.268405 0.049429
C111  C     C_R   0.773694 0.498165 0.727749 -0.008586
C112  C     C_R   0.414830 0.000042 0.587168 0.568318
C113  C     C_R   0.226309 0.498088 0.272528 -0.008617
C114  C     C_R   0.273677 0.998050 0.727591 -0.008689
C115  C     C_R   0.726316 0.998054 0.272489 -0.008725
C116  C     C_R   0.702676 0.503696 0.742519 -0.108067
C117  C     C_R   0.297361 0.503511 0.257586 -0.107821
C118  C     C_R   0.202645 0.003416 0.742409 -0.107918
C119  C     C_R   0.797358 0.003356 0.257597 -0.107669
C120  C     C_R   0.656858 0.504339 0.787928 -0.105660
C121  C     C_R   0.343177 0.504194 0.212100 -0.105653
C122  C     C_R   0.156830 0.004111 0.787866 -0.105690
C123  C     C_R   0.585168 0.000050 0.412849 0.568387
C124  C     C_R   0.843174 0.004052 0.212119 -0.105656
C125  C     C_R   0.633272 0.498702 0.866830 -0.035902
C126  C     C_R   0.366728 0.498667 0.133233 -0.035828
C127  C     C_R   0.133268 0.998648 0.866800 -0.035773
C128  C     C_R   0.866728 0.998657 0.133225 -0.035844
C129  C     C_R   0.997188 0.500196 0.382775 0.567970
C130  C     C_R   0.002782 0.500037 0.617210 0.568440
C131  C     C_R   0.497294 0.000171 0.382688 0.568156
C132  C     C_R   0.502719 0.000065 0.617302 0.568265
C133  C     C_R   0.656242 0.491870 0.899402 -0.060577
C134  C     C_3   0.961871 0.465792 0.251775 -0.097222
C135  C     C_R   0.343722 0.491903 0.100777 -0.060748
C136  C     C_R   0.156260 0.991934 0.899359 -0.060721
C137  C     C_R   0.843728 0.992015 0.100730 -0.060900
C138  C     C_R   0.702015 0.490960 0.853982 0.444355
C139  C     C_R   0.297948 0.490957 0.146279 0.444129
C140  C     C_R   0.202032 0.990980 0.853892 0.444260
C141  C     C_R   0.797954 0.991062 0.146221 0.444118
C142  C     C_R   0.725332 0.497150 0.775440 0.086693
C143  C     C_R   0.274668 0.497037 0.224782 0.087061
C144  C     C_R   0.225322 0.996997 0.775317 0.087054
C145  C     C_3   0.037478 0.464625 0.749106 -0.099591
C146  C     C_R   0.774672 0.997005 0.224753 0.087238
C147  C     C_R   0.999974 0.585120 0.000189 0.582881
C148  C     C_R   0.499996 0.085158 0.000002 0.599259
C149  C     C_R   0.000050 0.496966 0.119695 0.559143
C150  C     C_R   0.999933 0.496734 0.880334 0.572152
C151  C     C_R   0.500060 0.996853 0.119700 0.570398
C152  C     C_R   0.499942 0.996747 0.880346 0.570522
C153  C     C_R   0.999999 0.414710 0.000024 0.579932
C154  C     C_R   0.499999 0.914710 0.000004 0.580756
C155  C     C_R   0.500024 0.415036 0.000061 0.545730
C156  C     C_3   0.461907 0.965633 0.251839 -0.099260
C157  C     C_R   0.999985 0.915022 0.000200 0.545690
C158  C     C_R   0.584954 0.499689 0.915044 0.548465
C159  C     C_R   0.415046 0.499681 0.084964 0.548434
C160  C     C_R   0.084953 0.999676 0.915042 0.548642
C161  C     C_R   0.915046 0.999679 0.084963 0.548446
C162  C     C_R   0.499980 0.584891 0.999929 0.606344
C163  C     C_R   0.999977 0.084891 0.999932 0.606484
C164  C     C_R   0.032808 0.703817 0.937379 -0.043275
C165  C     C_R   0.969741 0.703091 0.068176 -0.041288
C166  C     C_R   0.534282 0.203707 0.937447 -0.043725
C167  C     C_3   0.538027 0.965364 0.748565 -0.099211
C168  C     C_R   0.466068 0.203642 0.062674 -0.043839
C169  C     C_3   0.980300 0.546692 0.300876 -0.010947
C170  C     C_3   0.020192 0.545995 0.697912 -0.018235
C171  C     C_3   0.480651 0.046607 0.300700 -0.017211
C172  C     C_3   0.519504 0.046363 0.698758 -0.017187
C173  C     C_R   0.032638 0.657949 0.934697 0.037164
C174  C     C_R   0.968604 0.657223 0.067846 0.039812
C175  C     C_R   0.534313 0.157816 0.935597 0.035473
C176  C     C_R   0.465755 0.157737 0.064391 0.035662
C177  C     C_R   0.999948 0.633807 0.000445 -0.015655
C178  C     C_R   0.798013 0.462386 0.679639 0.030893
C179  C     C_R   0.500005 0.133919 0.000004 -0.017488
C180  C     C_R   0.001169 0.726355 0.003019 0.050027
C181  C     C_R   0.500249 0.226515 0.000110 0.049466
C182  C     C_R   0.501854 0.297883 0.942379 0.349754
C183  C     C_R   0.498623 0.297679 0.057787 0.350137
C184  C     C_R   0.998453 0.797239 0.948183 0.347807
C185  C     C_R   0.002157 0.798195 0.056606 0.351333
C186  C     C_R   0.501723 0.343633 0.942527 -0.090463
C187  C     C_R   0.498595 0.343445 0.057681 -0.090780
C188  C     C_R   0.998246 0.843016 0.947381 -0.090496
Cu1   Cu    Cu3+1 0.000000 0.544030 0.500000 1.198308
Cu2   Cu    Cu3+1 0.500030 0.499990 0.062450 1.079653
Cu3   Cu    Cu3+1 0.999970 0.999990 0.937550 1.079306
Cu4   Cu    Cu3+1 0.000030 0.999990 0.062450 1.078902
Cu5   Cu    Cu3+1 0.500000 0.044030 0.500000 1.199796
Cu6   Cu    Cu3+1 0.000000 0.455920 0.500000 1.204262
Cu7   Cu    Cu3+1 0.500000 0.955920 0.500000 1.203499
Cu8   Cu    Cu3+1 0.955920 0.499940 0.044070 1.235735
Cu9   Cu    Cu3+1 0.044080 0.499940 0.955930 1.215459
Cu10  Cu    Cu3+1 0.455920 0.999940 0.044070 1.219585
Cu11  Cu    Cu3+1 0.544080 0.999940 0.955930 1.219179
Cu12  Cu    Cu3+1 0.499970 0.499990 0.937550 1.079745
F1    F     F_    0.723661 0.484231 0.886429 -0.579943
F2    F     F_    0.920589 0.363391 0.084304 -0.575721
F3    F     F_    0.579371 0.863345 0.915552 -0.576422
F4    F     F_    0.420594 0.863390 0.084465 -0.576088
F5    F     F_    0.453344 0.634702 0.136232 -0.584428
F6    F     F_    0.546452 0.635010 0.863405 -0.584276
F7    F     F_    0.953299 0.134687 0.136241 -0.584444
F8    F     F_    0.046479 0.135024 0.863428 -0.584503
F9    F     F_    0.020665 0.572588 0.167769 -0.581048
F10   F     F_    0.981457 0.572719 0.830037 -0.571603
F11   F     F_    0.520356 0.072516 0.167664 -0.577855
F12   F     F_    0.276262 0.484319 0.113945 -0.580407
F13   F     F_    0.479789 0.072370 0.831471 -0.577414
F14   F     F_    0.985676 0.421493 0.313804 -0.544996
F15   F     F_    0.013355 0.420882 0.687434 -0.544737
F16   F     F_    0.485419 0.921400 0.314366 -0.544629
F17   F     F_    0.514369 0.921166 0.686617 -0.544876
F18   F     F_    0.223706 0.984398 0.886325 -0.580327
F19   F     F_    0.776272 0.984553 0.113850 -0.580507
F20   F     F_    0.502660 0.276250 0.886797 -0.588412
F21   F     F_    0.497838 0.275834 0.113395 -0.588110
F22   F     F_    0.995846 0.775049 0.896567 -0.589792
F23   F     F_    0.004965 0.777002 0.108991 -0.582833
F24   F     F_    0.079380 0.363339 0.915907 -0.575292
H1    H     H_    0.055754 0.460228 0.258016 0.225258
H2    H     H_    0.279527 0.508359 0.318196 0.146663
H3    H     H_    0.220490 0.008216 0.681739 0.146538
H4    H     H_    0.779519 0.008101 0.318231 0.146546
H5    H     H_    0.639972 0.509660 0.761365 0.172230
H6    H     H_    0.360088 0.509459 0.238581 0.172014
H7    H     H_    0.139929 0.009335 0.761307 0.171850
H8    H     H_    0.860080 0.009221 0.238630 0.171913
H9    H     H_    0.638857 0.487105 0.959971 0.170564
H10   H     H_    0.361081 0.487227 0.040240 0.170426
H11   H     H_    0.138893 0.987307 0.959953 0.170400
H12   H     H_    0.943882 0.460325 0.742734 0.226153
H13   H     H_    0.861088 0.987444 0.040171 0.170320
H14   H     H_    0.057282 0.722394 0.887337 0.195408
H15   H     H_    0.945436 0.720886 0.119270 0.180401
H16   H     H_    0.560475 0.222036 0.888903 0.192749
H17   H     H_    0.439918 0.221919 0.111187 0.192453
H18   H     H_    0.502813 0.360848 0.897571 0.187641
H19   H     H_    0.497437 0.360524 0.102639 0.187285
H20   H     H_    0.996536 0.859803 0.904937 0.187250
H21   H     H_    0.003456 0.861458 0.097565 0.187888
H22   H     H_    0.070665 0.279136 0.923924 0.174612
H23   H     H_    0.555612 0.959735 0.258121 0.225986
H24   H     H_    0.929202 0.279188 0.075702 0.174624
H25   H     H_    0.570662 0.779143 0.923640 0.174534
H26   H     H_    0.429209 0.779188 0.075828 0.174490
H27   H     H_    0.458336 0.719538 0.121992 0.176388
H28   H     H_    0.541461 0.719840 0.877424 0.176551
H29   H     H_    0.958293 0.219526 0.122031 0.176450
H30   H     H_    0.041492 0.219856 0.877475 0.176399
H31   H     H_    0.958319 0.555045 0.224944 0.194335
H32   H     H_    0.043274 0.552778 0.771631 0.227206
H33   H     H_    0.458126 0.054280 0.225948 0.227313
H34   H     H_    0.444306 0.959684 0.742359 0.225897
H35   H     H_    0.541998 0.054064 0.773481 0.227012
H36   H     H_    0.066686 0.515490 0.237018 0.191946
H37   H     H_    0.933358 0.515686 0.762275 0.192133
H38   H     H_    0.566927 0.014936 0.237022 0.190659
H39   H     H_    0.433139 0.014921 0.762780 0.191107
H40   H     H_    0.070243 0.508663 0.130886 0.201203
H41   H     H_    0.930029 0.509739 0.868415 0.202389
H42   H     H_    0.570262 0.008524 0.130992 0.201169
H43   H     H_    0.429770 0.008520 0.868898 0.201153
H44   H     H_    0.931061 0.483829 0.271452 0.156673
H45   H     H_    0.862491 0.436572 0.598962 0.216673
H46   H     H_    0.068635 0.481972 0.729152 0.154393
H47   H     H_    0.431100 0.983633 0.271382 0.155296
H48   H     H_    0.568880 0.983296 0.728764 0.155279
H49   H     H_    0.063915 0.618941 0.249687 0.370767
H50   H     H_    0.936824 0.618928 0.749763 0.370035
H51   H     H_    0.564940 0.118368 0.247546 0.370762
H52   H     H_    0.435449 0.118378 0.750835 0.370459
H53   H     H_    0.916925 0.384135 0.210822 0.377344
H54   H     H_    0.080761 0.381803 0.791947 0.376480
H55   H     H_    0.417083 0.883871 0.210845 0.377251
H56   H     H_    0.137435 0.436472 0.401623 0.216608
H57   H     H_    0.582859 0.883401 0.789934 0.377626
H58   H     H_    0.080042 0.377146 0.142020 0.373206
H59   H     H_    0.917618 0.378247 0.862067 0.373383
H60   H     H_    0.580176 0.876951 0.141500 0.373206
H61   H     H_    0.419542 0.876977 0.860044 0.373163
H62   H     H_    0.724892 0.380874 0.726111 0.361555
H63   H     H_    0.275114 0.380712 0.274904 0.361557
H64   H     H_    0.224903 0.880583 0.726738 0.361511
H65   H     H_    0.775163 0.880533 0.274043 0.361034
H66   H     H_    0.874016 0.638388 0.691000 0.358451
H67   H     H_    0.362548 0.936355 0.599358 0.216888
H68   H     H_    0.126082 0.638568 0.308577 0.358513
H69   H     H_    0.373901 0.138634 0.689700 0.358434
H70   H     H_    0.626129 0.138790 0.309507 0.358564
H71   H     H_    0.758684 0.612306 0.867177 0.363607
H72   H     H_    0.241442 0.612617 0.132611 0.363453
H73   H     H_    0.258503 0.112778 0.866055 0.363318
H74   H     H_    0.741497 0.113027 0.133354 0.363361
H75   H     H_    0.885211 0.561125 0.478129 0.358187
H76   H     H_    0.114887 0.559797 0.519644 0.356798
H77   H     H_    0.385885 0.061729 0.478255 0.357548
H78   H     H_    0.637428 0.936289 0.401072 0.216853
H79   H     H_    0.614333 0.061236 0.521052 0.357487
H80   H     H_    0.128587 0.639222 0.766053 0.369192
H81   H     H_    0.912680 0.625267 0.249656 0.371464
H82   H     H_    0.634094 0.137130 0.775519 0.367778
H83   H     H_    0.365471 0.137136 0.223540 0.367770
H84   H     H_    0.853677 0.461168 0.453098 0.364428
H85   H     H_    0.145802 0.459478 0.547821 0.364530
H86   H     H_    0.353627 0.962030 0.453273 0.363648
H87   H     H_    0.646273 0.961352 0.547146 0.363611
H88   H     H_    0.720539 0.508620 0.681873 0.147052
O1    O     O_R   0.935720 0.537180 0.564270 -0.472190
O2    O     O_R   0.435750 0.499990 0.011490 -0.516429
O3    O     O_R   0.082074 0.555134 0.557748 -0.643263
O4    O     O_2   0.404033 0.060294 0.352825 -0.475963
O5    O     O_R   0.418643 0.056574 0.440482 -0.642669
O6    O     O_2   0.596170 0.059728 0.646505 -0.476575
O7    O     O_R   0.581556 0.056199 0.558876 -0.642643
O8    O     O_2   0.057290 0.605580 0.838449 -0.465068
O9    O     O_R   0.108590 0.655713 0.815455 -0.663325
O10   O     O_2   0.904386 0.616041 0.148275 -0.454129
O11   O     O_R   0.937946 0.640221 0.202121 -0.623899
O12   O     O_2   0.561743 0.106683 0.836746 -0.467055
O13   O     O_R   0.064250 0.999990 0.988510 -0.516735
O14   O     O_R   0.612773 0.153540 0.824446 -0.661506
O15   O     O_2   0.437568 0.106183 0.163308 -0.467771
O16   O     O_R   0.387068 0.153645 0.174720 -0.661540
O17   O     O_2   0.916733 0.448257 0.453185 -0.467179
O18   O     O_R   0.881319 0.464531 0.399639 -0.660947
O19   O     O_2   0.082723 0.446873 0.547818 -0.465629
O20   O     O_R   0.118160 0.463076 0.601185 -0.663468
O21   O     O_2   0.416577 0.948485 0.453413 -0.466547
O22   O     O_R   0.381295 0.965218 0.399798 -0.663610
O23   O     O_2   0.583264 0.948115 0.547180 -0.466584
O24   O     O_R   0.935750 0.999990 0.011490 -0.516755
O25   O     O_R   0.618621 0.964608 0.600590 -0.663362
O26   O     O_R   0.500010 0.564260 0.947230 -0.453802
O27   O     O_R   0.499990 0.564260 0.052770 -0.453545
O28   O     O_R   0.000010 0.064260 0.947230 -0.453855
O29   O     O_R   0.999990 0.064260 0.052770 -0.453566
O30   O     O_R   0.935680 0.462770 0.564310 -0.493761
O31   O     O_R   0.064320 0.462770 0.435690 -0.494177
O32   O     O_R   0.435680 0.962770 0.564310 -0.494021
O33   O     O_R   0.064280 0.537180 0.435730 -0.471316
O34   O     O_R   0.564320 0.962770 0.435690 -0.494333
O35   O     O_R   0.999990 0.537180 0.408860 -0.476565
O36   O     O_R   0.000010 0.537180 0.591140 -0.475537
O37   O     O_R   0.499990 0.037180 0.408860 -0.474940
O38   O     O_R   0.500010 0.037180 0.591140 -0.475368
O39   O     O_R   0.999950 0.462770 0.408890 -0.438345
O40   O     O_R   0.000050 0.462770 0.591110 -0.438621
O41   O     O_R   0.499950 0.962770 0.408890 -0.438803
O42   O     O_R   0.500050 0.962770 0.591110 -0.439125
O43   O     O_R   0.962770 0.564220 0.037230 -0.468154
O44   O     O_R   0.435720 0.037180 0.564270 -0.471823
O45   O     O_R   0.037230 0.564220 0.962770 -0.483636
O46   O     O_R   0.462770 0.064220 0.037230 -0.480944
O47   O     O_R   0.537230 0.064220 0.962770 -0.481272
O48   O     O_R   0.962780 0.499950 0.128370 -0.523114
O49   O     O_R   0.037220 0.499950 0.871630 -0.509949
O50   O     O_R   0.462780 0.999950 0.128370 -0.510212
O51   O     O_R   0.537220 0.999950 0.871630 -0.510692
O52   O     O_R   0.037180 0.500000 0.053970 -0.461076
O53   O     O_R   0.962820 0.500000 0.946030 -0.456120
O54   O     O_R   0.537180 0.000000 0.053970 -0.459958
O55   O     O_R   0.564280 0.037180 0.435730 -0.471525
O56   O     O_R   0.462820 1.000000 0.946030 -0.459802
O57   O     O_R   0.962780 0.435670 0.037210 -0.437656
O58   O     O_R   0.037220 0.435670 0.962790 -0.437621
O59   O     O_R   0.462780 0.935670 0.037210 -0.438232
O60   O     O_R   0.537220 0.935670 0.962790 -0.438244
O61   O     O_R   0.499930 0.435710 0.947300 -0.512460
O62   O     O_R   0.500070 0.435710 0.052700 -0.512431
O63   O     O_R   0.999930 0.935710 0.947300 -0.511618
O64   O     O_R   0.000070 0.935710 0.052700 -0.513243
O65   O     O_2   0.986842 0.616611 0.345975 -0.430401
O66   O     O_R   0.564240 0.499990 0.883000 -0.497875
O67   O     O_R   0.051333 0.590650 0.244998 -0.602248
O68   O     O_2   0.013731 0.616068 0.652412 -0.432134
O69   O     O_R   0.949366 0.590566 0.754599 -0.605155
O70   O     O_2   0.488036 0.116399 0.345071 -0.431736
O71   O     O_R   0.552062 0.090149 0.243355 -0.604403
O72   O     O_2   0.512413 0.116312 0.653731 -0.431754
O73   O     O_R   0.448225 0.090099 0.755366 -0.604495
O74   O     O_2   0.984420 0.393534 0.198693 -0.421554
O75   O     O_R   0.917509 0.414358 0.229842 -0.622153
O76   O     O_2   0.013397 0.392822 0.804154 -0.422143
O77   O     O_R   0.435760 0.499990 0.117000 -0.497984
O78   O     O_R   0.080742 0.412142 0.772413 -0.623203
O79   O     O_2   0.484476 0.893318 0.199043 -0.421003
O80   O     O_R   0.417648 0.914126 0.229787 -0.623792
O81   O     O_2   0.515273 0.893151 0.802414 -0.421992
O82   O     O_R   0.582292 0.913705 0.770854 -0.623154
O83   O     O_2   0.077341 0.434128 0.068618 -0.445324
O84   O     O_R   0.067002 0.404695 0.173936 -0.592363
O85   O     O_2   0.920678 0.435662 0.933880 -0.444397
O86   O     O_R   0.931385 0.405410 0.829075 -0.592235
O87   O     O_2   0.577464 0.934095 0.068343 -0.446370
O88   O     O_R   0.064240 0.999990 0.883000 -0.497719
O89   O     O_R   0.567109 0.904450 0.173549 -0.592830
O90   O     O_2   0.422431 0.934118 0.932459 -0.445852
O91   O     O_R   0.432664 0.904443 0.827656 -0.592850
O92   O     O_2   0.795879 0.400872 0.616179 -0.472712
O93   O     O_R   0.735492 0.408500 0.736972 -0.668077
O94   O     O_2   0.203884 0.400346 0.384375 -0.473220
O95   O     O_R   0.264578 0.408452 0.263935 -0.668477
O96   O     O_2   0.296101 0.900180 0.616985 -0.472254
O97   O     O_R   0.235437 0.908353 0.737368 -0.668359
O98   O     O_2   0.703776 0.899822 0.383448 -0.472381
O99   O     O_R   0.935760 0.999990 0.117000 -0.497766
O100  O     O_R   0.764661 0.908388 0.263301 -0.669026
O101  O     O_2   0.890287 0.565798 0.712619 -0.490688
O102  O     O_R   0.856686 0.615887 0.683888 -0.640711
O103  O     O_2   0.109815 0.566087 0.287245 -0.490097
O104  O     O_R   0.143392 0.615992 0.315824 -0.640677
O105  O     O_2   0.390038 0.066233 0.712280 -0.489997
O106  O     O_R   0.356622 0.116013 0.682686 -0.640948
O107  O     O_2   0.609884 0.066458 0.287570 -0.490258
O108  O     O_R   0.643421 0.116117 0.316620 -0.640727
O109  O     O_2   0.740781 0.589520 0.781973 -0.486455
O110  O     O_R   0.564250 0.499990 0.988510 -0.516490
O111  O     O_R   0.778388 0.586939 0.835022 -0.613087
O112  O     O_2   0.259276 0.589508 0.217991 -0.486639
O113  O     O_R   0.221720 0.587221 0.164857 -0.613458
O114  O     O_2   0.240693 0.089499 0.780948 -0.486643
O115  O     O_R   0.278231 0.087364 0.834142 -0.613754
O116  O     O_2   0.759294 0.089555 0.218623 -0.486523
O117  O     O_R   0.721769 0.087589 0.165416 -0.613791
O118  O     O_2   0.903649 0.559381 0.352481 -0.502655
O119  O     O_R   0.918037 0.556325 0.440489 -0.641550
O120  O     O_2   0.097121 0.558483 0.644821 -0.479673

loop_
_geom_bond_atom_site_label_1
_geom_bond_atom_site_label_2
_ccdc_geom_bond_type
C20   C170  S    
C163  O28   A    
C33   F8    S    
C96   O18   S    
C160  O13   A    
Cu9   O45   S    
Cu10  O59   S    
C67   O79   D    
Cu3   O28   S    
C136  C140  A    
C17   C153  S    
Cu1   O1    S    
Cu8   O43   S    
C135  C139  A    
C47   F17   S    
C82   O108  S    
H54   O78   S    
C86   C110  S    
H58   O84   S    
C54   C156  S    
C154  O60   A    
C166  H16   S    
C136  H11   S    
C29   C33   A    
C8    C23   A    
C158  O110  A    
C4    C186  A    
C111  C142  S    
Cu1   Cu6   S    
C176  C179  A    
C52   C149  S    
C94   O14   S    
C50   C171  S    
C20   F10   S    
C87   O119  S    
C85   O114  D    
C88   O120  D    
C86   O117  S    
C35   C178  A    
H70   O108  S    
C35   H45   S    
C130  O40   A    
C62   C170  S    
C40   C58   S    
C27   C31   A    
Cu3   Cu4   S    
C28   C32   A    
C127  C136  A    
C186  H18   S    
C120  C125  A    
Cu8   Cu9   S    
C67   C156  S    
C108  C113  A    
C39   C56   S    
C74   C178  S    
C43   C96   S    
H60   O89   S    
C164  C173  A    
C129  O35   A    
C69   O81   D    
C167  H48   S    
C83   O109  D    
C174  C177  A    
C90   C104  A    
C22   C55   S    
C73   O91   S    
C116  C142  A    
C19   H31   S    
C148  C179  S    
Cu3   O24   S    
C159  O2    A    
C1    C79   S    
C48   C129  S    
C80   O104  S    
H85   O20   S    
C61   C169  S    
H83   O16   S    
C60   H43   S    
C102  C123  S    
C95   O15   D    
C92   O9    S    
H81   O11   S    
C42   H39   S    
C15   F3    S    
C53   C58   S    
C74   O93   S    
Cu3   O63   S    
C150  O53   A    
C131  O37   A    
C152  O51   A    
C30   F5    S    
Cu4   O99   S    
C21   H33   S    
C45   C50   S    
C94   O12   D    
H77   O5    S    
H71   O111  S    
C39   H36   S    
C48   C169  S    
C21   F11   S    
Cu4   O29   S    
C4    C155  S    
C84   O113  S    
C185  F23   S    
C151  O54   A    
Cu11  O47   S    
C103  C107  A    
C5    C188  A    
C16   F4    S    
C2    C75   S    
C125  C158  S    
C15   C18   A    
Cu3   O88   S    
C161  O24   A    
C77   O98   D    
C52   C134  S    
C78   O101  D    
Cu4   O64   S    
C33   C36   A    
C156  H47   S    
C126  C159  S    
C119  C146  A    
C122  H7    S    
C163  O29   A    
C115  C146  S    
C6    C182  A    
C32   C36   A    
C41   H38   S    
Cu11  O60   S    
C112  O32   A    
C49   C170  S    
C91   O6    D    
C149  O52   A    
C13   C57   A    
C11   C25   A    
C40   C49   S    
C87   C169  S    
H59   O86   S    
C47   C99   S    
C118  C122  A    
C122  C127  A    
C9    H24   S    
C81   O105  D    
H49   O67   S    
C92   O8    D    
Cu6   O39   S    
C29   C38   A    
C62   O69   S    
Cu11  O51   S    
H80   O9    S    
C152  O56   A    
C94   C175  S    
C148  O47   A    
C137  H13   S    
C14   C17   A    
C79   C103  A    
H75   O119  S    
C3    C185  A    
H72   O113  S    
C119  H4    S    
C54   C59   S    
C81   C105  S    
C117  H2    S    
C135  H10   S    
C63   O70   D    
C30   C34   A    
Cu11  O54   S    
C28   H29   S    
C89   C171  S    
C50   C131  S    
C9    C23   A    
H62   O93   S    
Cu7   O42   S    
C165  C174  A    
C149  O48   A    
C88   O3    S    
C116  C120  A    
C145  H46   S    
C72   O87   D    
C70   O84   S    
C40   H37   S    
C147  C177  S    
Cu1   O36   S    
C8    C12   A    
Cu5   O37   S    
C44   C145  S    
C31   C34   A    
C45   C156  S    
C93   O11   S    
C109  C114  A    
C97   O19   D    
H66   O102  S    
C10   C25   A    
C26   C30   A    
C77   O100  S    
C157  O64   A    
C82   O107  D    
C75   O94   D    
C76   O97   S    
C27   H28   S    
Cu10  O50   S    
C168  C176  A    
C68   H78   S    
C107  C111  A    
C7    C185  A    
Cu7   O34   S    
C65   C134  S    
C34   C162  S    
H74   O117  S    
C139  F12   S    
C49   C130  S    
C131  O41   A    
C129  O39   A    
H57   O82   S    
C42   H34   S    
Cu4   O13   S    
C162  O27   A    
C14   F2    S    
C58   H41   S    
H51   O71   S    
C65   O75   S    
C7    C180  S    
C66   O76   D    
C82   C106  S    
C160  O88   A    
H68   O104  S    
C133  C138  A    
C155  O62   A    
C24   C77   S    
C95   O16   S    
C43   F14   S    
C127  C160  S    
H69   O106  S    
C158  O66   A    
Cu6   O30   S    
Cu10  O46   S    
C84   O112  D    
C150  O49   A    
C55   C167  S    
H65   O100  S    
Cu2   Cu12  S    
C98   O21   D    
H73   O115  S    
C166  C175  A    
H55   O80   S    
C80   C104  S    
C71   O86   S    
C51   C172  S    
C68   C102  A    
C85   C109  S    
C45   C98   S    
H50   O69   S    
C21   C54   S    
C58   C71   S    
Cu2   O62   S    
C101  O33   A    
C60   C73   S    
Cu6   O31   S    
C44   C97   S    
C182  C186  A    
C89   O5    S    
C12   F24   S    
C105  C109  A    
C162  O26   A    
C91   O7    S    
C19   C52   S    
C99   O23   D    
C12   C17   A    
C46   H56   S    
C132  O42   A    
H87   O25   S    
C13   C114  A    
C164  C180  A    
C73   O90   D    
C124  C128  A    
C67   O80   S    
C8    H22   S    
C96   O17   D    
C55   C60   S    
Cu7   O32   S    
Cu2   O110  S    
C123  O34   A    
C20   H32   S    
C134  H44   S    
C11   H26   S    
C88   C170  S    
C148  O46   A    
C64   O73   S    
C187  H19   S    
C138  C142  A    
C154  O59   A    
C47   C51   S    
C64   O72   D    
C153  O58   A    
C63   O71   S    
C113  C143  S    
C114  C144  S    
Cu12  O61   S    
C64   C172  S    
C43   C134  S    
C9    C14   A    
C69   C167  S    
C183  C187  A    
H63   O95   S    
C11   C16   A    
C63   C171  S    
C168  H17   S    
Cu8   O57   S    
C183  F21   S    
C53   C145  S    
C133  H9    S    
C29   H30   S    
Cu12  O2    S    
C85   O115  S    
C141  C146  A    
C86   O116  D    
C91   C172  S    
Cu9   O52   S    
Cu1   O33   S    
C126  C135  A    
C100  C112  S    
C5    C157  S    
C164  H14   S    
C22   H35   S    
Cu9   O58   S    
C188  H20   S    
C41   C50   S    
C104  C108  A    
C61   O65   D    
C137  C141  A    
C98   O22   S    
C56   H40   S    
C19   F9    S    
C78   O102  S    
C140  C144  A    
C75   O95   S    
C20   C53   S    
C3    C5    A    
C120  H5    S    
C51   C132  S    
C26   C37   A    
C54   C151  S    
C46   C90   A    
C153  O57   A    
C118  H3    S    
C23   C38   S    
C118  C144  A    
C159  O77   A    
C6    C183  A    
Cu8   O53   S    
H82   O14   S    
C21   C171  S    
C141  F19   S    
C130  O36   A    
C132  O38   A    
Cu2   O77   S    
C128  C161  S    
C84   C108  S    
C39   H1    S    
C24   C68   A    
C70   O83   D    
Cu6   O40   S    
C80   O103  D    
C3    H21   S    
Cu12  O66   S    
C110  C115  A    
Cu8   O48   S    
Cu5   O44   S    
C39   C48   S    
C44   C49   S    
C182  F20   S    
C74   O92   D    
C1    O1    A    
C44   F15   S    
H52   O73   S    
C40   H12   S    
C55   C152  S    
C119  C124  A    
C2    C46   A    
C184  F22   S    
C147  O45   A    
C100  C105  A    
C7    C184  A    
C101  O31   A    
C4    C187  A    
C117  C143  A    
C123  O55   A    
C10   C15   A    
H79   O7    S    
C138  F1    S    
Cu7   O41   S    
H76   O3    S    
C168  C181  A    
C93   C174  S    
C69   O82   S    
C45   F16   S    
C35   C79   A    
C1    O30   A    
C87   O118  D    
C117  C121  A    
H53   O75   S    
C66   C145  S    
C25   C37   S    
Cu12  O26   S    
Cu1   O35   S    
Cu5   Cu7   S    
C111  C178  A    
Cu2   O27   S    
Cu10  Cu11  S    
C112  O44   A    
C43   C48   S    
C93   O10   D    
C57   H67   S    
C42   C51   S    
C61   O67   S    
C95   C176  S    
C41   H23   S    
C157  O63   A    
C166  C181  A    
C139  C143  A    
C59   C72   S    
C165  H15   S    
C6    C181  S    
C41   C59   S    
C31   F6    S    
C99   O25   S    
C42   C60   S    
Cu5   O55   S    
C175  C179  A    
C97   O20   S    
C57   C100  A    
C184  C188  A    
C128  C137  A    
C161  O99   A    
C90   C101  S    
C36   C163  S    
C47   C167  S    
C81   O106  S    
C13   C76   S    
C173  C177  A    
C62   O68   D    
C65   O74   D    
C124  H8    S    
C32   F7    S    
C116  H88   S    
C140  F18   S    
C56   C70   S    
C155  O61   A    
C53   C150  S    
C22   F13   S    
C76   O96   D    
C72   O89   S    
C106  C110  A    
C125  C133  A    
C2    C113  A    
Cu9   O49   S    
C121  H6    S    
C59   H42   S    
C78   C103  S    
C66   O78   S    
C151  O50   A    
C19   C169  S    
C18   C154  S    
H61   O91   S    
C92   C173  S    
C147  O43   A    
C71   O85   D    
C10   H25   S    
C121  C126  A    
Cu10  O56   S    
C27   C37   A    
Cu5   O38   S    
C83   C107  S    
C102  C106  A    
C89   O4    D    
C26   H27   S    
H84   O18   S    
H64   O97   S    
C24   C115  A    
C16   C18   A    
C165  C180  A    
C28   C38   A    
C83   O111  S    
C22   C172  S    
C52   C56   S    
H86   O22   S    
