data_mof_unit_39626.cif
_audit_creation_date              2012-12-11T14:29:22-0500
_audit_creation_method            fapswitch 2.2
_symmetry_space_group_name_H-M    P1
_symmetry_Int_Tables_number       1
_space_group_crystal_system       triclinic
_cell_length_a                    6.940915
_cell_length_b                    14.67998
_cell_length_c                    16.291291
_cell_angle_alpha                 90.457682
_cell_angle_beta                  90.268265
_cell_angle_gamma                 90.254369
_cell_volume                      1659.87246985

loop_
_atom_site_label
_atom_site_type_symbol
_atom_type_description
_atom_site_fract_x
_atom_site_fract_y
_atom_site_fract_z
_atom_type_partial_charge
O1    O     O_R   0.494400 0.416610 0.413880 -0.546747
O2    O     O_R   0.823920 0.406790 0.585520 -0.543777
O3    O     O_R   0.994250 0.583390 0.586120 -0.534600
C1    C     C_R   0.654764 0.385107 0.613551 0.741196
O4    O     O_R   0.824110 0.405730 0.414490 -0.543914
O5    O     O_R   0.994440 0.582310 0.413870 -0.542208
C2    C     C_R   0.654490 0.383707 0.386333 0.733963
O6    O     O_R   0.494210 0.417690 0.586130 -0.545804
O7    O     O_3   0.660810 0.557940 0.500000 -0.356116
V1    V     V_3+5 0.935650 0.489250 0.500000 1.422403
O8    O     O_R   0.324160 0.593210 0.414480 -0.529015
C3    C     C_R   0.155426 0.614411 0.385878 0.757109
O9    O     O_R   0.323970 0.594270 0.585510 -0.530878
C4    C     C_R   0.155997 0.620483 0.610600 0.707427
V2    V     V_3+5 0.435660 0.510750 0.500000 1.453989
O10   O     O_3   0.160630 0.442060 0.500000 -0.380953
H1    H     H_    0.176372 0.946328 0.514889 0.118253
C5    C     C_R   0.146280 0.561288 0.778708 -0.136371
C6    C     C_R   0.140699 0.529618 0.859089 -0.121971
C7    C     C_R   0.129932 0.590802 0.924452 -0.115241
C8    C     C_R   0.123361 0.684147 0.909952 -0.134591
C9    C     C_R   0.127433 0.718277 0.829054 0.066549
C10   C     C_R   0.140635 0.655749 0.761872 0.074050
C11   C     C_R   0.114599 0.812916 0.814465 -0.173839
C12   C     C_R   0.113017 0.844956 0.732866 0.068451
C13   C     C_R   0.152180 0.784374 0.665974 0.025499
C14   C     C_R   0.152331 0.688115 0.679965 -0.184407
C15   C     C_R   0.076279 0.937859 0.716880 -0.138466
C16   C     C_R   0.086763 0.971765 0.637774 -0.134086
C17   C     C_R   0.149438 0.916111 0.574290 -0.132959
C18   C     C_R   0.191529 0.824351 0.588208 -0.042731
H2    H     H_    0.156703 0.510820 0.730175 0.101064
H3    H     H_    0.145563 0.457151 0.870705 0.112370
H4    H     H_    0.126053 0.565811 0.986762 0.114017
H5    H     H_    0.113560 0.729133 0.962722 0.091876
H6    H     H_    0.037788 0.985248 0.765263 0.104289
H7    H     H_    0.057663 0.043015 0.626612 0.118966
C19   C     C_2   0.985284 0.709216 0.282557 -0.134730
C20   C     C_2   0.150318 0.681920 0.318817 -0.296345
H8    H     H_    0.849193 0.681400 0.303709 0.143954
H9    H     H_    0.288095 0.709042 0.299690 0.138579
C21   C     C_2   0.973051 0.776670 0.214550 -0.132620
C22   C     C_2   0.126241 0.814452 0.177094 -0.311352
H10   H     H_    0.829107 0.795311 0.194590 0.137878
H11   H     H_    0.271324 0.796564 0.195297 0.131653
C23   C     C_2   0.779358 0.208142 0.781579 -0.134366
C24   C     C_2   0.614168 0.179729 0.816708 -0.304941
H12   H     H_    0.915366 0.180183 0.802628 0.132373
H13   H     H_    0.476247 0.206192 0.797183 0.125113
C25   C     C_2   0.791554 0.276702 0.714658 -0.137119
C26   C     C_2   0.638386 0.317540 0.679930 -0.302131
H14   H     H_    0.935213 0.293690 0.693316 0.130951
H15   H     H_    0.493520 0.301850 0.699803 0.125797
C27   C     C_2   0.779551 0.209129 0.214416 -0.131037
C28   C     C_2   0.614760 0.181853 0.177333 -0.309247
H16   H     H_    0.915422 0.180571 0.194026 0.136596
H17   H     H_    0.477316 0.209775 0.195649 0.127006
C29   C     C_2   0.791272 0.277664 0.282369 -0.134915
C30   C     C_2   0.637631 0.315453 0.319489 -0.307142
H18   H     H_    0.935113 0.296976 0.302697 0.133968
H19   H     H_    0.492550 0.296843 0.301142 0.127670
O11   O     O_R   0.770210 0.079270 0.910680 -0.540419
O12   O     O_R   0.440150 0.091160 0.082270 -0.545891
O13   O     O_R   0.269970 0.914530 0.082860 -0.542250
C31   C     C_R   0.609199 0.113235 0.110464 0.743615
O14   O     O_R   0.440480 0.090100 0.911240 -0.546168
O15   O     O_R   0.270310 0.913460 0.910610 -0.533836
C32   C     C_R   0.609113 0.111773 0.883153 0.746358
O16   O     O_R   0.769870 0.080340 0.082930 -0.538982
O17   O     O_3   0.603660 0.938980 0.996790 -0.368925
V3    V     V_3+5 0.328750 0.007610 0.996740 1.407093
O18   O     O_R   0.940600 0.902510 0.911180 -0.539998
C33   C     C_R   0.108558 0.879340 0.883993 0.696980
O19   O     O_R   0.940270 0.903570 0.082200 -0.541428
C34   C     C_R   0.109550 0.881847 0.110341 0.736608
V4    V     V_3+5 0.828770 0.986010 0.996670 1.418115
O20   O     O_3   0.103730 0.054750 0.996710 -0.375305
C35   C     C_1   0.318875 0.783367 0.529234 0.262222
N1    N     N_1   0.426921 0.754114 0.482231 -0.336179

loop_
_geom_bond_atom_site_label_1
_geom_bond_atom_site_label_2
_ccdc_geom_bond_type
O14   C32   A    
O12   C31   A    
C6    C7    A    
O18   V4    S    
C24   H13   S    
C12   C15   A    
C13   C14   A    
O19   V4    S    
C15   C16   A    
C19   C21   S    
O5    C3    A    
C17   C18   A    
C11   C33   S    
C29   H18   S    
V2    O10   S    
O16   V4    S    
C5    C6    A    
O13   V3    S    
C27   C28   D    
O8    V2    S    
C25   H14   S    
O17   V3    S    
O15   C33   A    
C10   C14   A    
C4    C14   S    
O7    V1    S    
C1    O6    A    
C7    H4    S    
C13   C18   A    
O9    C4    A    
H1    C17   S    
O11   V4    S    
C21   H10   S    
C2    C30   S    
C28   C31   S    
C23   H12   S    
C22   C34   S    
C27   H16   S    
C30   H19   S    
O19   C34   A    
C1    C26   S    
C5    C10   A    
V4    O20   S    
C20   H9    S    
C6    H3    S    
O4    C2    A    
C35   N1    T    
C12   C13   A    
C26   H15   S    
O2    C1    A    
C16   C17   A    
O14   V3    S    
C25   C26   D    
C11   C12   A    
C22   H11   S    
O3    C4    A    
O1    V2    S    
O12   V3    S    
O6    V2    S    
C28   H17   S    
O17   V4    S    
C9    C11   A    
C5    H2    S    
C21   C22   D    
O2    V1    S    
C24   C32   S    
V3    O20   S    
C18   C35   S    
C27   C29   S    
C23   C24   D    
O1    C2    A    
O18   C33   A    
O5    V1    S    
O8    C3    A    
C8    H5    S    
C23   C25   S    
O11   C32   A    
C3    C20   S    
O9    V2    S    
C29   C30   D    
O4    V1    S    
O3    V1    S    
V1    O10   S    
C19   H8    S    
C19   C20   D    
C31   O16   A    
O13   C34   A    
O15   V3    S    
O7    V2    S    
C7    C8    A    
C15   H6    S    
C16   H7    S    
C9    C10   A    
C8    C9    A    
