data_mof_unit_53844.cif
_audit_creation_date              2012-12-10T19:48:34-0500
_audit_creation_method            fapswitch 2.2
_symmetry_space_group_name_H-M    P1
_symmetry_Int_Tables_number       1
_space_group_crystal_system       triclinic
_cell_length_a                    10.830612
_cell_length_b                    10.636202
_cell_length_c                    9.402759
_cell_angle_alpha                 89.66652
_cell_angle_beta                  90.926419
_cell_angle_gamma                 87.620171
_cell_volume                      1082.06712074

loop_
_atom_site_label
_atom_site_type_symbol
_atom_type_description
_atom_site_fract_x
_atom_site_fract_y
_atom_site_fract_z
_atom_type_partial_charge
C1    C     C_R   0.502399 0.259225 0.500414 0.773086
C2    C     C_3   0.389118 0.049430 0.458546 -0.188236
C3    C     C_3   0.497268 0.877811 0.498905 0.040986
C4    C     C_3   0.502732 0.122189 0.501095 0.040986
C5    C     C_3   0.413237 0.963081 0.589983 -0.180693
C6    C     C_3   0.586762 0.036919 0.410017 -0.180694
C7    C     C_3   0.528082 0.608738 0.050207 -0.045676
C8    C     C_3   0.471918 0.391262 0.949793 -0.045676
C9    C     C_3   0.420589 0.583104 0.947079 -0.021157
C10   C     C_3   0.579411 0.416896 0.052921 -0.021157
C11   C     C_3   0.607680 0.525612 0.951494 -0.030054
C12   C     C_R   0.497601 0.740775 0.499586 0.773086
C13   C     C_3   0.392319 0.474387 0.048506 -0.030054
C14   C     C_R   0.262285 0.504920 0.498940 0.783219
C15   C     C_R   0.737715 0.495080 0.501059 0.783219
C16   C     C_R   0.173628 0.861957 0.216594 -0.177256
C17   C     C_R   0.826372 0.138043 0.783405 -0.177256
C18   C     C_R   0.138521 0.778977 0.324496 0.196312
C19   C     C_R   0.861479 0.221022 0.675504 0.196312
C20   C     C_R   0.105001 0.655987 0.286401 0.122822
C21   C     C_R   0.894999 0.344013 0.713599 0.122822
C22   C     C_R   0.101284 0.621733 0.142442 -0.201505
C23   C     C_R   0.871756 0.493372 0.501700 -0.093912
C24   C     C_R   0.898716 0.378267 0.857558 -0.201504
C25   C     C_R   0.133932 0.706273 0.037024 -0.166401
C26   C     C_R   0.866068 0.293727 0.962976 -0.166401
C27   C     C_R   0.171524 0.825632 0.074125 -0.154759
C28   C     C_R   0.828476 0.174367 0.925875 -0.154759
C29   C     C_R   0.927928 0.559320 0.393267 -0.248023
C30   C     C_R   0.072072 0.440680 0.606733 -0.248023
C31   C     C_3   0.135397 0.825111 0.476936 -0.430817
C32   C     C_3   0.004472 0.837951 0.535489 -0.849399
C33   C     C_3   0.864603 0.174889 0.523064 -0.430818
C34   C     C_R   0.128244 0.506628 0.498300 -0.093912
C35   C     C_3   0.995528 0.162049 0.464510 -0.849402
C36   C     C_R   0.944625 0.431124 0.608190 0.025004
C37   C     C_R   0.055375 0.568875 0.391810 0.025004
C38   C     C_3   0.526969 0.038152 0.632527 -0.133596
C39   C     C_3   0.473031 0.961848 0.367473 -0.133595
C40   C     C_3   0.610882 0.950570 0.541454 -0.188236
Cu1   Cu    Cu3+1 0.500030 0.499990 0.643150 0.932246
Cu2   Cu    Cu3+1 0.499970 0.500010 0.356850 0.932246
H1    H     H_    0.197396 0.890882 0.992106 0.129192
H2    H     H_    0.799870 0.043704 0.757952 0.121054
H3    H     H_    0.071047 0.529756 0.111795 0.124475
H4    H     H_    0.928953 0.470243 0.888204 0.124474
H5    H     H_    0.129668 0.679216 0.926283 0.134989
H6    H     H_    0.870332 0.320784 0.073717 0.134989
H7    H     H_    0.871767 0.609811 0.313212 0.160423
H8    H     H_    0.128232 0.390189 0.686788 0.160423
H9    H     H_    0.700790 0.905073 0.575212 0.117845
H10   H     H_    0.299210 0.094926 0.424788 0.117846
H11   H     H_    0.549246 0.072093 0.741013 0.130435
H12   H     H_    0.802604 0.109118 0.007894 0.129192
H13   H     H_    0.450753 0.927907 0.258987 0.130435
H14   H     H_    0.342923 0.930095 0.664629 0.121377
H15   H     H_    0.657076 0.069904 0.335371 0.121377
H16   H     H_    0.937810 0.873909 0.452377 0.253796
H17   H     H_    0.974474 0.746762 0.577116 0.260745
H18   H     H_    0.002921 0.904593 0.625993 0.244686
H19   H     H_    0.194137 0.762000 0.546679 0.188433
H20   H     H_    0.174600 0.919356 0.483005 0.199852
H21   H     H_    0.025525 0.253237 0.422884 0.260745
H22   H     H_    0.062190 0.126091 0.547622 0.253797
H23   H     H_    0.356037 0.654060 0.896133 0.114293
H24   H     H_    0.997079 0.095407 0.374007 0.244687
H25   H     H_    0.825400 0.080643 0.516995 0.199853
H26   H     H_    0.805863 0.238000 0.453321 0.188433
H27   H     H_    0.643963 0.345940 0.103867 0.114294
H28   H     H_    0.551853 0.700361 0.097063 0.115731
H29   H     H_    0.448147 0.299639 0.902937 0.115731
H30   H     H_    0.697586 0.549582 0.905999 0.123701
H31   H     H_    0.302414 0.450418 0.094001 0.123701
H32   H     H_    0.200130 0.956296 0.242049 0.121054
N1    N     N_3   0.500090 0.499970 0.858290 -0.157911
N2    N     N_3   0.499910 0.500030 0.141710 -0.157911
O1    O     O_R   0.500060 0.316850 0.620870 -0.584505
O2    O     O_R   0.499940 0.683150 0.379130 -0.584505
O3    O     O_R   0.500000 0.316860 0.379090 -0.585893
O4    O     O_R   0.500000 0.683140 0.620910 -0.585893
O5    O     O_R   0.319670 0.500010 0.620890 -0.588338
O6    O     O_R   0.680330 0.499990 0.379110 -0.588338
O7    O     O_R   0.319620 0.500010 0.379110 -0.576573
O8    O     O_R   0.680380 0.499990 0.620890 -0.576573

loop_
_geom_bond_atom_site_label_1
_geom_bond_atom_site_label_2
_ccdc_geom_bond_type
C8    C13   S    
C34   C37   A    
C1    O1    A    
Cu1   Cu2   S    
C31   H19   S    
C5    H14   S    
Cu2   O6    S    
C32   H16   S    
Cu1   O4    S    
C21   C36   S    
C29   H7    S    
C7    C11   S    
C16   H32   S    
C23   C29   A    
C19   C21   A    
C24   C26   A    
Cu1   O1    S    
C9    C13   S    
C3    C12   S    
C17   C19   A    
C10   N2    S    
C2    C39   S    
C39   H13   S    
C22   C25   A    
C12   O2    A    
C35   H22   S    
C25   H5    S    
C26   H6    S    
C16   C27   A    
C15   C23   S    
C30   H8    S    
C3    C39   S    
Cu2   O3    S    
C5    C38   S    
C6    H15   S    
C14   O7    A    
C7    H28   S    
C15   O6    A    
C30   C34   A    
C4    C6    S    
C19   C33   S    
C28   H12   S    
C11   H30   S    
C35   H24   S    
Cu1   O8    S    
C8    N1    S    
C2    C4    S    
Cu1   N1    S    
C31   C32   S    
C13   N2    S    
Cu1   O5    S    
C31   H20   S    
C15   O8    A    
C2    H10   S    
C16   C18   A    
C20   C22   A    
C3    C40   S    
Cu2   O2    S    
C1    O3    A    
C6    C40   S    
C2    C5    S    
C32   H18   S    
C33   H25   S    
C7    C9    S    
C8    H29   S    
C17   C28   A    
Cu2   N2    S    
Cu2   O7    S    
C13   H31   S    
C3    C5    S    
C14   C34   S    
C7    N2    S    
C25   C27   A    
C40   H9    S    
C26   C28   A    
C14   O5    A    
C30   C36   A    
C1    C4    S    
C24   H4    S    
C17   H2    S    
C11   N1    S    
C38   C40   S    
C20   C37   S    
C38   H11   S    
C12   O4    A    
C33   C35   S    
C18   C20   A    
C9    H23   S    
C10   C11   S    
C10   H27   S    
C27   H1    S    
C22   H3    S    
C8    C10   S    
C23   C36   A    
C21   C24   A    
C29   C37   A    
C6    C39   S    
C35   H21   S    
C18   C31   S    
C9    N1    S    
C32   H17   S    
C4    C38   S    
C33   H26   S    
