data_mof_unit_67655.cif
_audit_creation_date              2012-12-10T19:42:32-0500
_audit_creation_method            fapswitch 2.2
_symmetry_space_group_name_H-M    P1
_symmetry_Int_Tables_number       1
_space_group_crystal_system       triclinic
_cell_length_a                    10.876445
_cell_length_b                    10.902798
_cell_length_c                    9.814986
_cell_angle_alpha                 98.279691
_cell_angle_beta                  97.688383
_cell_angle_gamma                 91.71718
_cell_volume                      1139.97258672

loop_
_atom_site_label
_atom_site_type_symbol
_atom_type_description
_atom_site_fract_x
_atom_site_fract_y
_atom_site_fract_z
_atom_type_partial_charge
C1    C     C_R   0.498406 0.262166 0.500196 0.828548
C2    C     C_R   0.713400 0.894740 0.791806 -0.244439
C3    C     C_R   0.411816 0.082629 0.240185 0.011769
C4    C     C_R   0.587238 0.916502 0.760042 0.017678
C5    C     C_R   0.494331 0.110604 0.149095 0.655609
C6    C     C_R   0.504776 0.892683 0.852829 0.657738
C7    C     C_R   0.448713 0.149554 0.023159 -0.179010
C8    C     C_R   0.549847 0.853985 0.979107 -0.175770
C9    C     C_R   0.321064 0.159516 0.987006 -0.172229
C10   C     C_R   0.677034 0.840512 0.014073 -0.181689
C11   C     C_R   0.462100 0.916810 0.378176 -0.191061
C12   C     C_R   0.501550 0.737746 0.499820 0.824102
C13   C     C_R   0.537302 0.082846 0.622107 -0.220261
C14   C     C_R   0.502600 0.871918 0.501743 -0.072323
C15   C     C_R   0.497248 0.127833 0.498365 -0.068369
C16   C     C_R   0.262568 0.503468 0.500816 0.822452
C17   C     C_R   0.737639 0.497840 0.499233 0.820950
C18   C     C_R   0.540762 0.956193 0.625518 0.050322
C19   C     C_R   0.458868 0.043386 0.374674 0.060558
C20   C     C_2   0.511663 0.508416 0.078202 -0.077645
C21   C     C_2   0.488147 0.491779 0.921806 -0.077802
C22   C     C_R   0.203034 0.680793 0.118703 -0.171663
C23   C     C_R   0.871892 0.496496 0.500201 -0.044850
C24   C     C_R   0.795136 0.321618 0.876512 -0.199540
C25   C     C_R   0.149631 0.667713 0.238501 0.505722
C26   C     C_R   0.852820 0.336395 0.758729 0.496706
C27   C     C_R   0.093657 0.551498 0.250761 0.017858
C28   C     C_R   0.907121 0.453629 0.750184 0.039421
C29   C     C_R   0.092929 0.451564 0.142877 -0.137776
C30   C     C_R   0.906422 0.552147 0.859122 -0.157502
C31   C     C_R   0.145972 0.466570 0.024103 -0.165577
C32   C     C_R   0.852535 0.534658 0.976553 -0.164791
C33   C     C_R   0.199833 0.581427 0.011478 -0.199446
C34   C     C_R   0.128744 0.507379 0.500452 -0.050350
C35   C     C_R   0.797823 0.419343 0.985607 -0.179261
C36   C     C_R   0.920558 0.519820 0.381401 -0.287623
C37   C     C_R   0.080107 0.483897 0.619205 -0.265963
C38   C     C_3   0.059386 0.828730 0.362936 0.030581
C39   C     C_3   0.006739 0.883274 0.232313 -0.472996
C40   C     C_3   0.921037 0.988344 0.266858 -0.804670
C41   C     C_3   0.887041 0.131400 0.676962 0.043645
C42   C     C_3   0.028517 0.130128 0.685900 -0.410282
C43   C     C_3   0.075258 0.009700 0.731819 -0.865055
C44   C     C_R   0.952749 0.478450 0.620829 0.064984
C45   C     C_R   0.048183 0.527420 0.380555 0.033503
C46   C     C_R   0.239140 0.135518 0.079359 -0.141669
C47   C     C_R   0.758440 0.858982 0.919270 -0.142865
C48   C     C_R   0.284481 0.097929 0.206083 -0.236546
Cu1   Cu    Cu3+1 0.521120 0.521140 0.639640 0.970916
Cu2   Cu    Cu3+1 0.478880 0.478860 0.360360 0.972817
F1    F     F_    0.618598 0.102562 0.183670 -0.692270
F2    F     F_    0.380933 0.903748 0.819333 -0.699549
H1    H     H_    0.241203 0.593198 0.919666 0.170775
H2    H     H_    0.374962 0.389555 0.097064 0.215124
H3    H     H_    0.248571 0.768286 0.109489 0.146565
H4    H     H_    0.744575 0.236335 0.883217 0.129474
H5    H     H_    0.053007 0.361374 0.151985 0.143914
H6    H     H_    0.946284 0.642826 0.851976 0.138997
H7    H     H_    0.145585 0.388932 0.941971 0.113111
H8    H     H_    0.851819 0.610916 0.059978 0.111811
H9    H     H_    0.859172 0.536002 0.290106 0.144254
H10   H     H_    0.141277 0.466067 0.709891 0.139201
H11   H     H_    0.286456 0.190104 0.889617 0.145541
H12   H     H_    0.754528 0.406295 0.075825 0.170398
H13   H     H_    0.711481 0.810855 0.112067 0.147586
H14   H     H_    0.140802 0.147606 0.053709 0.138498
H15   H     H_    0.856195 0.844016 0.942976 0.137114
H16   H     H_    0.221191 0.082678 0.278872 0.155222
H17   H     H_    0.776309 0.903111 0.716938 0.126869
H18   H     H_    0.085088 0.906830 0.448547 0.199837
H19   H     H_    0.986954 0.769924 0.395743 0.136836
H20   H     H_    0.083168 0.918779 0.182255 0.236543
H21   H     H_    0.953697 0.808545 0.157060 0.194061
H22   H     H_    0.843283 0.954841 0.316909 0.264510
H23   H     H_    0.512318 0.172225 0.953639 0.130354
H24   H     H_    0.882238 0.023266 0.170082 0.283264
H25   H     H_    0.973609 0.066593 0.337718 0.246630
H26   H     H_    0.845851 0.057241 0.592012 0.172527
H27   H     H_    0.858257 0.106912 0.774154 0.134525
H28   H     H_    0.056153 0.139159 0.582742 0.222704
H29   H     H_    0.072384 0.209739 0.762000 0.200384
H30   H     H_    0.061349 0.006666 0.841280 0.255223
H31   H     H_    0.175646 0.004072 0.723216 0.312069
H32   H     H_    0.024081 0.927777 0.666126 0.235172
H33   H     H_    0.486181 0.834494 0.049858 0.129907
H34   H     H_    0.431276 0.853055 0.283675 0.153551
H35   H     H_    0.567539 0.146530 0.716765 0.149996
H36   H     H_    0.414679 0.426065 0.867511 0.148401
H37   H     H_    0.585254 0.573993 0.132489 0.147415
H38   H     H_    0.624441 0.611146 0.902996 0.216809
N1    N     N_2   0.447120 0.447110 0.150550 -0.278815
N2    N     N_2   0.552880 0.552890 0.849450 -0.278246
O1    O     O_R   0.517830 0.337490 0.617920 -0.587835
O2    O     O_3   0.842292 0.245164 0.642756 -0.617990
O3    O     O_R   0.482170 0.662510 0.382080 -0.588285
O4    O     O_R   0.482150 0.301790 0.382070 -0.563381
O5    O     O_R   0.517850 0.698210 0.617930 -0.563918
O6    O     O_R   0.337480 0.517860 0.617920 -0.586669
O7    O     O_R   0.662520 0.482140 0.382080 -0.583707
O8    O     O_R   0.301810 0.482160 0.382070 -0.572655
O9    O     O_R   0.698190 0.517840 0.617930 -0.574964
O10   O     O_3   0.169067 0.764290 0.348331 -0.623747

loop_
_geom_bond_atom_site_label_1
_geom_bond_atom_site_label_2
_ccdc_geom_bond_type
C26   O2    S    
C38   H18   S    
C42   H28   S    
C27   C29   A    
C34   C37   A    
C43   H31   S    
C41   C42   S    
C14   C18   A    
Cu2   O4    S    
C37   H10   S    
C15   C19   A    
C11   C19   A    
Cu2   O7    S    
C17   C23   S    
C13   C18   A    
C24   C26   A    
C46   H14   S    
Cu1   O9    S    
C38   C39   S    
C11   C14   A    
C25   O10   S    
C11   H34   S    
C3    C48   A    
C8    H33   S    
C31   H7    S    
C17   O9    A    
C16   C34   S    
Cu1   O6    S    
C22   C25   A    
C39   H20   S    
C31   C33   A    
C12   O3    A    
C3    C19   S    
C35   H12   S    
C1    C15   S    
C2    H17   S    
C38   O10   S    
C4    C18   S    
C27   C45   S    
C21   H36   S    
C9    C46   A    
C43   H32   S    
C42   H29   S    
C47   H15   S    
C33   H1    S    
C20   N1    D    
C46   C48   A    
C24   C35   A    
C32   C35   A    
C4    C6    A    
C41   H26   S    
C5    C7    A    
C16   O8    A    
C7    H23   S    
C28   C44   S    
C23   C44   A    
C40   H24   S    
C2    C4    A    
H38   N2    S    
C41   O2    S    
C13   H35   S    
C36   C45   A    
C34   C45   A    
C48   H16   S    
C17   O7    A    
C12   O5    A    
C1    O1    A    
C29   H5    S    
C23   C36   A    
C13   C15   A    
C24   H4    S    
C42   C43   S    
C32   H8    S    
Cu1   N2    S    
C36   H9    S    
C39   C40   S    
C10   H13   S    
C7    C9    A    
C22   C33   A    
C38   H19   S    
C9    H11   S    
Cu2   O8    S    
C12   C14   S    
C3    C5    A    
C41   H27   S    
C6    C8    A    
C22   H3    S    
C2    C47   A    
C25   C27   A    
C20   H37   S    
C26   C28   A    
C6    F2    S    
C37   C44   A    
C28   C30   A    
H2    N1    S    
C29   C31   A    
C30   C32   A    
C16   O6    A    
C1    O4    A    
C30   H6    S    
C40   H22   S    
C39   H21   S    
Cu2   O3    S    
Cu1   O5    S    
Cu2   N1    S    
C20   C21   S    
C8    C10   A    
Cu1   Cu2   S    
C10   C47   A    
C43   H30   S    
C40   H25   S    
C5    F1    S    
Cu1   O1    S    
C21   N2    D    
