data_mof_unit_44241.cif
_audit_creation_date              2012-12-10T17:16:49-0500
_audit_creation_method            fapswitch 2.2
_symmetry_space_group_name_H-M    P1
_symmetry_Int_Tables_number       1
_space_group_crystal_system       triclinic
_cell_length_a                    23.563195
_cell_length_b                    13.015773
_cell_length_c                    11.714378
_cell_angle_alpha                 100.411808
_cell_angle_beta                  94.075974
_cell_angle_gamma                 91.280784
_cell_volume                      3522.35649415

loop_
_atom_site_label
_atom_site_type_symbol
_atom_type_description
_atom_site_fract_x
_atom_site_fract_y
_atom_site_fract_z
_atom_type_partial_charge
C1    C     C_R   0.499307 0.299026 0.478236 0.840918
C2    C     C_R   0.500769 0.700946 0.521730 0.856147
C3    C     C_R   0.237723 0.563938 0.423804 -0.031439
C4    C     C_R   0.761188 0.467659 0.405004 -0.030056
C5    C     C_R   0.297477 0.563546 0.424314 0.199083
C6    C     C_R   0.701134 0.465239 0.397293 0.192287
C7    C     C_R   0.328839 0.508353 0.499801 -0.096971
C8    C     C_R   0.672158 0.496131 0.499596 -0.115231
C9    C     C_R   0.300388 0.456287 0.575108 -0.295814
C10   C     C_R   0.704025 0.527053 0.606714 -0.280685
C11   C     C_R   0.241181 0.457562 0.575901 0.041809
C12   C     C_R   0.763366 0.530700 0.615073 0.033677
C13   C     C_R   0.209683 0.511296 0.499961 0.232440
C14   C     C_R   0.792244 0.500298 0.513826 0.234070
C15   C     C_R   0.502028 0.814520 0.534207 -0.125252
C16   C     C_R   0.498528 0.185394 0.465585 -0.123413
C17   C     C_R   0.483041 0.013934 0.345106 0.255488
C18   C     C_R   0.518944 0.985807 0.654137 0.249329
C19   C     C_R   0.485980 0.122075 0.356453 -0.156331
C20   C     C_R   0.515324 0.877773 0.643030 -0.162914
C21   C     C_R   0.509536 0.140189 0.564123 -0.224379
C22   C     C_R   0.491278 0.859686 0.435593 -0.199925
C23   C     C_R   0.391114 0.502914 0.500168 0.865573
C24   C     C_R   0.609207 0.497898 0.499344 0.862761
C25   C     C_R   0.507608 0.031899 0.555111 0.056276
C26   C     C_R   0.493767 0.967945 0.444385 0.052350
C27   C     C_R   0.442685 0.406454 0.019494 -0.130830
C28   C     C_R   0.558935 0.589967 0.980070 -0.124107
C29   C     C_R   0.448883 0.413910 0.142002 0.449669
C30   C     C_R   0.551484 0.585240 0.858160 0.419499
C31   C     C_R   0.525459 0.537907 0.157887 0.052153
C32   C     C_R   0.474936 0.461252 0.841966 0.000510
C33   C     C_R   0.521599 0.531903 0.034871 -0.025326
C34   C     C_R   0.479291 0.466155 0.964903 -0.033911
C35   C     C_R   0.882719 0.596735 0.539563 0.590055
C36   C     C_R   0.117821 0.421516 0.454582 0.598011
C37   C     C_R   0.880799 0.410700 0.501091 0.574202
C38   C     C_R   0.123050 0.600245 0.547253 0.581555
C39   C     C_R   0.939741 0.409674 0.486808 -0.112077
C40   C     C_R   0.063099 0.603817 0.543454 -0.113841
C41   C     C_R   0.971255 0.506358 0.514039 -0.101850
C42   C     C_R   0.031045 0.508230 0.508617 -0.101346
C43   C     C_R   0.942864 0.601150 0.546578 -0.121201
C44   C     C_R   0.058938 0.414495 0.468257 -0.115385
C45   C     C_R   0.967952 0.315989 0.447621 0.254013
C46   C     C_R   0.034576 0.698341 0.575892 0.248526
C47   C     C_R   0.027341 0.318005 0.441983 0.251065
C48   C     C_R   0.975122 0.696569 0.581141 0.253525
Cu1   Cu    Cu3+1 0.504210 0.507730 0.615930 0.993750
Cu2   Cu    Cu3+1 0.495790 0.492270 0.384070 1.040975
H1    H     H_    0.442885 0.411518 0.786553 0.143247
H2    H     H_    0.557213 0.588373 0.213290 0.157800
H3    H     H_    0.324301 0.413412 0.632507 0.164826
H4    H     H_    0.682703 0.549081 0.685722 0.207014
H5    H     H_    0.480981 0.809701 0.352038 0.213136
H6    H     H_    0.519407 0.190135 0.647868 0.202923
H7    H     H_    0.523831 0.843408 0.719694 0.224944
H8    H     H_    0.477703 0.156464 0.279697 0.220899
N1    N     N_R   0.853597 0.502823 0.520164 -0.469522
N2    N     N_R   0.148534 0.511366 0.499553 -0.464581
N3    N     N_R   0.510550 0.519360 0.790130 -0.205206
N4    N     N_R   0.489450 0.480640 0.209870 -0.204906
O1    O     O_R   0.502990 0.354470 0.582000 -0.601307
O2    O     O_R   0.497010 0.645530 0.418000 -0.588354
O3    O     O_R   0.495870 0.341410 0.386200 -0.547634
O4    O     O_R   0.504130 0.658590 0.613800 -0.550713
O5    O     O_R   0.421440 0.506500 0.597920 -0.600441
O6    O     O_R   0.578560 0.493500 0.402080 -0.550429
O7    O     O_R   0.414320 0.493440 0.402120 -0.512557
O8    O     O_R   0.585680 0.506560 0.597880 -0.560963
O9    O     O_2   0.852849 0.684462 0.548258 -0.487900
O10   O     O_2   0.144745 0.340723 0.395682 -0.497815
O11   O     O_2   0.850240 0.321375 0.497767 -0.493283
O12   O     O_2   0.156262 0.683000 0.600729 -0.505695
Br1   Br    Br    0.926886 0.183830 0.388369 -0.339917
Br2   Br    Br    0.074026 0.834186 0.601412 -0.351735
Br3   Br    Br    0.598358 0.680048 0.793366 -0.536564
Br4   Br    Br    0.400479 0.322629 0.208868 -0.463267
C49   C     C_R   0.398486 0.334390 0.949382 0.094249
C50   C     C_R   0.340777 0.358028 0.952987 -0.090080
C51   C     C_R   0.299211 0.288556 0.888983 -0.118967
C52   C     C_R   0.314994 0.196163 0.819511 -0.107252
C53   C     C_R   0.372475 0.172891 0.814445 -0.099070
C54   C     C_R   0.414119 0.241540 0.879683 -0.112097
H9    H     H_    0.328080 0.429440 0.006371 0.163614
H10   H     H_    0.254817 0.306330 0.893993 0.158009
H11   H     H_    0.282745 0.142457 0.769895 0.140749
H12   H     H_    0.384754 0.101501 0.760533 0.159418
H13   H     H_    0.458506 0.223014 0.875964 0.183648
C55   C     C_R   0.607205 0.652843 0.048522 0.098733
C56   C     C_R   0.598229 0.750853 0.116042 -0.113127
C57   C     C_R   0.643805 0.808661 0.182257 -0.095606
C58   C     C_R   0.698498 0.769025 0.181100 -0.108857
C59   C     C_R   0.707709 0.671582 0.113636 -0.117401
C60   C     C_R   0.662236 0.613572 0.047368 -0.051879
H14   H     H_    0.555999 0.781776 0.117754 0.183436
H15   H     H_    0.636699 0.884062 0.234619 0.159155
H16   H     H_    0.733727 0.813780 0.232480 0.153659
H17   H     H_    0.750035 0.640934 0.112830 0.145277
H18   H     H_    0.669752 0.537974 0.995718 0.155714
Br5   Br    Br    0.063956 0.184574 0.410810 -0.341558
Br6   Br    Br    0.940919 0.826026 0.647870 -0.316552
C61   C     C_R   0.203829 0.616733 0.341699 0.132074
C62   C     C_R   0.201349 0.726145 0.361956 -0.032267
C63   C     C_R   0.167816 0.775415 0.286061 -0.085100
C64   C     C_R   0.136693 0.715837 0.189661 -0.089051
C65   C     C_R   0.139033 0.606875 0.169023 -0.149241
C66   C     C_R   0.172423 0.557314 0.244846 -0.127863
H19   H     H_    0.224995 0.772931 0.436843 0.170451
H20   H     H_    0.165844 0.859753 0.302130 0.168224
H21   H     H_    0.110730 0.754087 0.131028 0.154812
H22   H     H_    0.114885 0.560821 0.094421 0.134927
H23   H     H_    0.173777 0.472839 0.228324 0.168710
C67   C     C_R   0.792530 0.436883 0.299436 0.136616
C68   C     C_R   0.792442 0.331655 0.244184 -0.018097
C69   C     C_R   0.825328 0.301683 0.149803 -0.086709
C70   C     C_R   0.858977 0.376194 0.110955 -0.098459
C71   C     C_R   0.859497 0.480857 0.165999 -0.154011
C72   C     C_R   0.826028 0.511441 0.259169 -0.162405
H24   H     H_    0.767620 0.272861 0.275409 0.170854
H25   H     H_    0.825270 0.220497 0.107715 0.158438
H26   H     H_    0.884915 0.352726 0.038725 0.139972
H27   H     H_    0.886313 0.538172 0.137388 0.133786
H28   H     H_    0.826954 0.592763 0.301237 0.161566
Br7   Br    Br    0.335233 0.641446 0.323723 -0.488366
Br8   Br    Br    0.661122 0.418636 0.245773 -0.528803
C73   C     C_R   0.211706 0.399014 0.652674 0.104736
C74   C     C_R   0.180919 0.452177 0.742186 -0.152897
C75   C     C_R   0.147495 0.396199 0.805536 -0.160925
C76   C     C_R   0.144431 0.286995 0.779651 -0.099585
C77   C     C_R   0.175461 0.233595 0.691514 -0.110945
C78   C     C_R   0.209371 0.289295 0.628695 -0.095965
H29   H     H_    0.182007 0.536792 0.761337 0.169728
H30   H     H_    0.123542 0.437493 0.873919 0.140983
H31   H     H_    0.118233 0.243762 0.828192 0.161754
H32   H     H_    0.173087 0.149043 0.671592 0.171028
H33   H     H_    0.232310 0.247152 0.559038 0.162488
C79   C     C_R   0.794189 0.570369 0.730136 0.119180
C80   C     C_R   0.836706 0.512163 0.776354 -0.135381
C81   C     C_R   0.866864 0.552641 0.882656 -0.137597
C82   C     C_R   0.854180 0.650517 0.944663 -0.112608
C83   C     C_R   0.811112 0.707853 0.900786 -0.100040
C84   C     C_R   0.781220 0.668149 0.794025 -0.073013
H34   H     H_    0.846517 0.435606 0.730428 0.163885
H35   H     H_    0.900087 0.508034 0.916920 0.130728
H36   H     H_    0.877624 0.681983 0.026805 0.135376
H37   H     H_    0.801114 0.783395 0.949178 0.153343
H38   H     H_    0.748544 0.714335 0.760329 0.168019
Br9   Br    Br    0.463348 0.934566 0.191739 -0.488435
Br10  Br    Br    0.541572 0.064471 0.806419 -0.506556

loop_
_geom_bond_atom_site_label_1
_geom_bond_atom_site_label_2
_ccdc_geom_bond_type
C63   H20   S    
C16   C21   A    
Cu1   O1    S    
C27   C29   A    
Cu2   O2    S    
C41   C42   A    
C23   O7    A    
C76   H31   S    
C31   H2    S    
C74   C75   A    
C46   Br2   S    
C67   C68   A    
C24   O8    A    
C55   C60   A    
C39   C41   A    
C13   N2    S    
C72   H28   S    
C40   C46   A    
C14   N1    S    
C58   C59   A    
C47   Br5   S    
C17   C26   A    
C4    C67   S    
Cu2   O7    S    
C32   N3    A    
C27   C49   S    
C79   C84   A    
C62   H19   S    
C64   C65   A    
C52   H11   S    
C69   C70   A    
C35   N1    A    
C65   H22   S    
C23   O5    A    
Cu1   Cu2   S    
C73   C78   A    
C21   C25   A    
C17   C19   A    
C56   H14   S    
C71   C72   A    
C30   Br3   S    
C15   C22   A    
C29   Br4   S    
C1    O3    A    
C65   C66   A    
C31   C33   A    
C61   C66   A    
C35   C43   A    
C43   C48   A    
C51   H10   S    
C3    C13   A    
C44   C47   A    
C39   C45   A    
C40   C42   A    
C53   H12   S    
C35   O9    S    
C27   C34   A    
C41   C43   A    
C31   N4    A    
C84   H38   S    
C18   C25   A    
C42   C44   A    
C1    O1    A    
C62   C63   A    
C2    O2    A    
C57   H15   S    
C51   C52   A    
C64   H21   S    
C45   C47   A    
C19   H8    S    
C15   C20   A    
C46   C48   A    
Cu1   N3    S    
C69   H25   S    
C81   C82   A    
C6    Br8   S    
C4    C6    A    
C77   H32   S    
Cu1   O4    S    
C56   C57   A    
C5    C7    A    
C60   H18   S    
C6    C8    A    
C36   N2    A    
C78   H33   S    
C49   C50   A    
C32   C34   A    
C66   H23   S    
C11   C73   S    
C70   H26   S    
C32   H1    S    
C74   H29   S    
C50   H9    S    
C80   H34   S    
C53   C54   A    
C48   Br6   S    
C33   C34   A    
C1    C16   S    
C2    C15   S    
C9    C11   A    
C37   N1    A    
C10   C12   A    
C82   H36   S    
C38   N2    A    
C12   C14   A    
C28   C33   A    
C68   H24   S    
Cu1   O8    S    
Cu2   N4    S    
C12   C79   S    
C36   C44   A    
C9    H3    S    
C54   H13   S    
C73   C74   A    
C75   C76   A    
C38   O12   S    
C3    C61   S    
C7    C9    A    
C37   O11   S    
C29   N4    A    
Cu1   O5    S    
C83   H37   S    
C17   Br9   S    
C67   C72   A    
C50   C51   A    
C3    C5    A    
C81   H35   S    
C21   H6    S    
C80   C81   A    
C2    O4    A    
C22   H5    S    
C63   C64   A    
C70   C71   A    
C45   Br1   S    
C28   C30   A    
C76   C77   A    
C25   C26   A    
C37   C39   A    
C82   C83   A    
C38   C40   A    
C11   C13   A    
C55   C56   A    
C49   C54   A    
C59   H17   S    
C16   C19   A    
C7    C23   S    
C57   C58   A    
C8    C24   S    
C18   C20   A    
C71   H27   S    
C4    C14   A    
C59   C60   A    
C10   H4    S    
Cu2   O3    S    
C79   C80   A    
C24   O6    A    
C75   H30   S    
C36   O10   S    
C8    C10   A    
C52   C53   A    
C22   C26   A    
C30   N3    A    
C5    Br7   S    
C61   C62   A    
C83   C84   A    
C28   C55   S    
C68   C69   A    
C20   H7    S    
C18   Br10  S    
Cu2   O6    S    
C58   H16   S    
C77   C78   A    
