data_mof_unit_45004.cif
_audit_creation_date              2012-12-11T16:26:28-0500
_audit_creation_method            fapswitch 2.2
_symmetry_space_group_name_H-M    P1
_symmetry_Int_Tables_number       1
_space_group_crystal_system       triclinic
_cell_length_a                    13.984539
_cell_length_b                    13.993076
_cell_length_c                    31.813619
_cell_angle_alpha                 89.994992
_cell_angle_beta                  90.14804
_cell_angle_gamma                 120.034607
_cell_volume                      5389.53913216

loop_
_atom_site_label
_atom_site_type_symbol
_atom_type_description
_atom_site_fract_x
_atom_site_fract_y
_atom_site_fract_z
_atom_type_partial_charge
C1    C     C_R   0.565910 0.444925 0.810094 0.562809
C2    C     C_R   0.444750 0.566637 0.189571 0.549712
C3    C     C_3   0.208210 0.495469 0.479218 -0.296555
C4    C     C_3   0.357989 0.080608 0.040262 -0.289015
C5    C     C_3   0.552302 0.713451 0.477484 -0.297105
C6    C     C_3   0.364807 0.130591 0.546604 -0.284954
C7    C     C_3   0.186135 0.435154 0.937074 -0.317947
C8    C     C_3   0.701381 0.475854 0.520592 -0.306042
C9    C     C_3   0.261474 0.845370 0.946615 -0.297486
C10   C     C_3   0.830950 0.289373 0.520314 -0.305405
C11   C     C_3   0.562511 0.745011 0.938202 -0.316057
C12   C     C_R   0.434384 0.879394 0.310053 0.555383
C13   C     C_R   0.122093 0.555391 0.189480 0.553504
C14   C     C_1   0.033115 0.537654 0.015518 0.021113
C15   C     C_1   0.540882 0.020400 0.478683 0.011132
C16   C     C_1   0.465030 0.489553 0.016388 0.014667
C17   C     C_1   0.016533 0.568643 0.482286 0.013636
C18   C     C_1   0.523783 0.979945 0.016684 0.010252
C19   C     C_1   0.436508 0.439703 0.480677 0.000270
C20   C     C_1   0.542134 0.025231 0.516397 0.009957
C21   C     C_R   0.876194 0.432154 0.689277 0.554064
C22   C     C_1   0.028517 0.536117 0.977848 0.018185
C23   C     C_1   0.444212 0.430470 0.517800 0.001474
C24   C     C_1   0.526869 0.984881 0.979028 0.009233
C25   C     C_1   0.000131 0.559928 0.519418 0.012392
C26   C     C_1   0.466800 0.486541 0.978730 0.013620
C27   C     C_R   0.946486 0.479850 0.849128 0.018180
C28   C     C_R   0.535553 0.064288 0.648271 0.019599
C29   C     C_R   0.521028 0.464851 0.849547 0.018381
C30   C     C_R   0.929440 0.469709 0.647575 0.029542
C31   C     C_R   0.535465 0.056439 0.849698 0.016160
C32   C     C_R   0.555075 0.120921 0.810111 0.558562
C33   C     C_R   0.534087 0.455596 0.646338 0.026579
C34   C     C_R   0.480070 0.945350 0.349375 0.017313
C35   C     C_R   0.066425 0.538381 0.147842 0.014684
C36   C     C_R   0.459966 0.528600 0.352166 0.026675
C37   C     C_R   0.470453 0.933469 0.147866 0.014597
C38   C     C_R   0.076940 0.543077 0.353438 0.021251
C39   C     C_R   0.463138 0.527724 0.148304 0.017331
C40   C     C_R   0.951932 0.572502 0.869938 0.177804
C41   C     C_R   0.618182 0.047001 0.629872 0.194867
C42   C     C_R   0.429791 0.376183 0.870408 0.176871
C43   C     C_R   0.568187 0.443507 0.689124 0.546703
C44   C     C_R   0.977551 0.582245 0.635448 0.203708
C45   C     C_R   0.621757 0.044784 0.868335 0.180898
C46   C     C_R   0.420764 0.401248 0.634579 0.197559
C47   C     C_R   0.576991 0.955907 0.368539 0.186011
C48   C     C_R   0.066288 0.628288 0.127009 0.185906
C49   C     C_R   0.389208 0.417408 0.364802 0.199526
C50   C     C_R   0.572315 0.953808 0.130198 0.186184
C51   C     C_R   0.025208 0.603930 0.365787 0.197337
C52   C     C_R   0.375858 0.433758 0.128046 0.181957
C53   C     C_R   0.983426 0.592294 0.911974 -0.116727
C54   C     C_R   0.879462 0.434273 0.810025 0.559853
C55   C     C_R   0.618619 0.033166 0.586459 -0.125076
C56   C     C_R   0.411426 0.386169 0.912674 -0.121564
C57   C     C_R   0.998470 0.610686 0.593066 -0.115690
C58   C     C_R   0.616327 0.018257 0.910738 -0.116627
C59   C     C_R   0.392019 0.391001 0.592080 -0.113312
C60   C     C_R   0.597266 0.982835 0.411011 -0.123681
C61   C     C_R   0.056032 0.626664 0.083480 -0.108827
C62   C     C_R   0.379751 0.389952 0.407285 -0.134801
C63   C     C_R   0.589651 0.971365 0.087066 -0.115363
C64   C     C_R   0.008362 0.614217 0.408382 -0.097361
C65   C     C_R   0.554878 0.121752 0.689583 0.548227
C66   C     C_R   0.378633 0.422012 0.084679 -0.119212
C67   C     C_R   0.017383 0.527272 0.933019 -0.026389
C68   C     C_R   0.535447 0.030155 0.561308 -0.029003
C69   C     C_R   0.475679 0.485050 0.933904 -0.026812
C70   C     C_R   0.978376 0.530698 0.562875 -0.034481
C71   C     C_R   0.523347 0.994281 0.934264 -0.029512
C72   C     C_R   0.473389 0.436171 0.561271 -0.032401
C73   C     C_R   0.529727 0.010396 0.433780 -0.024189
C74   C     C_R   0.036670 0.534111 0.060498 -0.022548
C75   C     C_R   0.444992 0.468567 0.437118 -0.033839
C76   C     C_R   0.444287 0.567514 0.310647 0.552975
C77   C     C_R   0.510401 0.974373 0.061432 -0.023871
C78   C     C_R   0.037644 0.561632 0.438711 -0.025560
C79   C     C_R   0.468776 0.497982 0.061331 -0.022389
C80   C     C_R   0.029465 0.446484 0.911387 0.144313
C81   C     C_R   0.444712 0.031121 0.579567 0.133230
C82   C     C_R   0.554764 0.579162 0.912350 0.145347
C83   C     C_R   0.941300 0.420855 0.574581 0.130617
C84   C     C_R   0.429918 0.988277 0.915022 0.138583
C85   C     C_R   0.585727 0.495370 0.572281 0.139360
C86   C     C_R   0.445838 0.020455 0.413511 0.141985
C87   C     C_R   0.432701 0.877389 0.189383 0.548543
C88   C     C_R   0.018817 0.437647 0.080958 0.135682
C89   C     C_R   0.523825 0.576202 0.424967 0.135466
C90   C     C_R   0.415696 0.968878 0.078884 0.135945
C91   C     C_R   0.081241 0.494321 0.427069 0.135171
C92   C     C_R   0.562842 0.582057 0.081353 0.134966
C93   C     C_R   0.995023 0.423216 0.868772 0.219853
C94   C     C_R   0.442267 0.043935 0.623705 0.216297
C95   C     C_R   0.577306 0.569518 0.869537 0.221167
C96   C     C_R   0.915257 0.389392 0.617176 0.209676
C97   C     C_R   0.435233 0.018303 0.872119 0.220627
C98   C     C_R   0.124652 0.556312 0.310871 0.545996
C99   C     C_R   0.616800 0.504680 0.615101 0.211434
C100  C     C_R   0.420378 0.987696 0.370810 0.212196
C101  C     C_R   0.032521 0.438855 0.125284 0.225674
C102  C     C_R   0.531415 0.607149 0.382159 0.210887
C103  C     C_R   0.396555 0.951011 0.122639 0.220620
C104  C     C_R   0.102148 0.485442 0.384154 0.209554
C105  C     C_R   0.561631 0.595779 0.125539 0.222060
C106  C     C_3   0.082844 0.328505 0.044676 -0.291270
C107  C     C_3   0.436043 0.177299 0.438779 -0.303856
C108  C     C_3   0.661477 0.758623 0.046423 -0.288100
Cr1   Cr    Cr6+3 0.504240 0.249200 0.750000 1.112141
Cr2   Cr    Cr6+3 0.744960 0.495760 0.750000 1.111670
Cr3   Cr    Cr6+3 0.750800 0.255040 0.750000 1.112189
Cr4   Cr    Cr6+3 0.249200 0.504240 0.250000 1.112966
Cr5   Cr    Cr6+3 0.495760 0.744960 0.250000 1.109336
Cr6   Cr    Cr6+3 0.255040 0.750800 0.250000 1.114615
H1    H     H_    0.063309 0.698471 0.067500 0.142190
H2    H     H_    0.686212 0.018186 0.925547 0.148972
H3    H     H_    0.031472 0.695997 0.583742 0.152393
H4    H     H_    0.347477 0.315247 0.929238 0.144254
H5    H     H_    0.955816 0.658654 0.822364 0.337919
H6    H     H_    0.671248 0.016603 0.681402 0.334570
H7    H     H_    0.341720 0.294593 0.822983 0.337921
H8    H     H_    0.015484 0.643084 0.691761 0.327991
H9    H     H_    0.689602 0.030193 0.818126 0.333654
H10   H     H_    0.364662 0.390262 0.691285 0.327820
H11   H     H_    0.659610 0.969215 0.318484 0.338520
H12   H     H_    0.665778 0.981282 0.426375 0.141274
H13   H     H_    0.040467 0.695675 0.175098 0.338197
H14   H     H_    0.363468 0.353242 0.309105 0.328288
H15   H     H_    0.654400 0.983737 0.182037 0.335951
H16   H     H_    0.980308 0.619585 0.309595 0.328782
H17   H     H_    0.310794 0.344271 0.177215 0.338737
H18   H     H_    0.993532 0.283037 0.128419 0.339072
H19   H     H_    0.322859 0.049063 0.363379 0.338844
H20   H     H_    0.717534 0.712683 0.128643 0.335423
H21   H     H_    0.183956 0.407943 0.395583 0.332668
H22   H     H_    0.277773 0.986245 0.123561 0.335484
H23   H     H_    0.309439 0.353344 0.069041 0.129444
H24   H     H_    0.634777 0.764280 0.393070 0.348185
H25   H     H_    0.288161 0.010109 0.624619 0.335579
H26   H     H_    0.063512 0.333206 0.858695 0.331551
H27   H     H_    0.774701 0.567821 0.603044 0.327965
H28   H     H_    0.276657 0.960605 0.866212 0.331811
H29   H     H_    0.846665 0.230775 0.605335 0.343574
H30   H     H_    0.666221 0.728448 0.860006 0.332459
H31   H     H_    0.922207 0.270420 0.066472 0.247633
H32   H     H_    0.116367 0.307976 0.072734 0.167197
H33   H     H_    0.149227 0.405381 0.030171 0.164742
H34   H     H_    0.970807 0.662407 0.417777 0.155037
H35   H     H_    0.055209 0.260422 0.021466 0.150192
H36   H     H_    0.301000 0.018539 0.430841 0.262321
H37   H     H_    0.444660 0.211903 0.406670 0.154368
H38   H     H_    0.518864 0.213779 0.453762 0.154950
H39   H     H_    0.384433 0.200528 0.457750 0.129865
H40   H     H_    0.729532 0.662148 0.065270 0.246718
H41   H     H_    0.679641 0.809817 0.075189 0.170109
H42   H     H_    0.582279 0.744063 0.032547 0.162437
H43   H     H_    0.728365 0.804390 0.023254 0.149331
H44   H     H_    0.079510 0.354507 0.451074 0.255538
H45   H     H_    0.665021 0.981289 0.073410 0.136281
H46   H     H_    0.275548 0.519528 0.456009 0.134123
H47   H     H_    0.215676 0.443351 0.503859 0.148342
H48   H     H_    0.217563 0.571091 0.494440 0.168268
H49   H     H_    0.254352 0.917881 0.059468 0.259031
H50   H     H_    0.354986 0.125751 0.068494 0.135685
H51   H     H_    0.294886 0.073946 0.017360 0.148910
H52   H     H_    0.440484 0.128171 0.025335 0.177721
H53   H     H_    0.677125 0.698620 0.447485 0.255773
H54   H     H_    0.540203 0.767206 0.454995 0.134371
H55   H     H_    0.611352 0.765949 0.502264 0.152166
H56   H     H_    0.321371 0.306404 0.416929 0.142840
H57   H     H_    0.472245 0.656577 0.492725 0.161072
H58   H     H_    0.282090 0.961293 0.559032 0.244719
H59   H     H_    0.299536 0.119661 0.523987 0.144797
H60   H     H_    0.446592 0.192388 0.533770 0.155597
H61   H     H_    0.350773 0.162066 0.576622 0.169652
H62   H     H_    0.028782 0.300664 0.926044 0.267281
H63   H     H_    0.207974 0.382542 0.956267 0.132567
H64   H     H_    0.221046 0.516965 0.952677 0.153113
H65   H     H_    0.223498 0.445807 0.905412 0.144600
H66   H     H_    0.729980 0.624949 0.546752 0.256816
H67   H     H_    0.685311 0.026298 0.572244 0.142646
H68   H     H_    0.760730 0.521252 0.494964 0.149301
H69   H     H_    0.629642 0.401465 0.506843 0.152111
H70   H     H_    0.742191 0.449528 0.544170 0.132897
H71   H     H_    0.295672 0.005469 0.933079 0.262595
H72   H     H_    0.194485 0.833353 0.968428 0.147898
H73   H     H_    0.306398 0.806562 0.960841 0.161949
H74   H     H_    0.223975 0.803924 0.916300 0.134664
H75   H     H_    0.962094 0.291705 0.552857 0.258032
H76   H     H_    0.832805 0.230321 0.497475 0.149490
H77   H     H_    0.818677 0.350476 0.502445 0.158668
H78   H     H_    0.978795 0.657529 0.928588 0.149266
H79   H     H_    0.760313 0.243524 0.541997 0.130809
H80   H     H_    0.699094 0.725837 0.927253 0.268128
H81   H     H_    0.614192 0.819819 0.957396 0.133678
H82   H     H_    0.480961 0.696588 0.953782 0.152858
H83   H     H_    0.550764 0.771149 0.906540 0.143901
H84   H     H_    0.305568 0.348470 0.583114 0.150994
N1    N     N_2   0.990381 0.341998 0.056294 -0.505338
N2    N     N_2   0.335473 0.962190 0.940074 -0.503339
N3    N     N_2   0.934030 0.343902 0.543463 -0.495077
N4    N     N_2   0.616550 0.680153 0.934883 -0.502275
N5    N     N_2   0.384615 0.058341 0.436988 -0.499604
N6    N     N_2   0.655261 0.654758 0.056274 -0.502703
N7    N     N_2   0.101571 0.434508 0.458816 -0.497343
N8    N     N_2   0.335645 0.971208 0.051642 -0.507203
N9    N     N_2   0.595423 0.651721 0.456118 -0.496259
N10   N     N_2   0.360234 0.025971 0.552897 -0.498653
N11   N     N_2   0.067249 0.383284 0.933751 -0.506610
N12   N     N_2   0.666185 0.546688 0.539943 -0.492622
O1    O     O_R   0.480350 0.140770 0.796330 -0.416789
O2    O     O_R   0.140770 0.480350 0.203670 -0.422694
O3    O     O_R   0.519650 0.660420 0.296330 -0.424040
O4    O     O_R   0.339580 0.859230 0.203670 -0.417004
O5    O     O_R   0.514930 0.348530 0.793250 -0.500901
O6    O     O_R   0.833600 0.485070 0.706750 -0.482294
O7    O     O_R   0.651470 0.166400 0.793250 -0.501566
O8    O     O_R   0.514930 0.348530 0.706750 -0.499134
O9    O     O_R   0.833600 0.485070 0.793250 -0.503734
O10   O     O_R   0.651470 0.166400 0.706750 -0.490965
O11   O     O_R   0.348530 0.514930 0.293250 -0.482812
O12   O     O_R   0.660420 0.519650 0.703670 -0.432921
O13   O     O_R   0.485070 0.833600 0.206750 -0.501578
O14   O     O_R   0.166400 0.651470 0.293250 -0.498742
O15   O     O_R   0.348530 0.514930 0.206750 -0.502545
O16   O     O_R   0.485070 0.833600 0.293250 -0.493383
O17   O     O_R   0.166400 0.651470 0.206750 -0.497893
O18   O     O_3   0.666667 0.333333 0.750000 -0.284187
O19   O     O_3   0.333333 0.666667 0.250000 -0.285456
O20   O     O_3   0.923312 0.643033 0.850914 -0.645772
O21   O     O_3   0.700578 0.044821 0.652980 -0.643362
O22   O     O_3   0.359324 0.277221 0.851163 -0.641422
O23   O     O_R   0.859230 0.339580 0.796330 -0.419955
O24   O     O_3   0.003543 0.666466 0.663788 -0.651343
O25   O     O_3   0.714050 0.061764 0.846637 -0.647991
O26   O     O_3   0.335805 0.356499 0.663408 -0.661776
O27   O     O_3   0.652648 0.938829 0.347166 -0.641696
O28   O     O_3   0.079188 0.720377 0.147797 -0.637692
O29   O     O_3   0.326325 0.333744 0.336804 -0.653416
O30   O     O_3   0.655872 0.955116 0.153708 -0.658210
O31   O     O_3   0.990915 0.655323 0.337414 -0.657421
O32   O     O_3   0.285372 0.353393 0.149184 -0.659522
O33   O     O_3   0.017539 0.346983 0.147294 -0.646401
O34   O     O_R   0.480350 0.140770 0.703670 -0.428387
O35   O     O_3   0.337823 0.994760 0.349482 -0.653673
O36   O     O_3   0.652258 0.676791 0.147066 -0.647958
O37   O     O_3   0.151849 0.426114 0.371356 -0.646190
O38   O     O_3   0.305131 0.946722 0.141183 -0.628568
O39   O     O_3   0.603798 0.713593 0.368882 -0.624666
O40   O     O_3   0.353348 0.042535 0.643331 -0.651667
O41   O     O_3   0.005761 0.345052 0.845916 -0.650601
O42   O     O_3   0.726496 0.555747 0.627424 -0.653019
O43   O     O_3   0.345550 0.013641 0.851729 -0.641581
O44   O     O_3   0.871710 0.280833 0.629828 -0.629651
O45   O     O_R   0.660420 0.519650 0.796330 -0.420909
O46   O     O_3   0.654218 0.659378 0.846768 -0.650824
O47   O     O_R   0.859230 0.339580 0.703670 -0.426781
O48   O     O_R   0.140770 0.480350 0.296330 -0.428741
O49   O     O_R   0.519650 0.660420 0.203670 -0.422882
O50   O     O_R   0.339580 0.859230 0.296330 -0.427573

loop_
_geom_bond_atom_site_label_1
_geom_bond_atom_site_label_2
_ccdc_geom_bond_type
C3    H48   S    
C33   C46   A    
C76   O11   A    
C46   C59   A    
C102  O39   S    
C25   C70   S    
Cr4   O11   S    
C60   C73   A    
Cr2   O6    S    
C63   H45   S    
C91   C104  A    
C83   N3    S    
H24   O39   S    
C21   O47   A    
C85   N12   S    
Cr6   O19   S    
C88   C101  A    
Cr5   O16   S    
C27   C54   S    
H11   O27   S    
C54   O9    A    
H62   N11   S    
H14   O29   S    
C107  N5    S    
C66   C79   A    
H30   O46   S    
H22   O38   S    
C10   H76   S    
H28   O43   S    
Cr5   O19   S    
C18   C24   T    
C68   C81   A    
C14   C74   S    
C88   N1    S    
C28   C94   A    
C51   C64   A    
C11   H81   S    
H31   N1    S    
C52   O32   S    
C29   C42   A    
H16   O31   S    
C58   C71   A    
C6    H61   S    
C59   H84   S    
H80   N4    S    
C28   C41   A    
C4    H51   S    
C7    H63   S    
C36   C102  A    
C5    H54   S    
C48   O28   S    
Cr6   O4    S    
C41   C55   A    
C30   C96   A    
Cr1   O8    S    
C36   C76   S    
H5    O20   S    
C42   C56   A    
Cr6   O17   S    
C90   N8    S    
C76   O3    A    
C87   O4    A    
Cr5   O13   S    
C41   O21   S    
C73   C86   A    
H29   O44   S    
C98   O14   A    
C1    O5    A    
C34   C100  A    
C4    H50   S    
C100  O35   S    
Cr5   O3    S    
C57   C70   A    
C86   C100  A    
C44   C57   A    
C6    N10   S    
C32   O7    A    
C92   N6    S    
C9    N2    S    
C38   C98   S    
C59   C72   A    
H25   O40   S    
Cr4   O48   S    
C9    H74   S    
C31   C97   A    
C2    O49   A    
C47   C60   A    
C19   C75   S    
C106  H35   S    
C47   O27   S    
C64   H34   S    
C58   H2    S    
C50   C63   A    
C13   O2    A    
C30   C44   A    
C40   O20   S    
C51   O31   S    
H26   O41   S    
C64   C78   A    
H36   N5    S    
C8    N12   S    
C35   C48   A    
C94   O40   S    
H6    O21   S    
C7    N11   S    
Cr1   O18   S    
C20   C68   S    
C55   C68   A    
C72   C85   A    
C16   C26   T    
C15   C20   T    
C62   H56   S    
C65   O34   A    
H20   O36   S    
C77   C90   A    
C74   C88   A    
C91   N7    S    
C3    N7    S    
H21   O37   S    
H58   N10   S    
C43   O12   A    
C11   H82   S    
C66   H23   S    
C9    H72   S    
C10   H79   S    
C37   C50   A    
C82   N4    S    
C32   O1    A    
C17   C25   T    
C38   C51   A    
C6    H60   S    
Cr1   O34   S    
C9    H73   S    
C84   N2    S    
Cr4   O19   S    
C7    H64   S    
C39   C52   A    
C22   C67   S    
C33   C99   A    
C11   N4    S    
C46   O26   S    
C19   C23   T    
C11   H83   S    
C61   H1    S    
C85   C99   A    
C44   O24   S    
Cr4   O15   S    
C5    N9    S    
C103  O38   S    
C2    C39   S    
H18   O33   S    
C12   O16   A    
C31   C32   S    
C108  H42   S    
C27   C40   A    
C104  O37   S    
C90   C103  A    
C89   C102  A    
C1    C29   S    
C55   H67   S    
C21   O6    A    
C7    H65   S    
H66   N12   S    
C70   C83   A    
C79   C92   A    
C107  H39   S    
C81   N10   S    
H9    O25   S    
C107  H38   S    
C8    H69   S    
H40   N6    S    
C15   C73   S    
C87   O13   A    
C40   C53   A    
C49   O29   S    
H15   O30   S    
Cr2   O9    S    
C3    H46   S    
C61   C74   A    
C62   C75   A    
C27   C93   A    
C43   O8    A    
C35   C101  A    
Cr3   O10   S    
C84   C97   A    
C57   H3    S    
C12   C34   S    
C45   C58   A    
Cr2   O12   S    
Cr4   O2    S    
C52   C66   A    
C5    H57   S    
C29   C95   A    
C71   C84   A    
C63   C77   A    
C8    H68   S    
C39   C105  A    
C82   C95   A    
H8    O24   S    
H44   N7    S    
C56   H4    S    
C23   C72   S    
C37   C87   S    
Cr3   O18   S    
C67   C80   A    
C45   O25   S    
C10   N3    S    
C99   O42   S    
Cr1   O5    S    
H17   O32   S    
C13   O17   A    
C65   O10   A    
C38   C104  A    
C13   C35   S    
C108  H43   S    
C6    H59   S    
C78   C91   A    
Cr3   O7    S    
C21   C30   S    
H49   N8    S    
C10   H77   S    
C106  H32   S    
C16   C79   S    
H75   N3    S    
C14   C22   T    
C50   O30   S    
C28   C65   S    
C107  H37   S    
C108  N6    S    
Cr2   O18   S    
H27   O42   S    
C81   C94   A    
C106  H33   S    
C8    H70   S    
C48   C61   A    
C89   N9    S    
C108  H41   S    
C18   C77   S    
C83   C96   A    
C95   O46   S    
C60   H12   S    
C17   C78   S    
Cr3   O23   S    
Cr2   O45   S    
C4    H52   S    
C69   C82   A    
C97   O43   S    
C37   C103  A    
H71   N2    S    
C53   C67   A    
C53   H78   S    
C12   O50   A    
C105  O36   S    
C3    H47   S    
C96   O44   S    
C4    N8    S    
H10   O26   S    
C93   O41   S    
C92   C105  A    
C2    O15   A    
H13   O28   S    
C56   C69   A    
C31   C45   A    
C75   C89   A    
H19   O35   S    
H7    O22   S    
C26   C69   S    
C5    H55   S    
C106  N1    S    
C49   C62   A    
C98   O48   A    
C34   C47   A    
Cr5   O49   S    
C54   O23   A    
Cr6   O14   S    
C80   C93   A    
Cr1   O1    S    
C33   C43   S    
Cr6   O50   S    
C86   N5    S    
Cr3   O47   S    
C36   C49   A    
C1    O45   A    
C24   C71   S    
H53   N9    S    
C80   N11   S    
C101  O33   S    
C42   O22   S    
