data_mof_unit_52002.cif
_audit_creation_date              2012-12-10T17:33:16-0500
_audit_creation_method            fapswitch 2.2
_symmetry_space_group_name_H-M    P1
_symmetry_Int_Tables_number       1
_space_group_crystal_system       triclinic
_cell_length_a                    12.135501
_cell_length_b                    12.851866
_cell_length_c                    13.597295
_cell_angle_alpha                 91.244761
_cell_angle_beta                  79.098443
_cell_angle_gamma                 93.382229
_cell_volume                      2078.66746657

loop_
_atom_site_label
_atom_site_type_symbol
_atom_type_description
_atom_site_fract_x
_atom_site_fract_y
_atom_site_fract_z
_atom_type_partial_charge
C1    C     C_R   0.522615 0.701046 0.497040 0.951656
C2    C     C_R   0.152447 0.500056 0.438534 0.599439
C3    C     C_R   0.967661 0.495958 0.549590 -0.350788
C4    C     C_R   0.032444 0.501416 0.451704 -0.358414
C5    C     C_R   0.480434 0.504258 0.686528 0.869232
C6    C     C_R   0.519843 0.497669 0.313356 0.892493
C7    C     C_1   0.533743 0.490596 0.208922 -0.100854
C8    C     C_1   0.466399 0.510903 0.790945 -0.130118
C9    C     C_2   0.542491 0.478937 0.015589 0.423385
C10   C     C_2   0.456308 0.520497 0.984435 0.420369
C11   C     C_1   0.458195 0.516263 0.879128 -0.079444
C12   C     C_R   0.477580 0.300086 0.503478 0.944338
C13   C     C_1   0.541422 0.484266 0.120787 -0.060518
C14   C     C_R   0.463359 0.189823 0.519563 -0.366086
C15   C     C_R   0.537661 0.814361 0.500139 -0.364197
C16   C     C_R   0.653228 0.974617 0.463425 0.388406
C17   C     C_R   0.375049 0.039935 0.614205 0.398303
C18   C     C_R   0.643731 0.865238 0.462621 0.310215
C19   C     C_R   0.384336 0.148218 0.600421 0.322250
C20   C     C_R   0.444722 0.871924 0.543422 0.510961
C21   C     C_R   0.544615 0.128759 0.464593 0.542524
C22   C     C_3   0.289145 0.608393 0.008338 -0.099622
C23   C     C_R   0.458803 0.979358 0.555535 -0.296121
C24   C     C_3   0.707550 0.387817 0.991570 -0.150202
C25   C     C_3   0.551534 0.143867 0.297573 -0.310183
C26   C     C_3   0.288219 0.837007 0.476675 -0.144477
C27   C     C_3   0.374588 0.251872 0.738268 -0.092040
C28   C     C_3   0.809255 0.782606 0.457553 -0.031771
C29   C     C_3   0.208011 0.360741 0.340932 -0.119858
C30   C     C_3   0.780462 0.617987 0.676461 -0.167511
C31   C     C_3   0.171884 0.650336 0.726743 -0.139281
C32   C     C_3   0.809005 0.356919 0.279948 -0.158510
C33   C     C_R   0.555401 0.029178 0.497442 -0.274835
C34   C     C_R   0.975267 0.502813 0.370456 0.306467
C35   C     C_R   0.026140 0.497273 0.630584 0.340005
C36   C     C_R   0.858189 0.479104 0.387335 0.425445
C37   C     C_R   0.142516 0.525872 0.612453 0.436393
C38   C     C_R   0.847226 0.494139 0.562796 0.604136
H1    H     H_    0.243509 0.546748 0.970463 0.170328
H2    H     H_    0.204877 0.793959 0.489080 0.179217
H3    H     H_    0.339609 0.804075 0.407721 0.148989
H4    H     H_    0.274637 0.920331 0.464950 0.159138
H5    H     H_    0.395308 0.188224 0.784610 0.139787
H6    H     H_    0.320772 0.305421 0.788505 0.202200
H7    H     H_    0.453852 0.296049 0.705531 0.103042
H8    H     H_    0.793092 0.807010 0.537956 0.084809
H9    H     H_    0.892660 0.815983 0.420324 0.224923
H10   H     H_    0.815679 0.697017 0.453336 0.136761
H11   H     H_    0.845942 0.004572 0.568124 0.355638
H12   H     H_    0.327105 0.670943 0.955092 0.131869
H13   H     H_    0.250513 0.051861 0.858827 0.355590
H14   H     H_    0.266169 0.336557 0.272255 0.176935
H15   H     H_    0.233747 0.324037 0.405746 0.141633
H16   H     H_    0.121796 0.330667 0.334493 0.160377
H17   H     H_    0.728252 0.654711 0.629942 0.130109
H18   H     H_    0.865843 0.657840 0.665669 0.114473
H19   H     H_    0.739859 0.629835 0.755804 0.216412
H20   H     H_    0.227881 0.673804 0.780038 0.196095
H21   H     H_    0.083832 0.654513 0.767298 0.179478
H22   H     H_    0.188560 0.707214 0.664615 0.199627
H23   H     H_    0.226701 0.644581 0.067198 0.249006
H24   H     H_    0.896278 0.331123 0.258087 0.147865
H25   H     H_    0.766717 0.343379 0.214899 0.153397
H26   H     H_    0.761895 0.309121 0.342656 0.246601
H27   H     H_    0.042400 0.431588 0.136014 0.354262
H28   H     H_    0.026660 0.370810 0.869427 0.367582
H29   H     H_    0.667339 0.325288 0.043950 0.111647
H30   H     H_    0.754519 0.447519 0.030435 0.183323
H31   H     H_    0.769242 0.350953 0.932491 0.237817
H32   H     H_    0.604943 0.172014 0.226712 0.191548
H33   H     H_    0.472179 0.185542 0.308654 0.130519
H34   H     H_    0.533738 0.058496 0.288986 0.178021
N1    N     N_R   0.206090 0.519450 0.517820 -0.209239
N2    N     N_R   0.793910 0.480550 0.482180 -0.211418
O1    O     O_R   0.421240 0.658850 0.504760 -0.577173
O2    O     O_3   0.627463 0.434077 0.946002 -0.602036
O3    O     O_3   0.610287 0.165614 0.376367 -0.561837
O4    O     O_3   0.337542 0.824776 0.561798 -0.553867
O5    O     O_3   0.315532 0.212989 0.663803 -0.516152
O6    O     O_3   0.727388 0.810547 0.403002 -0.549846
O7    O     O_2   0.833186 0.029308 0.322580 -0.216171
O8    O     O_2   0.784518 0.155852 0.459019 -0.275808
O9    O     O_3   0.879245 0.993044 0.496673 -0.552094
O10   O     O_2   0.168545 0.945422 0.663123 -0.241310
O11   O     O_2   0.309797 0.893849 0.756404 -0.334463
O12   O     O_R   0.578760 0.341150 0.495240 -0.577713
O13   O     O_3   0.218175 0.070231 0.800261 -0.484017
O14   O     O_3   0.214859 0.470639 0.347795 -0.504725
O15   O     O_3   0.783699 0.509822 0.656662 -0.499928
O16   O     O_3   0.194467 0.547983 0.692689 -0.542102
O17   O     O_3   0.807850 0.463697 0.305362 -0.550540
O18   O     O_2   0.958732 0.601708 0.200626 -0.259712
O19   O     O_2   0.133371 0.632544 0.262589 -0.251271
O20   O     O_3   0.098847 0.453932 0.177225 -0.533768
O21   O     O_2   0.909069 0.525560 0.817930 -0.315202
O22   O     O_2   0.880750 0.355980 0.736967 -0.235698
O23   O     O_R   0.609960 0.646370 0.493320 -0.625098
O24   O     O_3   0.065859 0.394494 0.802365 -0.493678
O25   O     O_R   0.390040 0.353630 0.506680 -0.606627
O26   O     O_R   0.392060 0.507120 0.646890 -0.542460
O27   O     O_R   0.607940 0.492880 0.353110 -0.553780
O28   O     O_R   0.580780 0.494630 0.635450 -0.570772
O29   O     O_R   0.419220 0.505370 0.364550 -0.568916
O30   O     O_3   0.371272 0.565439 0.053891 -0.600844
S1    S     S_3+6 0.788658 0.041770 0.432797 0.076818
S2    S     S_3+6 0.266430 0.984212 0.709492 0.079183
S3    S     S_3+6 0.042177 0.551500 0.250732 0.064005
S4    S     S_3+6 0.965415 0.443088 0.749557 0.074169
Zn1   Zn    Zn3+2 0.373990 0.508340 0.507630 1.044805
Zn2   Zn    Zn3+2 0.626010 0.491660 0.492370 1.029082

loop_
_geom_bond_atom_site_label_1
_geom_bond_atom_site_label_2
_ccdc_geom_bond_type
C15   C18   A    
C28   H9    S    
O24   S4    S    
C38   O15   S    
C28   H8    S    
C17   C23   A    
C37   O16   S    
C25   O3    S    
C34   S3    S    
C31   H20   S    
C35   C37   A    
C27   O5    S    
O8    S1    D    
C32   O17   S    
C21   C33   A    
C29   H16   S    
O25   Zn1   S    
C30   H19   S    
C22   O30   S    
C6    O27   A    
C31   H21   S    
C9    C13   S    
C29   O14   S    
C35   S4    S    
C24   H29   S    
C27   H6    S    
C3    C38   A    
C23   C33   A    
O10   S2    D    
C5    O26   A    
C2    O14   S    
C1    C15   S    
C9    O2    S    
C9    C10   D    
C22   H12   S    
C27   H7    S    
O22   S4    D    
O26   Zn1   S    
C30   O15   S    
C24   H31   S    
O7    S1    D    
C15   C20   A    
C4    C34   A    
O20   S3    S    
O1    Zn1   S    
C1    O1    A    
H11   O9    S    
C32   H26   S    
C10   C11   S    
H13   O13   S    
C24   O2    S    
O27   Zn2   S    
C30   H18   S    
O9    S1    S    
C31   H22   S    
C2    C4    A    
C16   C33   A    
O18   S3    D    
C20   C23   A    
C3    C35   A    
C31   O16   S    
C25   H34   S    
C26   O4    S    
C6    O29   A    
C19   O5    S    
C2    N1    A    
C36   N2    A    
C16   S1    S    
C25   H33   S    
C36   O17   S    
C18   O6    S    
H27   O20   S    
C12   C14   S    
O28   Zn2   S    
C1    O23   A    
O11   S2    D    
C14   C21   A    
C38   N2    A    
C37   N1    A    
C5    O28   A    
C28   H10   S    
O12   Zn2   S    
C14   C19   A    
C32   H25   S    
N2    Zn2   S    
C5    C8    S    
C12   O25   A    
N1    Zn1   S    
C6    C7    S    
C12   O12   A    
C30   H17   S    
C20   O4    S    
O29   Zn1   S    
H28   O24   S    
C10   O30   S    
C32   H24   S    
C17   S2    S    
O19   S3    D    
C22   H23   S    
O23   Zn2   S    
C26   H2    S    
O13   S2    S    
C29   H15   S    
C8    C11   T    
C22   H1    S    
C17   C19   A    
C34   C36   A    
C26   H4    S    
C28   O6    S    
O21   S4    D    
C24   H30   S    
C27   H5    S    
C7    C13   T    
C16   C18   A    
C21   O3    S    
C25   H32   S    
C3    C4    A    
C26   H3    S    
C29   H14   S    
