data_mof_unit_36327.cif
_audit_creation_date              2012-10-26T18:28:26-0400
_audit_creation_method            fapswitch 2.2
_symmetry_space_group_name_H-M    P1
_symmetry_Int_Tables_number       1
_space_group_crystal_system       triclinic
_cell_length_a                    27.845465
_cell_length_b                    11.037493
_cell_length_c                    9.852759
_cell_angle_alpha                 111.426834
_cell_angle_beta                  98.439181
_cell_angle_gamma                 90.984832
_cell_volume                      2780.11670662

loop_
_atom_site_label
_atom_site_type_symbol
_atom_type_description
_atom_site_fract_x
_atom_site_fract_y
_atom_site_fract_z
_atom_type_partial_charge
C1    C     C_R   0.496457 0.253956 0.440359 0.557276
C2    C     C_R   0.870562 0.382956 0.479727 0.056833
C3    C     C_R   0.354470 0.498572 0.502852 0.028056
C4    C     C_R   0.645562 0.500224 0.496510 0.026395
C5    C     C_R   0.973120 0.384454 0.491386 0.004521
C6    C     C_R   0.025959 0.603806 0.486610 0.004955
C7    C     C_R   0.975603 0.608637 0.497462 0.004823
C8    C     C_R   0.024771 0.388772 0.506731 0.004470
C9    C     C_R   0.948919 0.496730 0.493520 0.018595
C10   C     C_R   0.050825 0.496202 0.497901 0.018696
C11   C     C_R   0.944851 0.270151 0.471202 -0.124448
C12   C     C_R   0.503539 0.746044 0.559640 0.557673
C13   C     C_R   0.052027 0.702608 0.462326 -0.125105
C14   C     C_R   0.894280 0.268016 0.465480 0.269430
C15   C     C_R   0.102194 0.701931 0.460156 0.268054
C16   C     C_R   0.407501 0.499700 0.500975 0.626315
C17   C     C_R   0.592523 0.500113 0.498989 0.622296
C18   C     C_R   0.051227 0.289732 0.533432 -0.124894
C19   C     C_R   0.951330 0.723140 0.515081 -0.124620
C20   C     C_2   0.494525 0.114275 0.406710 -0.097536
C21   C     C_2   0.505463 0.885726 0.593288 -0.096263
C22   C     C_2   0.500864 0.069648 0.516345 -0.140753
C23   C     C_R   0.101992 0.496007 0.500329 -0.119376
C24   C     C_2   0.499114 0.930352 0.483653 -0.140800
C25   C     C_2   0.503864 0.510233 0.080958 0.162106
C26   C     C_2   0.496125 0.489796 0.919048 0.159251
C27   C     C_R   0.178252 0.395162 0.523216 0.489231
C28   C     C_R   0.823075 0.608957 0.500370 0.488355
C29   C     C_R   0.178419 0.595996 0.484041 0.486823
C30   C     C_R   0.820023 0.387085 0.480964 0.487778
C31   C     C_R   0.285646 0.573770 0.632063 0.239784
C32   C     C_R   0.713652 0.435016 0.361226 0.238910
C33   C     C_R   0.336547 0.573940 0.632486 0.162874
C34   C     C_R   0.897790 0.497145 0.491923 -0.120381
C35   C     C_R   0.663039 0.428209 0.364806 0.163525
C36   C     C_R   0.322033 0.417714 0.376331 0.166092
C37   C     C_R   0.678638 0.572333 0.625966 0.165335
C38   C     C_R   0.271219 0.419308 0.376583 0.239784
C39   C     C_R   0.729325 0.564835 0.625492 0.238776
C40   C     C_R   0.253771 0.494362 0.505418 0.247726
C41   C     C_R   0.746225 0.499615 0.492413 0.245300
C42   C     C_R   0.127471 0.392394 0.521057 0.057854
C43   C     C_R   0.873867 0.611794 0.502747 0.056833
C44   C     C_R   0.101826 0.290033 0.540395 0.268864
C45   C     C_R   0.901197 0.726077 0.517570 0.269050
C46   C     C_R   0.127707 0.599378 0.481918 0.058123
Cu1   Cu    Cu3+1 0.508480 0.521810 0.644910 1.058807
Cu2   Cu    Cu3+1 0.491520 0.478190 0.355090 1.060091
H1    H     H_    0.468035 0.416918 0.844525 0.153562
H2    H     H_    0.487942 0.047547 0.291830 0.126723
H3    H     H_    0.570154 0.683147 0.892776 0.393191
H4    H     H_    0.429846 0.316853 0.107227 0.394060
H5    H     H_    0.251918 0.341992 0.163374 0.354363
H6    H     H_    0.748169 0.623127 0.838471 0.351539
H7    H     H_    0.103229 0.126873 0.576242 0.320250
H8    H     H_    0.903009 0.911170 0.546086 0.316715
H9    H     H_    0.646970 0.275903 0.182556 0.348027
H10   H     H_    0.355477 0.651538 0.845731 0.346080
H11   H     H_    0.707799 0.376779 0.147789 0.347732
H12   H     H_    0.531946 0.583131 0.155483 0.155549
H13   H     H_    0.287790 0.731396 0.806918 0.352283
H14   H     H_    0.889680 0.082589 0.435203 0.323921
H15   H     H_    0.103528 0.865075 0.424415 0.325365
H16   H     H_    0.961118 0.178928 0.454041 0.091412
H17   H     H_    0.033770 0.779823 0.439029 0.092328
H18   H     H_    0.033493 0.212647 0.554988 0.092383
H19   H     H_    0.970999 0.814028 0.532968 0.091362
H20   H     H_    0.492547 0.863876 0.368586 0.167579
H21   H     H_    0.507428 0.136124 0.631411 0.168424
H22   H     H_    0.318107 0.256050 0.204982 0.349653
H23   H     H_    0.684944 0.725068 0.808238 0.352127
H24   H     H_    0.512049 0.952455 0.708168 0.126902
N1    N     N_R   0.202177 0.495463 0.504721 -0.367594
N2    N     N_R   0.797729 0.498421 0.490759 -0.369741
N3    N     N_2   0.478780 0.445430 0.137360 -0.100028
N4    N     N_2   0.521220 0.554570 0.862640 -0.098910
O1    O     O_R   0.504520 0.332330 0.577400 -0.529054
O2    O     O_2   0.798805 0.715201 0.506911 -0.360003
O3    O     O_2   0.793092 0.281470 0.473840 -0.360987
O4    O     O_2   0.204149 0.691874 0.465451 -0.366005
O5    O     O_3   0.341038 0.334432 0.257352 -0.679633
O6    O     O_3   0.660557 0.651332 0.749266 -0.677426
O7    O     O_3   0.555726 0.645081 0.955646 -0.616664
O8    O     O_3   0.444276 0.354913 0.044355 -0.618270
O9    O     O_3   0.237449 0.351792 0.252462 -0.650643
O10   O     O_3   0.763388 0.619304 0.752392 -0.649301
O11   O     O_3   0.126546 0.190946 0.566474 -0.602388
O12   O     O_R   0.495480 0.667670 0.422600 -0.529979
O13   O     O_3   0.878675 0.840504 0.535977 -0.601126
O14   O     O_3   0.630208 0.349801 0.243440 -0.670986
O15   O     O_3   0.369354 0.646452 0.757003 -0.671060
O16   O     O_3   0.732648 0.380107 0.232265 -0.648495
O17   O     O_3   0.265545 0.652217 0.751194 -0.649411
O18   O     O_3   0.867664 0.153831 0.444719 -0.595117
O19   O     O_3   0.126577 0.800844 0.436423 -0.598285
O20   O     O_R   0.490210 0.295500 0.332650 -0.490015
O21   O     O_R   0.509790 0.704500 0.667350 -0.490403
O22   O     O_R   0.437420 0.518430 0.622370 -0.472303
O23   O     O_R   0.562580 0.481570 0.377630 -0.468334
O24   O     O_R   0.423110 0.481600 0.377610 -0.457047
O25   O     O_R   0.576890 0.518400 0.622390 -0.455792
O26   O     O_2   0.203880 0.298723 0.543381 -0.362013

loop_
_geom_bond_atom_site_label_1
_geom_bond_atom_site_label_2
_ccdc_geom_bond_type
Cu1   O25   S    
C1    O1    A    
C28   N2    A    
C39   C41   A    
C13   H17   S    
C31   C40   A    
Cu1   O22   S    
Cu1   N4    S    
C5    C11   A    
C33   O15   S    
C15   O19   S    
C30   N2    A    
C11   C14   A    
H13   O17   S    
N3    O8    S    
C29   N1    A    
C3    C33   A    
H15   O19   S    
C40   N1    S    
H4    O8    S    
H22   O5    S    
C17   O25   A    
C20   H2    S    
C41   N2    S    
C26   N4    D    
C32   C41   A    
Cu2   O12   S    
C19   H19   S    
C25   H12   S    
C44   O11   S    
C45   O13   S    
H10   O15   S    
C22   H21   S    
H23   O6    S    
C2    C34   A    
C4    C35   A    
C23   C46   A    
Cu2   N3    S    
C42   C44   A    
N4    O7    S    
Cu2   O24   S    
H9    O14   S    
C12   O12   A    
C38   O9    S    
C32   C35   A    
C11   H16   S    
C26   H1    S    
H6    O10   S    
C16   O24   A    
C21   H24   S    
C25   C26   S    
C31   O17   S    
C12   C21   S    
C8    C18   A    
C25   N3    D    
C5    C9    A    
C18   C44   A    
C28   C43   A    
C17   O23   A    
C23   C42   A    
Cu1   Cu2   S    
C36   O5    S    
C31   C33   A    
C43   C45   A    
C12   O21   A    
C30   O3    S    
H8    O13   S    
C20   C22   D    
C7    C19   A    
H14   O18   S    
C9    C34   A    
C22   C24   S    
C37   O6    S    
C4    C17   S    
H3    O7    S    
C28   O2    S    
C7    C9    A    
Cu2   O23   S    
C1    C20   S    
Cu2   O20   S    
C34   C43   A    
C6    C10   A    
C5    C8    A    
C19   C45   A    
C6    C7    A    
C10   C23   A    
C18   H18   S    
C27   O26   S    
Cu1   O21   S    
C29   C46   A    
C2    C30   A    
C13   C15   A    
C37   C39   A    
C6    C13   A    
C38   C40   A    
C27   C42   A    
C16   O22   A    
C32   O16   S    
C29   O4    S    
C3    C36   A    
C1    O20   A    
C36   C38   A    
H11   O16   S    
H7    O11   S    
C2    C14   A    
C24   H20   S    
C35   O14   S    
C4    C37   A    
C8    C10   A    
C21   C24   D    
Cu1   O1    S    
H5    O9    S    
C15   C46   A    
C27   N1    A    
C14   O18   S    
C3    C16   S    
C39   O10   S    
