data_mof_unit_19824.cif
_audit_creation_date              2012-12-10T16:50:58-0500
_audit_creation_method            fapswitch 2.2
_symmetry_space_group_name_H-M    P1
_symmetry_Int_Tables_number       1
_space_group_crystal_system       triclinic
_cell_length_a                    7.718663
_cell_length_b                    8.566876
_cell_length_c                    10.929598
_cell_angle_alpha                 91.283804
_cell_angle_beta                  86.265255
_cell_angle_gamma                 93.716879
_cell_volume                      719.546021882

loop_
_atom_site_label
_atom_site_type_symbol
_atom_type_description
_atom_site_fract_x
_atom_site_fract_y
_atom_site_fract_z
_atom_type_partial_charge
C1    C     C_R   0.545961 0.794925 0.496728 0.968792
C2    C     C_R   0.956394 0.412780 0.054252 -0.255401
C3    C     C_R   0.030402 0.566642 0.073392 -0.155416
C4    C     C_R   0.969598 0.433358 0.926608 -0.155416
C5    C     C_R   0.187938 0.583034 0.133464 0.606960
C6    C     C_R   0.812062 0.416965 0.866536 0.606960
C7    C     C_R   0.345101 0.537487 0.070248 -0.045330
C8    C     C_R   0.654899 0.462512 0.929751 -0.045330
C9    C     C_R   0.355960 0.552329 0.943045 0.026650
C10   C     C_R   0.644040 0.447671 0.056955 0.026650
C11   C     C_R   0.492431 0.490519 0.127721 -0.192133
C12   C     C_R   0.454039 0.205075 0.503272 0.968792
C13   C     C_R   0.507569 0.509481 0.872279 -0.192133
C14   C     C_2   0.570323 0.958310 0.494831 -0.351961
C15   C     C_2   0.429677 0.041690 0.505169 -0.351961
C16   C     C_R   0.503619 0.504507 0.739886 0.909896
C17   C     C_R   0.496381 0.495493 0.260114 0.909896
C18   C     C_R   0.212764 0.618827 0.892646 -0.152701
C19   C     C_R   0.787235 0.381173 0.107354 -0.152701
C20   C     C_R   0.043605 0.587220 0.945748 -0.255401
F1    F     F_    0.196172 0.693591 0.224606 -0.659640
F2    F     F_    0.803828 0.306408 0.775394 -0.659640
H1    H     H_    0.060179 0.355566 0.880053 0.203904
H2    H     H_    0.985298 0.615273 0.594468 0.183873
H3    H     H_    0.939821 0.644434 0.119947 0.203904
H4    H     H_    0.230128 0.696634 0.815388 0.169366
H5    H     H_    0.769872 0.303365 0.184612 0.169366
H6    H     H_    0.962472 0.676865 0.915812 0.153502
H7    H     H_    0.037528 0.323135 0.084188 0.153502
H8    H     H_    0.703116 0.009446 0.484963 0.187892
H9    H     H_    0.296884 0.990554 0.515037 0.187892
H10   H     H_    0.014702 0.384727 0.405532 0.183873
N1    N     N_2   0.950330 0.457950 0.466250 -0.139876
N2    N     N_2   0.049670 0.542050 0.533750 -0.139876
O1    O     O_R   0.389250 0.738570 0.508280 -0.600386
O2    O     O_R   0.610750 0.261430 0.491720 -0.600386
O3    O     O_R   0.678390 0.711630 0.486650 -0.633918
O4    O     O_R   0.321610 0.288370 0.513350 -0.633918
O5    O     O_R   0.355430 0.513480 0.694040 -0.640706
O6    O     O_R   0.644570 0.486520 0.305960 -0.640706
O7    O     O_R   0.644570 0.486540 0.672410 -0.574786
O8    O     O_R   0.355430 0.513460 0.327590 -0.574786
Zn1   Zn    Zn3+2 0.306940 0.517990 0.514440 0.991418
Zn2   Zn    Zn3+2 0.693060 0.482010 0.485560 0.991418

loop_
_geom_bond_atom_site_label_1
_geom_bond_atom_site_label_2
_ccdc_geom_bond_type
C2    C4    A    
C5    C7    A    
C15   H9    S    
C8    C13   A    
C12   O2    A    
O1    Zn1   S    
C18   H4    S    
C12   C15   S    
C1    O3    A    
C10   C19   A    
H10   N1    S    
O3    Zn2   S    
C2    C3    A    
C5    F1    S    
C3    C20   A    
C7    C11   A    
C14   H8    S    
C2    H7    S    
C6    C8    A    
C8    C10   A    
N1    N2    D    
C18   C20   A    
C12   O4    A    
O7    Zn2   S    
O4    Zn1   S    
O2    Zn2   S    
C10   C11   A    
C16   O5    A    
C4    C20   A    
C9    C18   A    
O6    Zn2   S    
C3    H3    S    
C19   H5    S    
C1    O1    A    
C4    C6    A    
O8    Zn1   S    
C13   C16   S    
C7    C9    A    
C4    H1    S    
C9    C13   A    
C17   O8    A    
C11   C17   S    
O5    Zn1   S    
C1    C14   S    
C20   H6    S    
C2    C19   A    
C14   C15   D    
N1    Zn2   S    
C16   O7    A    
H2    N2    S    
N2    Zn1   S    
C3    C5    A    
C17   O6    A    
C6    F2    S    
