data_mof_unit_55814.cif
_audit_creation_date              2012-10-26T19:24:17-0400
_audit_creation_method            fapswitch 2.2
_symmetry_space_group_name_H-M    P1
_symmetry_Int_Tables_number       1
_space_group_crystal_system       triclinic
_cell_length_a                    27.821941
_cell_length_b                    10.862199
_cell_length_c                    9.56981
_cell_angle_alpha                 90.346584
_cell_angle_beta                  90.001305
_cell_angle_gamma                 92.549593
_cell_volume                      2889.15210677

loop_
_atom_site_label
_atom_site_type_symbol
_atom_type_description
_atom_site_fract_x
_atom_site_fract_y
_atom_site_fract_z
_atom_type_partial_charge
C1    C     C_R   0.503842 0.263066 0.500371 0.554140
C2    C     C_R   0.972514 0.396503 0.455553 0.017888
C3    C     C_R   0.976525 0.610892 0.544289 0.018086
C4    C     C_R   0.407496 0.499754 0.499982 0.559123
C5    C     C_R   0.949280 0.503930 0.499899 0.034043
C6    C     C_R   0.943606 0.294623 0.406595 -0.140960
C7    C     C_R   0.893746 0.296713 0.405736 -0.111280
C8    C     C_R   0.870573 0.400427 0.452903 0.024548
C9    C     C_R   0.898150 0.504390 0.499860 -0.027055
C10   C     C_R   0.874452 0.608795 0.546796 0.024849
C11   C     C_R   0.823951 0.607326 0.545920 0.397758
C12   C     C_R   0.278734 0.492701 0.373698 -0.055138
C13   C     C_R   0.820156 0.402710 0.453817 0.398503
C14   C     C_R   0.721104 0.503903 0.373337 -0.056638
C15   C     C_R   0.670974 0.502669 0.373218 -0.146515
C16   C     C_R   0.497350 0.737625 0.501532 0.538852
C17   C     C_R   0.671037 0.504952 0.626816 -0.149233
C18   C     C_R   0.721176 0.506288 0.626602 -0.056677
C19   C     C_R   0.746377 0.505450 0.499940 0.241764
C20   C     C_R   0.023560 0.394535 0.460608 0.018336
C21   C     C_R   0.050836 0.502968 0.500020 0.034204
C22   C     C_R   0.027634 0.611883 0.539388 0.018055
C23   C     C_R   0.253686 0.501011 0.500057 0.242586
C24   C     C_R   0.048548 0.287191 0.428383 -0.141226
C25   C     C_R   0.106530 0.717303 0.570167 -0.110922
C26   C     C_R   0.951428 0.713292 0.593109 -0.141487
C27   C     C_R   0.901497 0.712088 0.593920 -0.112615
C28   C     C_R   0.592503 0.500833 0.500032 0.537212
C29   C     C_R   0.056649 0.718685 0.571750 -0.140792
C30   C     C_R   0.531161 0.122392 0.755238 -0.091085
C31   C     C_R   0.525505 0.064429 0.883979 -0.128798
C32   C     C_R   0.501737 0.949619 0.891160 -0.122683
C33   C     C_R   0.488124 0.887548 0.768532 -0.093027
C34   C     C_R   0.101965 0.502476 0.500066 -0.026993
C35   C     C_R   0.498620 0.939525 0.635545 0.026405
C36   C     C_R   0.513069 0.065346 0.631077 0.027876
C37   C     C_R   0.508158 0.129269 0.503156 -0.005602
C38   C     C_R   0.500775 0.063063 0.378564 -0.155952
C39   C     C_R   0.496663 0.935873 0.380033 -0.157860
C40   C     C_R   0.176071 0.396068 0.465372 0.398282
C41   C     C_R   0.495485 0.872314 0.507000 -0.004600
C42   C     C_R   0.563968 0.664176 0.145311 -0.099362
C43   C     C_R   0.595137 0.744407 0.073380 -0.178474
C44   C     C_R   0.595194 0.744152 0.929450 -0.165763
C45   C     C_R   0.125580 0.394636 0.464526 0.024577
C46   C     C_R   0.564008 0.663846 0.856633 -0.094172
C47   C     C_R   0.531434 0.580699 0.925610 0.145881
C48   C     C_R   0.531416 0.580745 0.075378 0.153612
C49   C     C_R   0.470232 0.422918 0.073449 -0.010254
C50   C     C_R   0.470248 0.422947 0.925355 -0.011225
C51   C     C_R   0.180046 0.607417 0.534822 0.398721
C52   C     C_R   0.279050 0.508767 0.626392 -0.055466
C53   C     C_R   0.329158 0.508095 0.626546 -0.142810
C54   C     C_R   0.328850 0.492384 0.373493 -0.141538
C55   C     C_R   0.098458 0.287616 0.430039 -0.112353
C56   C     C_R   0.129624 0.609817 0.535651 0.024331
C57   C     C_R   0.354546 0.500026 0.500004 0.004535
C58   C     C_R   0.645458 0.502733 0.500037 0.001937
Cu1   Cu    Cu3+1 0.500000 0.499990 0.640660 0.912386
Cu2   Cu    Cu3+1 0.500000 0.500010 0.359340 0.926590
H1    H     H_    0.347401 0.485949 0.274407 0.129559
H2    H     H_    0.550677 0.210632 0.754378 0.148986
H3    H     H_    0.538312 0.110247 0.978537 0.114327
H4    H     H_    0.259302 0.486900 0.275665 0.130985
H5    H     H_    0.494732 0.907257 0.991686 0.116482
H6    H     H_    0.467897 0.801358 0.781184 0.154586
H7    H     H_    0.493581 0.887370 0.280949 0.136865
H8    H     H_    0.445862 0.359790 0.128473 0.117850
H9    H     H_    0.567214 0.671896 0.255423 0.186349
H10   H     H_    0.619486 0.807197 0.130077 0.133152
H11   H     H_    0.619489 0.806953 0.873445 0.138388
H12   H     H_    0.259855 0.514933 0.724445 0.131001
H13   H     H_    0.566949 0.671897 0.746591 0.189245
H14   H     H_    0.445906 0.359794 0.869401 0.125889
H15   H     H_    0.115735 0.202977 0.404180 0.167234
H16   H     H_    0.652273 0.501484 0.273923 0.134170
H17   H     H_    0.740383 0.503707 0.275044 0.132383
H18   H     H_    0.873375 0.216101 0.367458 0.168815
H19   H     H_    0.958249 0.211771 0.365670 0.110846
H20   H     H_    0.030717 0.199897 0.403423 0.108909
H21   H     H_    0.347952 0.514164 0.725620 0.130092
H22   H     H_    0.126982 0.801566 0.596108 0.169607
H23   H     H_    0.969165 0.795891 0.633954 0.110191
H24   H     H_    0.652378 0.505426 0.726132 0.132300
H25   H     H_    0.884141 0.793045 0.632129 0.167194
H26   H     H_    0.740500 0.507249 0.724855 0.132775
H27   H     H_    0.042100 0.806263 0.596781 0.109501
H28   H     H_    0.498133 0.109513 0.279160 0.134945
N1    N     N_R   0.202150 0.501514 0.500084 -0.398710
N2    N     N_R   0.797942 0.505213 0.499857 -0.397921
N3    N     N_R   0.500460 0.501210 0.147910 -0.243864
N4    N     N_R   0.500480 0.501290 0.852040 -0.251062
O1    O     O_R   0.500000 0.319640 0.618810 -0.508537
O2    O     O_R   0.569730 0.499970 0.618800 -0.526514
O3    O     O_R   0.569740 0.499990 0.381230 -0.520356
O4    O     O_2   0.198951 0.292748 0.432696 -0.491644
O5    O     O_2   0.793505 0.302921 0.410194 -0.494417
O6    O     O_2   0.206806 0.710254 0.567531 -0.490521
O7    O     O_2   0.801007 0.707457 0.589636 -0.496660
O8    O     O_R   0.500000 0.319660 0.381240 -0.501338
O9    O     O_R   0.430260 0.500010 0.618770 -0.501755
O10   O     O_R   0.430270 0.500030 0.381200 -0.498756
O11   O     O_R   0.500000 0.680340 0.618760 -0.535143
O12   O     O_R   0.500000 0.680360 0.381190 -0.521953

loop_
_geom_bond_atom_site_label_1
_geom_bond_atom_site_label_2
_ccdc_geom_bond_type
C10   C27   A    
C34   C56   A    
C8    C13   A    
C22   C29   A    
C13   N2    A    
C47   N4    A    
C35   C36   A    
C25   C56   A    
C23   C52   A    
C7    C8    A    
C39   C41   A    
C31   C32   A    
C24   C55   A    
C12   C23   A    
C26   C27   A    
C18   H26   S    
C28   O3    A    
C28   O2    A    
C36   C37   A    
C49   H8    S    
C49   N3    A    
C18   C19   A    
C50   H14   S    
C30   C31   A    
C12   H4    S    
C26   H23   S    
C44   H11   S    
C53   H21   S    
C51   C56   A    
C14   H17   S    
C27   H25   S    
C16   O12   A    
C20   C24   A    
C44   C46   A    
C8    C9    A    
C48   N3    A    
C4    O10   A    
C4    C57   S    
C23   N1    S    
Cu1   O2    S    
C40   N1    A    
C9    C10   A    
C1    C37   S    
C17   C58   A    
C55   H15   S    
C51   O6    S    
C15   H16   S    
Cu1   Cu2   S    
C21   C22   A    
C2    C6    A    
C40   O4    S    
Cu2   O10   S    
C1    O8    A    
C24   H20   S    
C33   H6    S    
C25   C29   A    
C40   C45   A    
C2    C20   A    
Cu1   O9    S    
C31   H3    S    
C53   C57   A    
C21   C34   A    
Cu2   O8    S    
C42   H9    S    
C38   H28   S    
C43   C44   A    
C5    C9    A    
C37   C38   A    
C52   H12   S    
C16   O11   A    
C47   C48   A    
C4    O9    A    
C17   C18   A    
C34   C45   A    
C42   C48   A    
C7    H18   S    
C50   N4    A    
C43   H10   S    
C30   H2    S    
C25   H22   S    
C15   C58   A    
C2    C5    A    
C42   C43   A    
C52   C53   A    
Cu2   N3    S    
C46   C47   A    
C39   H7    S    
C14   C19   A    
C3    C26   A    
C3    C5    A    
C6    C7    A    
C54   H1    S    
C28   C58   S    
C30   C36   A    
C17   H24   S    
Cu1   O11   S    
C32   C33   A    
C19   N2    S    
C51   N1    A    
C11   N2    A    
C6    H19   S    
C38   C39   A    
C11   O7    S    
C33   C35   A    
Cu1   N4    S    
C13   O5    S    
C35   C41   A    
C29   H27   S    
C10   C11   A    
Cu2   O3    S    
C20   C21   A    
C45   C55   A    
C1    O1    A    
C49   C50   A    
C14   C15   A    
C3    C22   A    
Cu1   O1    S    
Cu2   O12   S    
C16   C41   S    
C46   H13   S    
C12   C54   A    
C32   H5    S    
C54   C57   A    
