data_mof_unit_8208.cif
_audit_creation_date              2012-12-11T18:07:22-0500
_audit_creation_method            fapswitch 2.2
_symmetry_space_group_name_H-M    P1
_symmetry_Int_Tables_number       1
_space_group_crystal_system       triclinic
_cell_length_a                    8.339446
_cell_length_b                    12.870623
_cell_length_c                    26.671297
_cell_angle_alpha                 95.01774
_cell_angle_beta                  93.871022
_cell_angle_gamma                 81.31003
_cell_volume                      2814.73679476

loop_
_atom_site_label
_atom_site_type_symbol
_atom_type_description
_atom_site_fract_x
_atom_site_fract_y
_atom_site_fract_z
_atom_type_partial_charge
Ba1   Ba    Ba6+2 0.859560 0.448380 0.523550 1.759352
Ba2   Ba    Ba6+2 0.330270 0.551530 0.476440 1.738411
C1    C     C_3   0.697594 0.232453 0.753738 -0.211828
C2    C     C_R   0.884555 0.611297 0.173921 0.628777
C3    C     C_2   0.743525 0.565115 0.269271 -0.049481
C4    C     C_3   0.146355 0.239803 0.677194 0.403038
C5    C     C_3   0.725085 0.592447 0.324977 -0.054453
C6    C     C_1   0.977395 0.475051 0.341093 0.051669
C7    C     C_2   0.016969 0.477577 0.293368 -0.100270
C8    C     C_2   0.891359 0.519866 0.253266 0.195886
C9    C     C_R   0.047564 0.534932 0.103530 -0.078784
C10   C     C_R   0.087699 0.441757 0.128659 -0.037070
C11   C     C_R   0.183638 0.355377 0.104470 0.005185
C12   C     C_3   0.689172 0.203721 0.697284 0.697371
C13   C     C_R   0.942336 0.619035 0.125883 -0.005304
C14   C     C_2   0.832392 0.516632 0.356709 -0.247589
C15   C     C_2   0.342951 0.492088 0.645961 -0.301802
C16   C     C_3   0.187851 0.220254 0.732745 0.168364
C17   C     C_R   0.285644 0.467046 0.986962 -0.103912
C18   C     C_R   0.127577 0.642956 0.981459 0.053611
C19   C     C_R   0.229482 0.554971 0.959057 0.030269
C20   C     C_R   0.415145 0.393536 0.968083 0.269286
C21   C     C_R   0.433811 0.379982 0.915496 0.344886
C22   C     C_R   0.367787 0.464449 0.884905 -0.134200
C23   C     C_3   0.612280 0.734271 0.634339 0.277162
C24   C     C_R   0.279203 0.555808 0.908857 -0.119171
C25   C     C_R   0.237610 0.647367 0.882509 -0.008812
C26   C     C_R   0.279835 0.646225 0.831934 0.713793
C27   C     C_R   0.388728 0.463697 0.832018 0.693586
C28   C     C_3   0.196387 0.223162 0.420342 0.320264
C29   C     C_2   0.489569 0.517830 0.729292 -0.142474
C30   C     C_3   0.504091 0.504669 0.672346 -0.010471
C31   C     C_1   0.208397 0.542994 0.664617 -0.097818
C32   C     C_2   0.191062 0.560039 0.714945 0.381924
C33   C     C_2   0.343459 0.544709 0.750316 0.154130
C34   C     C_3   0.561062 0.763381 0.688366 -0.342830
C35   C     C_R   0.217527 0.458039 0.033742 0.067780
C36   C     C_R   0.111017 0.543466 0.055671 0.070364
C37   C     C_R   0.066775 0.636839 0.030012 0.025037
C38   C     C_R   0.243943 0.362781 0.057570 0.023995
C39   C     C_R   0.898008 0.710442 0.100040 0.017411
C40   C     C_3   0.173929 0.107778 0.409888 0.049454
C41   C     C_R   0.092668 0.734433 0.954503 -0.083548
C42   C     C_R   0.148981 0.736969 0.906576 -0.024636
C43   C     C_R   0.958426 0.719287 0.053334 -0.090165
C44   C     C_R   0.754912 0.820161 0.477489 -0.178275
C45   C     C_3   0.966587 0.800629 0.336065 0.360054
C46   C     C_R   0.445740 0.184606 0.515358 -0.214839
C47   C     C_R   0.420473 0.010940 0.536518 -0.024648
C48   C     C_R   0.367716 0.119714 0.540121 0.049868
C49   C     C_R   0.584468 0.148162 0.491148 0.043471
C50   C     C_R   0.643143 0.038191 0.485570 -0.061717
C51   C     C_R   0.556716 0.968106 0.508010 -0.019478
C52   C     C_3   0.155816 0.772866 0.631107 0.272056
C53   C     C_R   0.614505 0.858493 0.503513 0.076340
C54   C     C_R   0.844267 0.887934 0.456892 0.036891
C55   C     C_R   0.786420 0.996654 0.460299 -0.092160
C56   C     C_3   0.045410 0.760112 0.286721 0.390431
C57   C     C_3   0.113530 0.892009 0.641704 0.364016
C58   C     C_3   0.634844 0.301196 0.366394 0.255632
C59   C     C_3   0.537266 0.261726 0.319749 -0.051144
C60   C     C_3   0.514171 0.832552 0.360688 0.407196
C61   C     C_3   0.517777 0.931597 0.333809 -0.308214
C62   C     C_R   0.029145 0.436158 0.177003 0.655824
H1    H     H_    0.808474 0.198613 0.682362 0.025762
H2    H     H_    0.800303 0.182462 0.772312 0.159774
H3    H     H_    0.586606 0.178499 0.308347 0.147290
H4    H     H_    0.408786 0.264165 0.328383 0.122472
H5    H     H_    0.585410 0.218552 0.769998 0.219962
H6    H     H_    0.593071 0.652122 0.622475 0.006896
H7    H     H_    0.741563 0.742206 0.633278 0.141244
H8    H     H_    0.518425 0.849206 0.694545 0.200526
H9    H     H_    0.461167 0.721072 0.696369 0.067605
H10   H     H_    0.663245 0.743354 0.716052 0.183063
H11   H     H_    0.712414 0.316374 0.761848 0.132876
H12   H     H_    0.290118 0.060420 0.398867 0.028103
H13   H     H_    0.317977 0.225048 0.741328 0.149853
H14   H     H_    0.930388 0.731210 0.351947 -0.188754
H15   H     H_    0.855827 0.857516 0.328641 0.052494
H16   H     H_    0.168839 0.717531 0.294071 0.069755
H17   H     H_    0.973277 0.703227 0.267261 -0.029045
H18   H     H_    0.642110 0.801962 0.372112 -0.161091
H19   H     H_    0.445040 0.853964 0.395188 0.048960
H20   H     H_    0.576987 0.910973 0.297486 0.176627
H21   H     H_    0.586780 0.986486 0.357818 0.055333
H22   H     H_    0.016840 0.252866 0.669179 0.044796
H23   H     H_    0.138898 0.077716 0.444680 0.011385
H24   H     H_    0.393055 0.972180 0.326242 0.182317
H25   H     H_    0.141324 0.451122 0.283413 0.143007
H26   H     H_    0.211275 0.280900 0.121501 0.149211
H27   H     H_    0.599977 0.508796 0.753508 0.151844
H28   H     H_    0.307433 0.291765 0.039384 0.136375
H29   H     H_    0.645048 0.593612 0.243021 0.151910
H30   H     H_    0.816040 0.776580 0.116052 0.155385
H31   H     H_    0.022608 0.806236 0.969487 0.097081
H32   H     H_    0.191737 0.314120 0.670990 0.014077
H33   H     H_    0.116684 0.808750 0.887474 0.153335
H34   H     H_    0.251200 0.754788 0.603962 0.043014
H35   H     H_    0.915879 0.791875 0.036252 0.093504
H36   H     H_    0.792985 0.502076 0.393104 0.054421
H37   H     H_    0.341862 0.447976 0.609394 0.118644
H38   H     H_    0.359486 0.962345 0.557503 0.135812
H39   H     H_    0.856849 0.048105 0.444827 0.109500
H40   H     H_    0.800949 0.736757 0.475951 0.044366
H41   H     H_    0.399081 0.268107 0.517026 0.072684
H42   H     H_    0.325590 0.228650 0.429516 -0.100063
H43   H     H_    0.122493 0.257167 0.452489 0.043431
H44   H     H_    0.862074 0.109416 0.580687 0.340423
H45   H     H_    0.203752 0.742958 0.667590 -0.075092
H46   H     H_    0.769892 0.917865 0.690474 0.370879
H47   H     H_    0.880882 0.987575 0.215947 0.387655
H48   H     H_    0.318723 0.195356 0.861494 0.355424
H49   H     H_    0.599735 0.515639 0.047565 0.325850
H50   H     H_    0.882275 0.637785 0.809812 0.363562
H51   H     H_    0.054863 0.907031 0.677928 0.110740
H52   H     H_    0.226717 0.928429 0.645483 0.044298
H53   H     H_    0.751848 0.319063 0.354563 0.042203
H54   H     H_    0.568067 0.373694 0.384709 0.065618
I1    I     I_    0.991088 0.087807 0.350120 -0.302285
I2    I     I_    0.546737 0.346653 0.255237 -0.363406
I3    I     I_    0.061719 0.339073 0.781888 -0.331488
I4    I     I_    0.136556 0.072851 0.753713 -0.201959
N1    N     N_R   0.933096 0.521888 0.200440 -0.430534
N2    N     N_R   0.336624 0.552064 0.805593 -0.413074
O1    O     O_2   0.907040 0.557650 0.617910 -0.441342
O2    O     O_2   0.187576 0.878537 0.459942 -0.453024
O3    O     O_3   0.076438 0.850370 0.368456 -0.577676
O4    O     O_3   0.139040 0.557570 0.557730 -0.481075
O5    O     O_3   0.571310 0.369620 0.475470 -0.492220
O6    O     O_2   0.348200 0.764910 0.523260 -0.444020
O7    O     O_3   0.521353 0.806137 0.603544 -0.630549
O8    O     O_2   0.389457 0.561823 0.322690 -0.479800
O9    O     O_3   0.438020 0.759272 0.328625 -0.560147
O10   O     O_2   0.062817 0.354295 0.197933 -0.539946
O11   O     O_2   0.451459 0.384113 0.809064 -0.555544
O12   O     O_3   0.668962 0.217088 0.397186 -0.628126
O13   O     O_2   0.793020 0.685836 0.192317 -0.563176
O14   O     O_2   0.259861 0.728042 0.810798 -0.521504
O15   O     O_3   0.684960 0.360550 0.588460 -0.460581
O16   O     O_2   0.816889 0.390931 0.681624 -0.503475
O17   O     O_3   0.019576 0.726562 0.612366 -0.577401
O18   O     O_3   0.572693 0.275788 0.672771 -0.599563
O19   O     O_2   0.841490 0.235060 0.476710 -0.510659
O20   O     O_3   0.099640 0.305100 0.564190 -0.498252
O21   O     O_2   0.352934 0.257300 0.604189 -0.476786
O22   O     O_2   0.063767 0.940715 0.546022 -0.373293
O23   O     O_3   0.209672 0.152375 0.645139 -0.516630
O24   O     O_2   0.830309 0.900357 0.587562 -0.303280
O25   O     O_3   0.925314 0.081109 0.610560 -0.517095
O26   O     O_2   0.488891 0.062813 0.712956 -0.285999
O27   O     O_2   0.602084 0.051463 0.630435 -0.255255
O28   O     O_3   0.790538 0.986925 0.706789 -0.484729
O29   O     O_2   0.175586 0.928585 0.264034 -0.243099
O30   O     O_2   0.097240 0.808134 0.194033 -0.283515
O31   O     O_3   0.867155 0.933512 0.238926 -0.494999
O32   O     O_2   0.692294 0.273509 0.869302 -0.206210
O33   O     O_2   0.576471 0.178584 0.929920 -0.195698
O34   O     O_2   0.282660 0.442310 0.382060 -0.480047
O35   O     O_3   0.418345 0.203260 0.844846 -0.460601
O36   O     O_2   0.596841 0.252520 0.026963 -0.200373
O37   O     O_2   0.741947 0.364752 0.982814 -0.238572
O38   O     O_3   0.585052 0.448050 0.060516 -0.502205
O39   O     O_2   0.989022 0.737941 0.737632 -0.298546
O40   O     O_2   0.861145 0.583455 0.709473 -0.324021
O41   O     O_3   0.984005 0.593612 0.799214 -0.504732
O42   O     O_3   0.050670 0.442340 0.442260 -0.501737
O43   O     O_3   0.504750 0.639360 0.411530 -0.485275
O44   O     O_3   0.152191 0.274302 0.376577 -0.602592
O45   O     O_3   0.618400 0.630290 0.524520 -0.492514
O46   O     O_3   0.090070 0.694820 0.435810 -0.462641
P1    P     P_3+3 0.072810 0.589830 0.610360 1.062334
P2    P     P_3+3 0.661990 0.251250 0.462170 0.964490
P3    P     P_3+3 0.220470 0.190139 0.583651 1.010927
P4    P     P_3+3 0.116900 0.410080 0.389630 1.007569
P5    P     P_3+3 0.045589 0.831028 0.430999 1.038546
P6    P     P_3+3 0.650299 0.385924 0.653334 1.019204
P7    P     P_3+3 0.533429 0.763814 0.539498 0.996010
P8    P     P_3+3 0.513766 0.632451 0.346216 0.990887
S1    S     S_3+6 0.979733 0.952574 0.594310 -0.081230
S2    S     S_3+6 0.635851 0.074025 0.685849 -0.011029
S3    S     S_3+6 0.051131 0.859996 0.244721 -0.008136
S4    S     S_3+6 0.536818 0.256425 0.890528 0.041330
S5    S     S_3+6 0.589989 0.361067 0.009520 -0.014808
S6    S     S_3+6 0.001934 0.620621 0.739543 -0.069816

loop_
_geom_bond_atom_site_label_1
_geom_bond_atom_site_label_2
_ccdc_geom_bond_type
C60   H19   S    
C12   O18   S    
O37   S5    D    
H48   O35   S    
C28   H43   S    
O5    P2    S    
Ba1   O4    S    
C45   H15   S    
C19   C24   A    
O7    P7    S    
O44   P4    S    
C30   P6    S    
C24   C25   A    
C35   C36   A    
C48   P3    S    
O40   S6    D    
C60   O9    S    
C33   N2    S    
C17   C19   A    
Ba1   O1    S    
O19   P2    D    
Ba1   Ba2   S    
C35   C38   A    
Ba1   O5    S    
C36   C37   A    
C11   H26   S    
C6    P4    S    
C40   I1    S    
O30   S3    D    
O17   P1    S    
Ba2   O5    S    
C54   C55   A    
C32   C33   S    
C15   H37   S    
C22   C27   A    
C11   C38   A    
C17   C35   A    
C2    O13   D    
C9    C13   A    
C25   C42   A    
O34   P4    D    
C46   C49   A    
C46   H41   S    
C57   H52   S    
C44   C53   A    
C41   H31   S    
C21   C22   A    
C58   H54   S    
C23   H7    S    
C1    H11   S    
C7    C8    S    
Ba2   O42   S    
O36   S5    D    
Ba1   O15   S    
Ba2   O34   S    
O46   P5    S    
C46   C48   A    
H49   O38   S    
C6    C14   D    
C28   H42   S    
C59   I2    S    
C53   P7    S    
C20   S5    S    
O15   P6    S    
C15   C31   D    
C4    C16   S    
O45   P7    S    
C52   C57   S    
C51   C53   A    
O3    P5    S    
C55   H39   S    
C62   O10   D    
O42   P4    S    
O29   S3    D    
C54   P5    S    
C52   H34   S    
C49   C50   A    
O12   P2    S    
C17   C20   A    
C26   O14   D    
C13   C39   A    
C21   S4    S    
C8    N1    S    
C43   H35   S    
C56   H17   S    
C7    H25   S    
C47   H38   S    
C3    C5    S    
C18   C37   A    
O32   S4    D    
C6    C7    D    
O18   P6    S    
C16   I3    S    
C44   H40   S    
Ba1   P1    S    
C38   H28   S    
C52   H45   S    
C58   C59   S    
O28   S2    S    
C9    C36   A    
C41   C42   A    
C60   C61   S    
Ba1   O19   S    
O6    P7    D    
C61   H24   S    
C42   H33   S    
C59   H3    S    
C39   H30   S    
O16   P6    D    
C52   O17   S    
O31   S3    S    
C31   C32   D    
C58   H53   S    
Ba2   O4    S    
C18   C19   A    
C32   S6    S    
C27   N2    Am   
C1    C12   S    
C34   H10   S    
C16   I4    S    
C5    P8    S    
C5    C14   S    
C27   O11   D    
O21   P3    D    
O24   S1    D    
C4    H32   S    
C56   S3    S    
C29   C33   D    
C1    H2    S    
O33   S4    D    
C31   P1    S    
C18   C41   A    
C50   C51   A    
H50   O41   S    
O26   S2    D    
O1    P1    D    
C58   O12   S    
C49   P2    S    
C1    H5    S    
O39   S6    D    
O41   S6    S    
C40   H12   S    
C29   C30   S    
C14   H36   S    
C29   H27   S    
C22   C24   A    
C3    H29   S    
C9    C10   A    
C26   N2    Am   
C45   O3    S    
C40   H23   S    
C56   H16   S    
C62   N1    Am   
Ba1   P2    S    
H46   O28   S    
C4    H22   S    
C37   C43   A    
C61   H20   S    
O25   S1    S    
C2    C13   A    
C57   S1    S    
C28   O44   S    
C3    C8    D    
Ba2   O46   S    
Ba1   O20   S    
C23   C34   S    
Ba2   P4    S    
C45   C56   S    
C4    O23   S    
C59   H4    S    
O27   S2    D    
Ba1   O42   S    
C16   H13   S    
C10   C62   A    
Ba2   O43   S    
O20   P3    S    
Ba1   O45   S    
Ba2   O6    S    
C12   H1    S    
O22   S1    D    
O35   S4    S    
C60   H18   S    
O23   P3    S    
O9    P8    S    
C12   S2    S    
C47   C51   A    
C50   C55   A    
Ba2   O45   S    
H44   O25   S    
O38   S5    S    
O43   P8    S    
C10   C11   A    
C2    N1    Am   
O4    P1    S    
C57   H51   S    
C47   C48   A    
C44   C54   A    
C25   C26   A    
C15   C30   S    
C39   C43   A    
C20   C21   A    
C28   C40   S    
C23   H6    S    
C45   H14   S    
H47   O31   S    
C34   H9    S    
C61   H21   S    
O2    P5    D    
C34   H8    S    
O8    P8    D    
C23   O7    S    
