data_mof_unit_66490.cif
_audit_creation_date              2012-12-10T20:19:46-0500
_audit_creation_method            fapswitch 2.2
_symmetry_space_group_name_H-M    P1
_symmetry_Int_Tables_number       1
_space_group_crystal_system       triclinic
_cell_length_a                    27.282983
_cell_length_b                    27.264278
_cell_length_c                    18.484036
_cell_angle_alpha                 89.809628
_cell_angle_beta                  89.90248
_cell_angle_gamma                 90.084642
_cell_volume                      13749.2546504

loop_
_atom_site_label
_atom_site_type_symbol
_atom_type_description
_atom_site_fract_x
_atom_site_fract_y
_atom_site_fract_z
_atom_type_partial_charge
C1    C     C_R   0.067241 0.432940 0.500047 1.036069
C2    C     C_R   0.782527 0.254051 0.462091 0.297960
C3    C     C_R   0.469731 0.966867 0.038239 0.449343
C4    C     C_R   0.000321 0.499655 0.841116 -0.145831
C5    C     C_R   0.000322 0.499699 0.158863 -0.146849
C6    C     C_R   0.500321 0.999657 0.841116 -0.145835
C7    C     C_R   0.500323 0.999700 0.158863 -0.146853
C8    C     C_R   0.101174 0.608415 0.499438 -0.452494
C9    C     C_R   0.892241 0.398284 0.500653 -0.541214
C10   C     C_R   0.896033 0.605117 0.499617 -0.475647
C11   C     C_R   0.105544 0.396037 0.500161 -0.518726
C12   C     C_R   0.601178 0.108410 0.499438 -0.452515
C13   C     C_R   0.730226 0.306156 0.537708 0.262877
C14   C     C_R   0.392236 0.898289 0.500653 -0.541242
C15   C     C_R   0.395987 0.105069 0.499621 -0.475661
C16   C     C_R   0.605600 0.896091 0.500155 -0.518764
C17   C     C_R   0.245941 0.717669 0.461721 0.300342
C18   C     C_R   0.798052 0.761349 0.463380 0.316545
C19   C     C_R   0.209371 0.245136 0.539721 0.288642
C20   C     C_R   0.260548 0.296758 0.461022 0.271058
C21   C     C_R   0.744736 0.707736 0.535852 0.287681
C22   C     C_R   0.693579 0.269688 0.537394 0.319909
C23   C     C_R   0.282509 0.754069 0.462084 0.297970
C24   C     C_R   0.230211 0.806171 0.537708 0.262857
C25   C     C_R   0.932968 0.567116 0.499941 1.043126
C26   C     C_R   0.745958 0.217651 0.461728 0.300348
C27   C     C_R   0.297829 0.261144 0.463292 0.316456
C28   C     C_R   0.709527 0.745312 0.539626 0.289015
C29   C     C_R   0.760783 0.796979 0.461105 0.270622
C30   C     C_R   0.244589 0.207569 0.535949 0.287774
C31   C     C_R   0.774631 0.296924 0.502037 -0.091759
C32   C     C_R   0.201745 0.726552 0.498158 -0.007128
C33   C     C_R   0.217382 0.288491 0.500477 -0.096569
C34   C     C_R   0.788781 0.716785 0.498939 0.004187
C35   C     C_R   0.274615 0.796940 0.502035 -0.091740
C36   C     C_R   0.932507 0.433152 0.500133 1.027478
C37   C     C_R   0.701761 0.226536 0.498160 -0.007131
C38   C     C_R   0.717580 0.788691 0.500459 -0.096519
C39   C     C_R   0.288604 0.216608 0.498952 0.004161
C40   C     C_R   0.000465 0.499554 0.077345 -0.149012
C41   C     C_R   0.000459 0.499505 0.922634 -0.148764
C42   C     C_R   0.500466 0.999555 0.077345 -0.149007
C43   C     C_R   0.500459 0.999507 0.922633 -0.148760
C44   C     C_R   0.991488 0.542474 0.725893 0.567129
C45   C     C_R   0.957671 0.509092 0.273976 0.589140
C46   C     C_R   0.008848 0.457369 0.725758 0.599270
C47   C     C_R   0.066717 0.567677 0.499853 1.031162
C48   C     C_R   0.042494 0.490683 0.274329 0.583345
C49   C     C_R   0.491481 0.042473 0.725891 0.567103
C50   C     C_R   0.457671 0.009091 0.273975 0.589123
C51   C     C_R   0.508853 0.957371 0.725760 0.599309
C52   C     C_R   0.542495 0.990685 0.274330 0.583354
C53   C     C_R   0.990290 0.543151 0.802429 0.224678
C54   C     C_R   0.956998 0.510288 0.197433 0.223054
C55   C     C_R   0.010279 0.456343 0.802299 0.232610
C56   C     C_R   0.043484 0.489222 0.197795 0.237155
C57   C     C_R   0.490285 0.043151 0.802427 0.224687
C58   C     C_R   0.567248 0.932946 0.500047 1.036026
C59   C     C_R   0.456998 0.010287 0.197432 0.223054
C60   C     C_R   0.510285 0.956346 0.802300 0.232610
C61   C     C_R   0.543485 0.989225 0.197795 0.237156
C62   C     C_R   0.101010 0.641739 0.441349 0.589836
C63   C     C_R   0.857353 0.399572 0.445129 0.606861
C64   C     C_R   0.887386 0.365035 0.558143 0.589206
C65   C     C_R   0.133008 0.615221 0.558070 0.480737
C66   C     C_R   0.900205 0.644705 0.547244 0.471264
C67   C     C_R   0.139519 0.394655 0.556892 0.604984
C68   C     C_R   0.108524 0.362369 0.443265 0.603458
C69   C     C_R   0.432964 0.067110 0.499941 1.043166
C70   C     C_R   0.857006 0.602221 0.450797 0.605534
C71   C     C_R   0.601017 0.141735 0.441350 0.589855
C72   C     C_R   0.357347 0.899582 0.445130 0.606893
C73   C     C_R   0.387377 0.865041 0.558143 0.589208
C74   C     C_R   0.633015 0.115210 0.558068 0.480712
C75   C     C_R   0.400114 0.144661 0.547246 0.471309
C76   C     C_R   0.639576 0.894748 0.556888 0.604941
C77   C     C_R   0.608651 0.862458 0.443222 0.603567
C78   C     C_R   0.356946 0.102111 0.450833 0.605489
C79   C     C_R   0.132535 0.681685 0.440932 0.365292
C80   C     C_R   0.432506 0.933153 0.500133 1.027483
C81   C     C_R   0.817617 0.367791 0.446256 0.397745
C82   C     C_R   0.848215 0.332550 0.560461 0.404530
C83   C     C_R   0.165282 0.655151 0.558387 0.399322
C84   C     C_R   0.864824 0.681774 0.546589 0.400738
C85   C     C_R   0.176722 0.360035 0.557284 0.406317
C86   C     C_R   0.144944 0.326929 0.442635 0.403367
C87   C     C_R   0.821822 0.638864 0.448610 0.346459
C88   C     C_R   0.632547 0.181677 0.440933 0.365287
C89   C     C_R   0.317607 0.867806 0.446258 0.397731
C90   C     C_R   0.348201 0.832561 0.560461 0.404522
C91   C     C_R   0.566717 0.067676 0.499853 1.031141
C92   C     C_R   0.665295 0.155137 0.558385 0.399329
C93   C     C_R   0.364682 0.181681 0.546607 0.400696
C94   C     C_R   0.676844 0.860197 0.557251 0.406331
C95   C     C_R   0.645141 0.827091 0.442557 0.403276
C96   C     C_R   0.321707 0.138700 0.448668 0.346480
C97   C     C_R   0.165000 0.687953 0.499646 -0.079563
C98   C     C_R   0.813232 0.333671 0.503881 -0.154080
C99   C     C_R   0.825852 0.678624 0.497280 -0.079273
C100  C     C_R   0.179379 0.325760 0.499960 -0.152520
C101  C     C_R   0.665014 0.187940 0.499646 -0.079561
C102  C     C_R   0.193564 0.769703 0.537395 0.319916
C103  C     C_R   0.313219 0.833686 0.503882 -0.154085
C104  C     C_R   0.325700 0.178473 0.497323 -0.079221
C105  C     C_R   0.679568 0.825952 0.499896 -0.152509
C106  C     C_R   0.967501 0.469089 0.962251 0.444556
C107  C     C_R   0.031267 0.532152 0.037721 0.445142
C108  C     C_R   0.033485 0.529872 0.961747 0.449700
C109  C     C_R   0.969727 0.466868 0.038239 0.449340
C110  C     C_R   0.467504 0.969089 0.962251 0.444558
C111  C     C_R   0.531265 0.032156 0.037721 0.445140
C112  C     C_R   0.533482 0.029877 0.961747 0.449701
F1    F     F_    0.984452 0.584386 0.687804 -0.560540
F2    F     F_    0.860923 0.432799 0.390379 -0.506717
F3    F     F_    0.921427 0.363221 0.611701 -0.533989
F4    F     F_    0.133536 0.582447 0.613678 -0.590368
F5    F     F_    0.939269 0.647812 0.592495 -0.573304
F6    F     F_    0.137581 0.427963 0.611385 -0.537861
F7    F     F_    0.075109 0.362891 0.388796 -0.552055
F8    F     F_    0.852429 0.563109 0.405981 -0.502554
F9    F     F_    0.569209 0.136419 0.385385 -0.564410
F10   F     F_    0.360921 0.932809 0.390381 -0.506657
F11   F     F_    0.421417 0.863223 0.611701 -0.533987
F12   F     F_    0.915901 0.516782 0.311923 -0.526307
F13   F     F_    0.633541 0.082435 0.613674 -0.590359
F14   F     F_    0.439184 0.147820 0.592480 -0.573315
F15   F     F_    0.637575 0.928028 0.611414 -0.537843
F16   F     F_    0.575242 0.862945 0.388744 -0.551994
F17   F     F_    0.352407 0.062986 0.406034 -0.502517
F18   F     F_    0.016302 0.415688 0.687509 -0.564877
F19   F     F_    0.084103 0.482863 0.312637 -0.595653
F20   F     F_    0.484438 0.084384 0.687802 -0.560574
F21   F     F_    0.415901 0.016780 0.311921 -0.526302
F22   F     F_    0.516312 0.915690 0.687512 -0.564855
F23   F     F_    0.584104 0.982867 0.312638 -0.595648
F24   F     F_    0.069204 0.636418 0.385382 -0.564424
H1    H     H_    0.972948 0.612464 0.806169 0.409231
H2    H     H_    0.755838 0.349917 0.398846 0.348885
H3    H     H_    0.816184 0.280028 0.616157 0.361491
H4    H     H_    0.193850 0.636950 0.651558 0.406267
H5    H     H_    0.896140 0.718188 0.624806 0.403123
H6    H     H_    0.235701 0.336946 0.607706 0.358836
H7    H     H_    0.171266 0.269727 0.391229 0.347826
H8    H     H_    0.763642 0.663737 0.398446 0.342112
H9    H     H_    0.651699 0.242033 0.390307 0.344907
H10   H     H_    0.255824 0.849942 0.398853 0.348886
H11   H     H_    0.316164 0.780044 0.616159 0.361493
H12   H     H_    0.887947 0.528482 0.193492 0.418222
H13   H     H_    0.693862 0.136930 0.651554 0.406267
H14   H     H_    0.395976 0.218149 0.624787 0.403131
H15   H     H_    0.735881 0.837218 0.607629 0.358837
H16   H     H_    0.671654 0.770039 0.390997 0.347820
H17   H     H_    0.263439 0.163459 0.398598 0.342132
H18   H     H_    0.156123 0.795525 0.618267 0.373209
H19   H     H_    0.819787 0.228630 0.380786 0.370779
H20   H     H_    0.688533 0.359287 0.570819 0.367318
H21   H     H_    0.287913 0.664663 0.428634 0.372591
H22   H     H_    0.850787 0.804062 0.430911 0.372205
H23   H     H_    0.027661 0.387027 0.805839 0.413155
H24   H     H_    0.173379 0.218467 0.621705 0.372960
H25   H     H_    0.286810 0.333449 0.379360 0.368909
H26   H     H_    0.701824 0.655091 0.568254 0.369221
H27   H     H_    0.656135 0.295514 0.618261 0.373212
H28   H     H_    0.319766 0.728652 0.380773 0.370779
H29   H     H_    0.188519 0.859300 0.570828 0.367311
H30   H     H_    0.787930 0.164643 0.428650 0.372584
H31   H     H_    0.350521 0.303851 0.430649 0.372216
H32   H     H_    0.673461 0.718592 0.621501 0.372952
H33   H     H_    0.787130 0.833727 0.379559 0.368900
H34   H     H_    0.112528 0.470953 0.194436 0.408855
H35   H     H_    0.201722 0.154934 0.568517 0.369185
H36   H     H_    0.926346 0.452435 0.879522 0.354083
H37   H     H_    0.048369 0.573168 0.120367 0.358450
H38   H     H_    0.074621 0.546434 0.878601 0.360469
H39   H     H_    0.952634 0.425947 0.121470 0.358581
H40   H     H_    0.426351 0.952431 0.879521 0.354083
H41   H     H_    0.548366 0.073172 0.120368 0.358451
H42   H     H_    0.574615 0.046446 0.878599 0.360471
H43   H     H_    0.452641 0.925945 0.121470 0.358577
H44   H     H_    0.472934 0.112462 0.806166 0.409237
H45   H     H_    0.387947 0.028478 0.193491 0.418215
H46   H     H_    0.527676 0.887032 0.805842 0.413157
H47   H     H_    0.612530 0.970960 0.194437 0.408858
H48   H     H_    0.151678 0.742045 0.390308 0.344906
N1    N     N_R   0.000000 0.500000 0.689440 -0.231629
N2    N     N_R   0.000000 0.500000 0.310560 -0.230793
N3    N     N_R   0.500000 1.000000 0.689440 -0.231626
N4    N     N_R   0.500000 0.000000 0.310560 -0.230798
O1    O     O_R   0.050900 0.449080 0.560840 -0.527099
O2    O     O_R   0.449100 0.050920 0.439160 -0.545304
O3    O     O_R   0.449100 0.050920 0.560840 -0.559719
O4    O     O_R   0.550900 0.949080 0.439160 -0.543703
O5    O     O_R   0.449100 0.949080 0.439160 -0.549291
O6    O     O_R   0.550900 0.050920 0.560840 -0.534679
O7    O     O_R   0.550900 0.050920 0.439160 -0.569648
O8    O     O_R   0.449100 0.949080 0.560840 -0.574934
O9    O     O_3   0.979544 0.585330 0.840534 -0.662204
O10   O     O_3   0.914984 0.521577 0.159207 -0.654711
O11   O     O_3   0.021255 0.414025 0.840280 -0.653434
O12   O     O_R   0.949100 0.550920 0.439160 -0.545304
O13   O     O_3   0.085632 0.477737 0.159927 -0.657662
O14   O     O_3   0.479533 0.085329 0.840532 -0.662202
O15   O     O_3   0.414984 0.021574 0.159206 -0.654717
O16   O     O_3   0.521266 0.914030 0.840282 -0.653433
O17   O     O_3   0.585634 0.977742 0.159927 -0.657659
O18   O     O_3   0.130424 0.713190 0.382194 -0.628263
O19   O     O_3   0.784540 0.371230 0.389788 -0.625023
O20   O     O_3   0.846313 0.300117 0.618169 -0.624372
O21   O     O_3   0.198097 0.662769 0.614253 -0.683567
O22   O     O_3   0.867076 0.721364 0.593115 -0.682278
O23   O     O_R   0.949100 0.550920 0.560840 -0.559704
O24   O     O_3   0.209356 0.361331 0.614505 -0.626203
O25   O     O_3   0.145033 0.294346 0.385355 -0.632315
O26   O     O_3   0.784410 0.634065 0.398692 -0.626176
O27   O     O_3   0.630439 0.213184 0.382196 -0.628259
O28   O     O_3   0.284530 0.871250 0.389791 -0.625020
O29   O     O_3   0.346296 0.800128 0.618170 -0.624367
O30   O     O_3   0.698112 0.162749 0.614250 -0.683570
O31   O     O_3   0.366896 0.221281 0.593118 -0.682319
O32   O     O_3   0.709465 0.861518 0.614487 -0.626204
O33   O     O_3   0.645297 0.794537 0.385242 -0.632327
O34   O     O_R   0.050900 0.449080 0.439160 -0.543676
O35   O     O_3   0.284282 0.133839 0.398782 -0.626178
O36   O     O_3   0.150370 0.774090 0.575991 -0.698939
O37   O     O_3   0.825752 0.249541 0.423577 -0.700379
O38   O     O_3   0.723878 0.351128 0.570665 -0.703466
O39   O     O_3   0.252527 0.672649 0.428921 -0.705590
O40   O     O_3   0.843423 0.768493 0.431661 -0.699825
O41   O     O_3   0.167101 0.240967 0.580611 -0.697867
O42   O     O_3   0.264578 0.339398 0.420789 -0.699858
O43   O     O_3   0.737439 0.662036 0.566658 -0.706995
O44   O     O_3   0.650383 0.274078 0.575986 -0.698933
O45   O     O_R   0.949100 0.449080 0.439160 -0.549280
O46   O     O_3   0.325733 0.749560 0.423567 -0.700383
O47   O     O_3   0.223864 0.851142 0.570670 -0.703472
O48   O     O_3   0.752545 0.172631 0.428931 -0.705599
O49   O     O_3   0.343173 0.268280 0.431485 -0.699887
O50   O     O_3   0.667223 0.741124 0.580433 -0.697867
O51   O     O_3   0.764858 0.839648 0.420949 -0.699889
O52   O     O_3   0.237333 0.161889 0.566842 -0.707013
O53   O     O_3   0.932686 0.440013 0.928947 -0.604921
O54   O     O_3   0.060731 0.566648 0.071009 -0.604773
O55   O     O_3   0.068308 0.558905 0.927920 -0.604673
O56   O     O_R   0.050900 0.550920 0.560840 -0.534664
O57   O     O_3   0.940278 0.432391 0.072083 -0.602243
O58   O     O_3   0.432692 0.940009 0.928947 -0.604924
O59   O     O_3   0.560727 0.066654 0.071009 -0.604774
O60   O     O_3   0.568302 0.058914 0.927920 -0.604673
O61   O     O_3   0.440284 0.932388 0.072083 -0.602247
O62   O     O_R   0.050900 0.550920 0.439160 -0.569650
O63   O     O_R   0.949100 0.449080 0.560840 -0.574930
O64   O     O_R   0.550900 0.949080 0.560840 -0.527039
Zn1   Zn    Zn3+2 0.000000 0.500000 0.581210 1.164448
Zn2   Zn    Zn3+2 0.000000 0.500000 0.418790 1.166667
Zn3   Zn    Zn3+2 0.500000 1.000000 0.581210 1.164454
Zn4   Zn    Zn3+2 0.500000 1.000000 0.418790 1.166646

loop_
_geom_bond_atom_site_label_1
_geom_bond_atom_site_label_2
_ccdc_geom_bond_type
O62   Zn2   S    
C15   C75   A    
C94   C105  A    
C41   C108  A    
C12   C74   A    
C4    C53   A    
C9    C64   A    
C68   C86   A    
C5    C56   A    
C58   O64   A    
C111  C112  A    
C1    C11   S    
H6    O24   S    
C50   N4    A    
C69   O3    A    
C82   O20   S    
C88   C101  A    
C102  O36   S    
C39   C104  S    
C3    C42   A    
C32   C97   S    
C80   O5    A    
O8    Zn3   S    
C75   C93   A    
C95   O33   S    
C1    O1    A    
C37   C101  S    
C63   C81   A    
H46   O16   S    
C50   C59   A    
C88   O27   S    
C78   F17   S    
C73   C90   A    
H17   O35   S    
C35   C103  S    
C52   C61   A    
C68   F7    S    
N1    Zn1   S    
C81   C98   A    
H43   O61   S    
C51   F22   S    
C84   O22   S    
C45   N2    A    
O63   Zn1   S    
C74   F13   S    
C3    O61   S    
C4    C41   S    
C3    C110  A    
C62   F24   S    
C21   O43   S    
C36   O63   A    
C49   C57   A    
O6    Zn3   S    
C112  O60   S    
C16   C77   A    
C31   C98   S    
C74   C92   A    
C25   O23   A    
C13   C31   A    
C7    C61   A    
C47   O62   A    
C95   C105  A    
C28   O50   S    
H9    O27   S    
C63   F2    S    
H37   O54   S    
C60   O16   S    
C55   O11   S    
C27   C39   A    
C90   O29   S    
C66   F5    S    
C46   C55   A    
C13   C22   A    
C9    C36   S    
C107  C108  A    
C48   F19   S    
H38   O55   S    
C43   C110  A    
C14   C80   S    
C86   C100  A    
C45   C54   A    
H26   O43   S    
C44   N1    A    
H7    O25   S    
C76   C94   A    
C110  O58   S    
C10   C66   A    
C109  O57   S    
C8    C65   A    
C64   F3    S    
C9    C63   A    
H16   O33   S    
C89   C103  A    
O2    Zn4   S    
C82   C98   A    
C6    C57   A    
H45   O15   S    
C17   C23   A    
O23   Zn1   S    
C80   O8    A    
C70   C87   A    
C44   C53   A    
C93   C104  A    
C7    C59   A    
C11   C67   A    
H4    O21   S    
C87   C99   A    
O34   Zn2   S    
C45   F12   S    
H30   O48   S    
C15   C69   S    
C49   F20   S    
C17   C32   A    
C67   C85   A    
C24   C35   A    
C20   O42   S    
C41   C106  A    
H48   O18   S    
H28   O46   S    
O5    Zn4   S    
C6    C60   A    
C62   C79   A    
N4    Zn4   S    
C29   C38   A    
C51   N3    A    
H35   O52   S    
H8    O26   S    
H27   O44   S    
C19   C33   A    
C78   C96   A    
C13   O38   S    
C23   O46   S    
C91   O6    A    
H40   O58   S    
C21   C34   A    
O4    Zn4   S    
C36   O45   A    
C22   C37   A    
C77   C95   A    
O3    Zn3   S    
C71   C88   A    
C1    O34   A    
C70   F8    S    
C57   O14   S    
C42   C111  A    
C7    C42   S    
C48   N2    A    
H11   O29   S    
C19   O41   S    
C14   C73   A    
C5    C54   A    
C79   C97   A    
C49   N3    A    
C28   C38   A    
H14   O31   S    
C96   O35   S    
C94   O32   S    
C34   C99   S    
C12   C91   S    
O1    Zn1   S    
C2    C26   A    
C18   C29   A    
C16   C58   S    
C92   O30   S    
C18   C34   A    
C64   C82   A    
C83   O21   S    
C77   F16   S    
C18   O40   S    
C92   C101  A    
O64   Zn3   S    
H42   O60   S    
C20   C33   A    
C10   C70   A    
C10   C25   S    
C12   C71   A    
H1    O9    S    
H36   O53   S    
H29   O47   S    
H39   O57   S    
C23   C35   A    
C6    C43   S    
C40   C107  A    
C4    C55   A    
C83   C97   A    
H47   O17   S    
C65   F4    S    
C32   C102  A    
C43   C112  A    
C106  O53   S    
N3    Zn3   S    
C85   O24   S    
H22   O40   S    
C11   C68   A    
C27   O49   S    
H20   O38   S    
C48   C56   A    
H19   O37   S    
C26   O48   S    
C72   F10   S    
C16   C76   A    
C84   C99   A    
C14   C72   A    
C21   C28   A    
O45   Zn2   S    
C52   F23   S    
C30   O52   S    
C50   F21   S    
C69   O2    A    
C46   F18   S    
H32   O50   S    
H2    O19   S    
C26   C37   A    
N2    Zn2   S    
C40   C109  A    
C56   O13   S    
C20   C27   A    
C79   O18   S    
C91   O7    A    
H44   O14   S    
C54   O10   S    
C81   O19   S    
O56   Zn1   S    
C33   C100  S    
C93   O31   S    
C75   F14   S    
C38   C105  S    
C96   C104  A    
C8    C47   S    
C53   O9    S    
H34   O13   S    
C24   O47   S    
C58   O4    A    
C72   C89   A    
C17   O39   S    
H12   O10   S    
C44   F1    S    
H41   O59   S    
C89   O28   S    
C108  O55   S    
H23   O11   S    
C87   O26   S    
O12   Zn2   S    
C30   C39   A    
C25   O12   A    
C24   C102  A    
H13   O30   S    
C46   N1    A    
H18   O36   S    
C67   F6    S    
H10   O28   S    
C90   C103  A    
C86   O25   S    
C65   C83   A    
H3    O20   S    
H21   O39   S    
C66   C84   A    
H25   O42   S    
C15   C78   A    
C59   O15   S    
H31   O49   S    
C22   O44   S    
C111  O59   S    
H33   O51   S    
C5    C40   S    
C8    C62   A    
C71   F9    S    
C85   C100  A    
C76   F15   S    
H24   O41   S    
C2    C31   A    
H15   O32   S    
C51   C60   A    
C52   N4    A    
C107  O54   S    
O7    Zn4   S    
C19   C30   A    
H5    O22   S    
C29   O51   S    
C47   O56   A    
C2    O37   S    
C61   O17   S    
C106  C109  A    
C73   F11   S    
