data_mof_unit_9809.cif
_audit_creation_date              2012-12-10T17:32:25-0500
_audit_creation_method            fapswitch 2.2
_symmetry_space_group_name_H-M    P1
_symmetry_Int_Tables_number       1
_space_group_crystal_system       triclinic
_cell_length_a                    15.449324
_cell_length_b                    15.406853
_cell_length_c                    15.753906
_cell_angle_alpha                 93.944247
_cell_angle_beta                  71.083589
_cell_angle_gamma                 112.016488
_cell_volume                      3282.67510783

loop_
_atom_site_label
_atom_site_type_symbol
_atom_type_description
_atom_site_fract_x
_atom_site_fract_y
_atom_site_fract_z
_atom_type_partial_charge
C1    C     C_R   0.463871 0.257897 0.463151 0.473650
C2    C     C_R   0.516360 0.501381 0.116267 0.245033
C3    C     C_R   0.669404 0.627586 0.117858 -0.113655
C4    C     C_R   0.535874 0.741992 0.536044 0.540310
C5    C     C_R   0.430372 0.434553 0.841061 -0.020947
C6    C     C_R   0.451565 0.039596 0.336041 0.024321
C7    C     C_R   0.451078 0.160346 0.444448 -0.004330
C8    C     C_R   0.524078 0.856993 0.651327 -0.144676
C9    C     C_R   0.491294 0.928610 0.687355 0.238418
C10   C     C_R   0.463350 0.975919 0.634239 0.016765
C11   C     C_R   0.491122 0.967233 0.538889 -0.037825
C12   C     C_R   0.357568 0.312026 0.963350 0.031717
C13   C     C_R   0.529888 0.897020 0.502506 -0.001679
C14   C     C_R   0.478863 0.023310 0.478494 0.027130
C15   C     C_R   0.482410 0.995099 0.390135 -0.055740
C16   C     C_R   0.757054 0.550943 0.463202 0.521695
C17   C     C_R   0.521909 0.926737 0.356340 -0.105291
C18   C     C_R   0.555445 0.886121 0.408453 0.296897
C19   C     C_R   0.471270 0.110419 0.500806 -0.069104
C20   C     C_R   0.435562 0.123343 0.363853 0.021057
C21   C     C_R   0.538125 0.836881 0.561151 -0.030627
C22   C     C_R   0.022985 0.603334 0.335802 0.292397
C23   C     C_R   0.439019 0.358744 0.992939 0.060766
C24   C     C_R   0.861227 0.569595 0.445799 -0.035969
C25   C     C_R   0.084921 0.422789 0.659567 0.227751
C26   C     C_R   0.994251 0.433568 0.693140 0.277230
C27   C     C_R   0.963891 0.475660 0.638060 0.229644
C28   C     C_R   0.243057 0.450053 0.537642 0.563327
C29   C     C_R   0.012099 0.487194 0.543092 -0.031093
C30   C     C_R   0.097252 0.463028 0.507069 -0.045138
C31   C     C_R   0.981577 0.525528 0.482811 -0.010232
C32   C     C_R   0.045082 0.553984 0.393140 -0.016474
C33   C     C_R   0.123704 0.523927 0.358697 -0.133114
C34   C     C_R   0.493344 0.455114 0.968647 -0.043078
C35   C     C_R   0.142732 0.469837 0.412235 0.035153
C36   C     C_R   0.887257 0.529839 0.505868 -0.167871
C37   C     C_R   0.930878 0.611539 0.362480 0.293987
C38   C     C_R   0.137667 0.438119 0.566697 0.006917
C39   C     C_R   0.551801 0.549193 0.259446 0.512777
C40   C     C_R   0.448082 0.452843 0.743358 0.524534
C41   C     C_R   0.700194 0.642945 0.024932 0.000580
C42   C     C_R   0.576075 0.562748 0.163589 0.027227
C43   C     C_R   0.353348 0.349848 0.886273 -0.072543
C44   C     C_2   0.432610 0.996549 0.253243 0.292871
C45   C     C_R   0.496428 0.493007 0.887463 0.015739
C46   C     C_2   0.392628 0.020496 0.683677 0.271728
C47   C     C_3   0.554093 0.979248 0.801679 -0.107119
C48   C     C_3   0.710716 0.887040 0.351852 -0.120536
C49   C     C_3   0.900550 0.736306 0.328253 -0.097145
C50   C     C_3   0.160669 0.720874 0.252861 -0.073330
C51   C     C_3   0.171970 0.486415 0.755160 -0.066636
C52   C     C_3   0.932018 0.601831 0.701328 -0.097496
C53   C     C_3   0.864589 0.331168 0.799057 -0.068699
C54   C     C_2   0.202607 0.414641 0.364330 0.242661
C55   C     C_2   0.800785 0.712091 0.978291 0.246808
C56   C     C_R   0.548884 0.513699 0.021348 0.011322
C57   C     C_3   0.412953 0.374872 0.219596 -0.073452
C58   C     C_2   0.269337 0.300725 0.852205 0.247082
C59   C     C_2   0.482068 0.304769 0.030820 0.282524
C60   C     C_2   0.275446 0.227150 0.015849 0.318466
C61   C     C_3   0.638269 0.716087 0.753391 -0.080364
C62   C     C_2   0.407888 0.176271 0.308402 0.278720
C63   C     C_R   0.634170 0.591788 0.978424 -0.065446
C64   C     C_R   0.643474 0.625534 0.895244 -0.123894
C65   C     C_R   0.567194 0.586212 0.856662 0.314655
H1    H     H_    0.717605 0.667369 0.155567 0.173097
H2    H     H_    0.603320 0.047144 0.762517 0.102415
H3    H     H_    0.593944 0.930478 0.792033 0.111593
H4    H     H_    0.534247 0.994126 0.873865 0.175578
H5    H     H_    0.725864 0.904374 0.416637 0.106594
H6    H     H_    0.735686 0.952285 0.309443 0.131753
H7    H     H_    0.754815 0.845321 0.315476 0.139590
H8    H     H_    0.968699 0.783721 0.342041 0.107810
H9    H     H_    0.834863 0.727957 0.388098 0.103235
H10   H     H_    0.893157 0.770883 0.272935 0.161305
H11   H     H_    0.210348 0.746423 0.183375 0.180359
H12   H     H_    0.534803 0.909032 0.286965 0.120711
H13   H     H_    0.206302 0.713515 0.291870 0.111854
H14   H     H_    0.129328 0.774812 0.281441 0.140641
H15   H     H_    0.118197 0.516598 0.797269 0.162653
H16   H     H_    0.230275 0.539229 0.701495 0.083800
H17   H     H_    0.208566 0.471338 0.799052 0.125441
H18   H     H_    0.982247 0.648027 0.639882 0.118941
H19   H     H_    0.972067 0.606540 0.749887 0.154253
H20   H     H_    0.872131 0.628314 0.733735 0.130466
H21   H     H_    0.891234 0.273013 0.775710 0.129290
H22   H     H_    0.810905 0.331188 0.766003 0.136894
H23   H     H_    0.488786 0.144086 0.558914 0.115418
H24   H     H_    0.824920 0.317791 0.872350 0.149779
H25   H     H_    0.253228 0.437972 0.296802 0.145772
H26   H     H_    0.834097 0.712878 0.906104 0.096773
H27   H     H_    0.392128 0.395319 0.289956 0.125906
H28   H     H_    0.481807 0.360536 0.203980 0.130586
H29   H     H_    0.353004 0.308420 0.215585 0.224478
H30   H     H_    0.228372 0.339148 0.839396 0.141020
H31   H     H_    0.547971 0.341246 0.049195 0.095690
H32   H     H_    0.225728 0.176316 0.985421 0.164724
H33   H     H_    0.700281 0.691588 0.722249 0.114092
H34   H     H_    0.526009 0.809978 0.697597 0.147388
H35   H     H_    0.657858 0.776171 0.795983 0.094731
H36   H     H_    0.626555 0.743407 0.697737 0.162258
H37   H     H_    0.367933 0.220838 0.340622 0.089050
H38   H     H_    0.164688 0.534785 0.287379 0.154080
H39   H     H_    0.701987 0.691927 0.869001 0.081399
H40   H     H_    0.828589 0.492484 0.565280 0.192382
H41   H     H_    0.488573 0.978836 0.201567 0.094734
H42   H     H_    0.400433 0.056906 0.743860 0.161215
O1    O     O_3   0.500000 0.500000 0.500000 -0.462878
O2    O     O_R   0.588830 0.499590 0.285390 -0.557608
O3    O     O_R   0.395900 0.395880 0.699370 -0.529660
O4    O     O_R   0.493280 0.582590 0.315890 -0.507174
O5    O     O_R   0.521980 0.521940 0.699340 -0.491499
O6    O     O_2   0.352829 0.979104 0.243064 -0.449193
O7    O     O_2   0.321867 0.012317 0.660590 -0.463552
O8    O     O_3   0.466642 0.938562 0.779191 -0.557151
O9    O     O_3   0.610217 0.832900 0.365957 -0.547159
O10   O     O_3   0.905401 0.648636 0.300832 -0.508496
O11   O     O_3   0.086027 0.634327 0.249253 -0.532654
O12   O     O_R   0.708210 0.582550 0.530770 -0.560536
O13   O     O_3   0.124555 0.402120 0.719186 -0.519875
O14   O     O_3   0.889329 0.508275 0.679996 -0.572862
O15   O     O_3   0.943864 0.418425 0.784352 -0.533235
O16   O     O_2   0.191362 0.339990 0.396988 -0.513254
O17   O     O_2   0.848729 0.768069 0.020344 -0.481642
O18   O     O_3   0.419123 0.443571 0.160496 -0.582672
O19   O     O_2   0.249281 0.218900 0.833174 -0.474723
O20   O     O_2   0.449051 0.219145 0.036397 -0.419944
O21   O     O_2   0.260095 0.214671 0.095968 -0.444285
O22   O     O_3   0.550582 0.642587 0.802656 -0.534566
O23   O     O_R   0.270260 0.395900 0.573760 -0.478422
O24   O     O_2   0.431889 0.173386 0.226753 -0.444551
O25   O     O_R   0.537060 0.322180 0.411040 -0.550419
O26   O     O_R   0.484470 0.699370 0.484430 -0.481011
O27   O     O_R   0.404710 0.279110 0.530840 -0.504483
O28   O     O_R   0.573760 0.699350 0.573690 -0.580031
O29   O     O_R   0.714470 0.499570 0.411000 -0.497671
O30   O     O_R   0.307050 0.521980 0.484470 -0.563261
Zn1   Zn    Zn3+2 0.574690 0.574670 0.574650 0.929089
Zn2   Zn    Zn3+2 0.583640 0.456100 0.403530 0.960289
Zn3   Zn    Zn3+2 0.447120 0.574690 0.447120 0.965760
Zn4   Zn    Zn3+2 0.394550 0.394550 0.574700 1.001223

loop_
_geom_bond_atom_site_label_1
_geom_bond_atom_site_label_2
_ccdc_geom_bond_type
O28   Zn1   S    
O1    Zn1   S    
C54   O16   D    
C3    C42   A    
C34   C56   A    
C49   H9    S    
C57   H27   S    
O3    Zn4   S    
C61   H33   S    
C1    O25   A    
C50   H14   S    
C27   O14   S    
C40   O5    A    
O25   Zn2   S    
C23   C59   S    
C12   C23   A    
C26   C27   A    
C24   C36   A    
C22   C32   A    
C13   C18   A    
C52   H20   S    
C8    H34   S    
C54   H25   S    
C12   C43   A    
C53   O15   S    
C31   C36   A    
C57   O18   S    
C11   C14   A    
C27   C29   A    
C59   O20   D    
C30   C38   A    
C15   C17   A    
C52   H19   S    
O23   Zn4   S    
C51   H15   S    
C47   H4    S    
C55   H26   S    
C43   C58   S    
C6    C15   A    
C49   O10   S    
C8    C9    A    
C10   C46   S    
C49   H10   S    
C53   H21   S    
C9    C10   A    
C51   H16   S    
C61   O22   S    
C48   O9    S    
C39   O4    A    
C5    C43   A    
C16   C24   S    
C6    C44   S    
C35   C54   S    
C48   H7    S    
O29   Zn2   S    
C50   H13   S    
C47   H2    S    
O1    Zn4   S    
O4    Zn3   S    
C51   O13   S    
C39   C42   S    
O30   Zn3   S    
C46   O7    D    
C9    O8    S    
O5    Zn1   S    
C60   O21   D    
C24   C37   A    
C19   H23   S    
C16   O12   A    
C18   O9    S    
O1    Zn3   S    
C14   C19   A    
C40   O3    A    
C25   C26   A    
C22   C37   A    
C5    C45   A    
C12   C60   S    
C52   H18   S    
C61   H36   S    
C58   H30   S    
C29   C30   A    
C50   H11   S    
C25   C38   A    
C52   O14   S    
C31   C32   A    
C28   C38   S    
C23   C34   A    
C46   H42   S    
C17   H12   S    
C17   C18   A    
C56   C63   A    
C13   C21   A    
C53   H22   S    
C34   C45   A    
C51   H17   S    
C33   H38   S    
C47   O8    S    
C4    O28   A    
C30   C35   A    
C44   O6    D    
C60   H32   S    
C7    C19   A    
C57   H29   S    
C45   C65   A    
C49   H8    S    
C61   H35   S    
C59   H31   S    
C41   C63   A    
C48   H6    S    
C1    O27   A    
C16   O29   A    
C25   O13   S    
C47   H3    S    
C22   O11   S    
C55   O17   D    
C3    C41   A    
C36   H40   S    
C1    C7    S    
O12   Zn1   S    
C62   O24   D    
C64   H39   S    
C28   O30   A    
C48   H5    S    
C8    C21   A    
O1    Zn2   S    
C65   O22   S    
C58   O19   D    
C44   H41   S    
C6    C20   A    
O2    Zn2   S    
C64   C65   A    
C29   C31   A    
C2    C56   A    
C32   C33   A    
O27   Zn4   S    
C53   H24   S    
C4    C21   S    
C11   C13   A    
C2    C42   A    
C41   C55   S    
C33   C35   A    
C28   O23   A    
C20   C62   S    
C10   C11   A    
C63   C64   A    
C3    H1    S    
C2    O18   S    
C39   O2    A    
C37   O10   S    
O26   Zn3   S    
C7    C20   A    
C5    C40   S    
C14   C15   A    
C57   H28   S    
C26   O15   S    
C50   O11   S    
C4    O26   A    
C62   H37   S    
