data_mof_unit_19125.cif
_audit_creation_date              2012-12-10T20:45:32-0500
_audit_creation_method            fapswitch 2.2
_symmetry_space_group_name_H-M    P1
_symmetry_Int_Tables_number       1
_space_group_crystal_system       triclinic
_cell_length_a                    10.759296
_cell_length_b                    10.710454
_cell_length_c                    9.850295
_cell_angle_alpha                 90.365763
_cell_angle_beta                  90.920877
_cell_angle_gamma                 89.597006
_cell_volume                      1134.92089835

loop_
_atom_site_label
_atom_site_type_symbol
_atom_type_description
_atom_site_fract_x
_atom_site_fract_y
_atom_site_fract_z
_atom_type_partial_charge
C1    C     C_R   0.502447 0.260089 0.499244 0.880918
C2    C     C_R   0.185246 0.750756 0.039148 0.715317
C3    C     C_R   0.930697 0.547328 0.390763 -0.243045
C4    C     C_R   0.872544 0.499377 0.504668 -0.083180
C5    C     C_R   0.942087 0.456490 0.617804 0.023567
C6    C     C_R   0.069393 0.458925 0.611277 -0.250845
C7    C     C_R   0.127618 0.506902 0.497484 -0.085390
C8    C     C_R   0.058298 0.554073 0.386469 0.024233
C9    C     C_R   0.858911 0.500665 0.847074 -0.131473
C10   C     C_R   0.821899 0.462115 0.975229 -0.268474
C11   C     C_R   0.815518 0.335258 0.005080 -0.262293
C12   C     C_R   0.260079 0.503958 0.498822 0.878054
C13   C     C_R   0.846108 0.246235 0.906655 0.665417
C14   C     C_R   0.881448 0.283578 0.776621 0.005142
C15   C     C_R   0.888530 0.412279 0.746547 0.020380
C16   C     C_R   0.572095 0.065216 0.602833 0.053576
C17   C     C_R   0.517799 0.128726 0.494500 -0.083301
C18   C     C_R   0.486297 0.063584 0.375205 -0.212561
C19   C     C_R   0.487025 0.934813 0.376094 -0.228324
C20   C     C_R   0.518708 0.871619 0.496369 -0.118200
C21   C     C_R   0.574274 0.937439 0.603637 0.111555
C22   C     C_3   0.563123 0.935747 0.755593 0.156986
C23   C     C_R   0.503678 0.740024 0.500077 0.890300
C24   C     C_3   0.558087 0.078290 0.752513 -0.537378
C25   C     C_R   0.462653 0.396650 0.070167 0.218464
C26   C     C_R   0.546819 0.597574 0.073474 -0.147507
C27   C     C_R   0.547845 0.596805 0.929604 -0.088025
C28   C     C_R   0.460089 0.397810 0.927347 0.224486
C29   C     C_3   0.332130 0.344660 0.922612 -0.506834
C30   C     C_3   0.338076 0.337863 0.076226 -0.496621
C31   C     C_R   0.740045 0.498001 0.501563 0.869357
C32   C     C_R   0.209301 0.798539 0.169296 -0.235727
C33   C     C_R   0.173667 0.731660 0.283707 -0.196351
C34   C     C_R   0.112449 0.616967 0.267932 0.150799
C35   C     C_R   0.089872 0.569287 0.136822 -0.299220
C36   C     C_R   0.127191 0.635408 0.022982 -0.221805
H1    H     H_    0.788314 0.306023 0.105259 0.176837
H2    H     H_    0.452776 0.111040 0.284925 0.162286
H3    H     H_    0.454933 0.885766 0.285896 0.168446
H4    H     H_    0.466551 0.118239 0.779896 0.191521
H5    H     H_    0.638988 0.125019 0.800934 0.238169
H6    H     H_    0.583660 0.677013 0.128743 0.150878
H7    H     H_    0.252669 0.888824 0.181347 0.145317
H8    H     H_    0.586872 0.674112 0.876423 0.184734
H9    H     H_    0.261835 0.412969 0.884844 0.212144
H10   H     H_    0.327580 0.251553 0.873193 0.199660
H11   H     H_    0.268813 0.397781 0.127559 0.233441
H12   H     H_    0.343603 0.240639 0.114545 0.194228
H13   H     H_    0.189831 0.771034 0.383956 0.145104
H14   H     H_    0.043034 0.480913 0.123239 0.178792
H15   H     H_    0.108943 0.598351 0.922209 0.162781
H16   H     H_    0.876355 0.584431 0.306236 0.165689
H17   H     H_    0.123138 0.422592 0.696391 0.157428
H18   H     H_    0.866597 0.599576 0.826701 0.162889
H19   H     H_    0.801020 0.530839 0.052653 0.175641
N1    N     N_R   0.499160 0.499140 0.142800 -0.106366
N2    N     N_R   0.499160 0.499180 0.857150 -0.105467
O1    O     O_R   0.500020 0.316790 0.614690 -0.621315
O2    O     O_R   0.500000 0.316760 0.385350 -0.626082
O3    O     O_R   0.316770 0.500030 0.614670 -0.616448
O4    O     O_R   0.316750 0.499990 0.385330 -0.614878
O5    O     O_R   0.500000 0.683240 0.614650 -0.592387
O6    O     O_R   0.499980 0.683210 0.385310 -0.632591
O7    O     O_R   0.683250 0.500010 0.614670 -0.613555
O8    O     O_R   0.683230 0.499970 0.385330 -0.630193
Zn1   Zn    Zn3+2 0.500010 0.500020 0.653130 0.971263
Zn2   Zn    Zn3+2 0.499990 0.499980 0.346870 0.944971
F1    F     F_    0.214811 0.817781 0.928396 -0.701337
F2    F     F_    0.843603 0.123301 0.938685 -0.690354
N3    N     N_3   0.910570 0.189973 0.677383 -0.415311
H20   H     H_    0.002633 0.201757 0.648026 0.194381
H21   H     H_    0.852797 0.204062 0.592398 0.179704
N4    N     N_3   0.448925 0.878187 0.803284 -0.378514
H22   H     H_    0.438624 0.902877 0.905398 0.215745
H23   H     H_    0.372278 0.915225 0.750139 0.229328
N5    N     N_3   0.674562 0.885274 0.823587 -0.449628
H24   H     H_    0.754187 0.925715 0.783503 0.244109
H25   H     H_    0.671841 0.910859 0.926147 0.216948

loop_
_geom_bond_atom_site_label_1
_geom_bond_atom_site_label_2
_ccdc_geom_bond_type
C16   C21   A    
N4    H23   S    
N4    H22   S    
C35   C36   A    
C25   N1    A    
C22   N5    S    
N2    Zn1   S    
C7    C8    A    
C28   N2    A    
C25   C28   A    
C26   C27   A    
C30   H12   S    
C28   C29   S    
N5    H25   S    
C18   C19   A    
C2    F1    S    
C1    O2    A    
C5    C6    A    
C33   H13   S    
C2    C32   A    
C34   C35   A    
C11   H1    S    
O2    Zn2   S    
C27   H8    S    
O1    Zn1   S    
C23   O5    A    
C19   C20   A    
C16   C17   A    
O8    Zn2   S    
N3    H20   S    
C9    C10   A    
C23   O6    A    
O3    Zn1   S    
C16   C24   S    
C13   C14   A    
C24   H5    S    
C14   N3    S    
C33   C34   A    
C7    C12   S    
O6    Zn2   S    
O5    Zn1   S    
C30   H11   S    
N5    H24   S    
C3    C8    A    
C27   N2    A    
C29   H9    S    
O7    Zn1   S    
C29   C30   S    
O4    Zn2   S    
C20   C23   S    
C35   H14   S    
C17   C18   A    
C8    C34   S    
C10   H19   S    
C36   H15   S    
C19   H3    S    
C22   C24   S    
C6    H17   S    
C3    C4    A    
C26   H6    S    
C2    C36   A    
C25   C30   S    
C31   O8    A    
C31   O7    A    
C4    C5    A    
C26   N1    A    
C3    H16   S    
C6    C7    A    
N1    Zn2   S    
C1    C17   S    
C29   H10   S    
C32   C33   A    
C9    C15   A    
C1    O1    A    
C12   O4    A    
C11   C13   A    
C13   F2    S    
C24   H4    S    
C32   H7    S    
C18   H2    S    
C5    C15   S    
C4    C31   S    
C10   C11   A    
C12   O3    A    
C20   C21   A    
C14   C15   A    
N3    H21   S    
C9    H18   S    
C22   N4    S    
C21   C22   S    
