data_mof_unit_33823.cif
_audit_creation_date              2012-12-11T14:07:40-0500
_audit_creation_method            fapswitch 2.2
_symmetry_space_group_name_H-M    P1
_symmetry_Int_Tables_number       1
_space_group_crystal_system       triclinic
_cell_length_a                    19.822099
_cell_length_b                    17.213505
_cell_length_c                    15.340743
_cell_angle_alpha                 90.004062
_cell_angle_beta                  53.581431
_cell_angle_gamma                 90.493099
_cell_volume                      4211.87548174

loop_
_atom_site_label
_atom_site_type_symbol
_atom_type_description
_atom_site_fract_x
_atom_site_fract_y
_atom_site_fract_z
_atom_type_partial_charge
C1    C     C_R   0.370591 0.194398 0.001828 -0.124371
C2    C     C_R   0.698985 0.844014 0.001097 0.156732
C3    C     C_R   0.207004 0.650635 0.986660 0.152372
C4    C     C_R   0.198984 0.344014 0.001097 0.156732
C5    C     C_R   0.623414 0.819967 0.689968 -0.149010
C6    C     C_R   0.597944 0.186911 0.704467 -0.117384
C7    C     C_R   0.123414 0.319967 0.689968 -0.149011
C8    C     C_R   0.097942 0.686912 0.704468 -0.117387
C9    C     C_3   0.213809 0.131908 0.526845 -0.409484
C10   C     C_3   0.201046 0.864149 0.515784 -0.405867
C11   C     C_3   0.713810 0.631907 0.526845 -0.409486
C12   C     C_R   0.373875 0.803604 0.996536 -0.118100
C13   C     C_3   0.701039 0.364145 0.515776 -0.405869
C14   C     C_3   0.166779 0.182716 0.628543 -0.411724
C15   C     C_3   0.138264 0.820074 0.622463 -0.378743
C16   C     C_3   0.666780 0.682716 0.628543 -0.411723
C17   C     C_3   0.638259 0.320072 0.622457 -0.378742
C18   C     C_3   0.314923 0.245017 0.428366 -0.415073
C19   C     C_3   0.307365 0.757267 0.456257 -0.398602
C20   C     C_3   0.814922 0.745018 0.428366 -0.415071
C21   C     C_3   0.807367 0.257278 0.456269 -0.398606
C22   C     C_3   0.690196 0.726975 0.423185 -0.428066
C23   C     C_R   0.870591 0.694398 0.001827 -0.124370
C24   C     C_3   0.705150 0.251066 0.409128 -0.457047
C25   C     C_3   0.190197 0.226976 0.423184 -0.428066
C26   C     C_3   0.205133 0.751082 0.409137 -0.457036
C27   C     C_3   0.258728 0.184816 0.423678 0.401099
C28   C     C_3   0.260088 0.805701 0.423961 0.401329
C29   C     C_3   0.758728 0.684816 0.423679 0.401099
C30   C     C_3   0.760091 0.305698 0.423960 0.401331
C31   C     C_3   0.669090 0.768728 0.595814 0.424803
C32   C     C_3   0.653465 0.231589 0.603421 0.365811
C33   C     C_3   0.169090 0.268729 0.595813 0.424803
C34   C     C_R   0.873876 0.303604 0.996536 -0.118100
C35   C     C_3   0.153462 0.731591 0.603423 0.365812
C36   C     C_3   0.761519 0.797453 0.525367 -0.377041
C37   C     C_3   0.744845 0.213424 0.561426 -0.398241
C38   C     C_3   0.261519 0.297453 0.525368 -0.377041
C39   C     C_3   0.244843 0.713418 0.561418 -0.398242
C40   C     C_R   0.358320 0.819976 0.219616 -0.137503
C41   C     C_R   0.352484 0.172796 0.220677 -0.140223
C42   C     C_R   0.858322 0.319974 0.219615 -0.137506
C43   C     C_R   0.852484 0.672796 0.220677 -0.140223
C44   C     C_3   0.631341 0.769403 0.530985 -0.369009
C45   C     C_R   0.660859 0.909268 0.065963 -0.153875
C46   C     C_3   0.641942 0.207816 0.515126 -0.330077
C47   C     C_3   0.131342 0.269404 0.530984 -0.369010
C48   C     C_3   0.141930 0.707827 0.515134 -0.330078
C49   C     C_2   0.279497 0.689686 0.966870 -0.202124
C50   C     C_2   0.265347 0.301685 0.989961 -0.212194
C51   C     C_2   0.779497 0.189686 0.966870 -0.202124
C52   C     C_2   0.765348 0.801685 0.989961 -0.212194
C53   C     C_2   0.807675 0.255729 0.909278 -0.205598
C54   C     C_2   0.795165 0.738323 0.928018 -0.187504
C55   C     C_2   0.307675 0.755729 0.909278 -0.205598
C56   C     C_R   0.666178 0.087188 0.056304 -0.148436
C57   C     C_2   0.295165 0.238323 0.928018 -0.187504
C58   C     C_R   0.364532 0.889710 0.897650 -0.149071
C59   C     C_R   0.356350 0.106707 0.908178 -0.082477
C60   C     C_R   0.864532 0.389710 0.897650 -0.149071
C61   C     C_R   0.856351 0.606707 0.908177 -0.082479
C62   C     C_R   0.364963 0.083535 0.316200 -0.129495
C63   C     C_R   0.370802 0.907986 0.317049 -0.137980
C64   C     C_R   0.864962 0.583535 0.316200 -0.129495
C65   C     C_R   0.870804 0.407984 0.317049 -0.137981
C66   C     C_R   0.336340 0.181149 0.947944 0.132687
C67   C     C_R   0.160859 0.409268 0.065963 -0.153875
C68   C     C_R   0.345676 0.814250 0.934795 0.139158
C69   C     C_R   0.836341 0.681149 0.947943 0.132687
C70   C     C_R   0.845676 0.314250 0.934795 0.139159
C71   C     C_R   0.323217 0.846381 0.323342 -0.001009
C72   C     C_R   0.314605 0.141626 0.323866 -0.003719
C73   C     C_R   0.823220 0.346378 0.323342 -0.001007
C74   C     C_R   0.814604 0.641626 0.323866 -0.003719
C75   C     C_R   0.658419 0.179538 0.956896 -0.118039
C76   C     C_R   0.653327 0.816996 0.965841 -0.116380
C77   C     C_R   0.158419 0.679539 0.956896 -0.118040
C78   C     C_R   0.166178 0.587188 0.056304 -0.148437
C79   C     C_R   0.153327 0.316996 0.965842 -0.116379
C80   C     C_R   0.605466 0.803181 0.789509 -0.219165
C81   C     C_R   0.596638 0.199237 0.794040 -0.237422
C82   C     C_R   0.105466 0.303181 0.789509 -0.219164
C83   C     C_R   0.096638 0.699237 0.794040 -0.237422
C84   C     C_R   0.579401 0.109571 0.705218 0.535802
C85   C     C_R   0.605810 0.897523 0.688955 0.482247
C86   C     C_R   0.079401 0.609572 0.705218 0.535806
C87   C     C_R   0.105810 0.397524 0.688955 0.482248
C88   C     C_R   0.707004 0.150635 0.986660 0.152372
Cl1   Cl    Cl    0.513136 0.081271 0.669091 -0.709027
Cl2   Cl    Cl    0.644613 0.955482 0.573681 -0.731924
Cl3   Cl    Cl    0.013136 0.581271 0.669090 -0.709028
Cl4   Cl    Cl    0.144615 0.455483 0.573681 -0.731921
H1    H     H_    0.379846 0.249469 0.027234 0.088402
H2    H     H_    0.572967 0.333663 0.652577 0.162335
H3    H     H_    0.100939 0.161432 0.685668 0.157323
H4    H     H_    0.072972 0.833673 0.652584 0.162334
H5    H     H_    0.197720 0.177217 0.669543 0.158726
H6    H     H_    0.146568 0.840337 0.684362 0.149218
H7    H     H_    0.697721 0.677218 0.669543 0.158726
H8    H     H_    0.646562 0.340340 0.684356 0.149221
H9    H     H_    0.361339 0.214828 0.434749 0.168185
H10   H     H_    0.347201 0.795596 0.467456 0.157388
H11   H     H_    0.861340 0.714829 0.434747 0.168185
H12   H     H_    0.382287 0.749086 0.023535 0.083015
H13   H     H_    0.847190 0.295616 0.467480 0.157388
H14   H     H_    0.786648 0.797989 0.573865 0.157272
H15   H     H_    0.755598 0.230368 0.622372 0.162763
H16   H     H_    0.286648 0.297988 0.573866 0.157273
H17   H     H_    0.255603 0.730360 0.622359 0.162766
H18   H     H_    0.718863 0.770429 0.356281 0.167349
H19   H     H_    0.744181 0.207087 0.345607 0.163323
H20   H     H_    0.218865 0.270430 0.356280 0.167349
H21   H     H_    0.244154 0.707105 0.345607 0.163317
H22   H     H_    0.653738 0.684651 0.411033 0.159191
H23   H     H_    0.879846 0.749469 0.027234 0.088402
H24   H     H_    0.671691 0.284975 0.384005 0.168047
H25   H     H_    0.153739 0.184653 0.411031 0.159190
H26   H     H_    0.171668 0.785003 0.384031 0.168047
H27   H     H_    0.568935 0.739822 0.579330 0.153261
H28   H     H_    0.577147 0.220761 0.542659 0.193148
H29   H     H_    0.068936 0.239823 0.579329 0.153262
H30   H     H_    0.077132 0.720773 0.542676 0.193141
H31   H     H_    0.620496 0.827987 0.512980 0.221622
H32   H     H_    0.653335 0.144674 0.497778 0.224416
H33   H     H_    0.120497 0.327989 0.512979 0.221622
H34   H     H_    0.882287 0.249086 0.023535 0.083015
H35   H     H_    0.153324 0.644685 0.497777 0.224416
H36   H     H_    0.350986 0.281380 0.353396 0.162804
H37   H     H_    0.349566 0.715144 0.391178 0.163125
H38   H     H_    0.850985 0.781380 0.353395 0.162804
H39   H     H_    0.849581 0.215158 0.391193 0.163123
H40   H     H_    0.342039 0.768924 0.194922 0.092793
H41   H     H_    0.334680 0.224273 0.199222 0.092341
H42   H     H_    0.842041 0.268923 0.194921 0.092795
H43   H     H_    0.834680 0.724273 0.199222 0.092341
H44   H     H_    0.767748 0.857449 0.495228 0.215739
H45   H     H_    0.169276 0.091463 0.527764 0.160026
H46   H     H_    0.756609 0.149911 0.547281 0.175868
H47   H     H_    0.267750 0.357448 0.495228 0.215739
H48   H     H_    0.256601 0.649904 0.547276 0.175872
H49   H     H_    0.298648 0.671228 0.016631 0.124535
H50   H     H_    0.280330 0.317007 0.045245 0.125578
H51   H     H_    0.798648 0.171228 0.016631 0.124535
H52   H     H_    0.780331 0.817007 0.045245 0.125578
H53   H     H_    0.790541 0.273126 0.856970 0.126089
H54   H     H_    0.781264 0.723472 0.871533 0.130222
H55   H     H_    0.290541 0.773127 0.856970 0.126090
H56   H     H_    0.166575 0.898981 0.493017 0.157777
H57   H     H_    0.281264 0.223472 0.871533 0.130222
H58   H     H_    0.360096 0.915647 0.836998 0.124786
H59   H     H_    0.345663 0.079469 0.853769 0.141568
H60   H     H_    0.860096 0.415647 0.836998 0.124785
H61   H     H_    0.845664 0.579469 0.853768 0.141568
H62   H     H_    0.363554 0.056186 0.380053 0.089213
H63   H     H_    0.369037 0.933669 0.382361 0.088326
H64   H     H_    0.863553 0.556184 0.380053 0.089213
H65   H     H_    0.869037 0.433668 0.382362 0.088325
H66   H     H_    0.668419 0.230300 0.909167 0.089077
H67   H     H_    0.669277 0.591462 0.527765 0.160028
H68   H     H_    0.660177 0.764460 0.923014 0.088089
H69   H     H_    0.168419 0.730300 0.909167 0.089078
H70   H     H_    0.160177 0.264460 0.923014 0.088089
H71   H     H_    0.606037 0.747392 0.821267 0.118906
H72   H     H_    0.602391 0.254279 0.823048 0.121226
H73   H     H_    0.106037 0.247392 0.821267 0.118906
H74   H     H_    0.102390 0.754279 0.823049 0.121227
H75   H     H_    0.675676 0.935353 0.116680 0.098100
H76   H     H_    0.684451 0.059201 0.102001 0.097908
H77   H     H_    0.175676 0.435353 0.116680 0.098100
H78   H     H_    0.666565 0.398964 0.493001 0.157783
H79   H     H_    0.184451 0.559201 0.102001 0.097908
H80   H     H_    0.257974 0.096106 0.531033 0.149931
H81   H     H_    0.237164 0.905575 0.529454 0.147649
H82   H     H_    0.757976 0.596107 0.531033 0.149931
H83   H     H_    0.737148 0.405583 0.529444 0.147648
H84   H     H_    0.600940 0.661431 0.685669 0.157323
N1    N     N_R   0.408680 0.130160 0.995800 -0.047749
N2    N     N_R   0.403730 0.078230 0.935950 -0.039692
N3    N     N_R   0.903730 0.421770 0.935950 -0.043004
N4    N     N_R   0.903730 0.578230 0.935950 -0.039692
N5    N     N_R   0.426630 0.075970 0.212960 -0.036042
N6    N     N_R   0.426630 0.924030 0.212960 -0.033746
N7    N     N_R   0.926630 0.575970 0.212960 -0.036042
N8    N     N_R   0.926630 0.424030 0.212960 -0.033745
N9    N     N_R   0.591320 0.134600 0.004200 -0.047736
N10   N     N_R   0.591320 0.865400 0.004200 -0.047308
N11   N     N_R   0.091320 0.634600 0.004200 -0.047735
N12   N     N_R   0.408680 0.869840 0.995800 -0.048007
N13   N     N_R   0.091320 0.365400 0.004200 -0.047308
N14   N     N_R   0.578320 0.867660 0.846880 -0.057066
N15   N     N_R   0.578320 0.132340 0.846880 -0.059739
N16   N     N_R   0.078320 0.367660 0.846880 -0.057066
N17   N     N_R   0.078320 0.632340 0.846880 -0.059739
N18   N     N_R   0.573370 0.074390 0.787040 -0.074303
N19   N     N_R   0.573370 0.925610 0.787040 -0.072268
N20   N     N_R   0.073370 0.574390 0.787040 -0.074302
N21   N     N_R   0.073370 0.425610 0.787040 -0.072268
N22   N     N_R   0.596270 0.927870 0.064040 -0.041951
N23   N     N_R   0.908680 0.630160 0.995800 -0.047749
N24   N     N_R   0.596270 0.072130 0.064040 -0.042976
N25   N     N_R   0.096270 0.427870 0.064040 -0.041951
N26   N     N_R   0.096270 0.572130 0.064040 -0.042976
N27   N     N_R   0.908680 0.369840 0.995800 -0.048007
N28   N     N_R   0.421680 0.867580 0.153120 -0.037378
N29   N     N_R   0.421680 0.132420 0.153120 -0.038334
N30   N     N_R   0.921680 0.367580 0.153120 -0.037378
N31   N     N_R   0.921680 0.632420 0.153120 -0.038334
N32   N     N_R   0.403730 0.921770 0.935950 -0.043004
Ni1   Ni    Ni4+2 0.500000 0.131190 0.000000 0.203473
Ni2   Ni    Ni4+2 0.500000 0.868810 0.000000 0.200173
Ni3   Ni    Ni4+2 0.000000 0.631190 0.000000 0.203472
Ni4   Ni    Ni4+2 1.000000 0.368810 0.000000 0.200173
Ni5   Ni    Ni4+2 0.488650 0.000000 0.862740 0.287615
Ni6   Ni    Ni4+2 0.988650 0.500000 0.862740 0.287614
Ni7   Ni    Ni4+2 0.511350 0.000000 0.137260 0.218334
Ni8   Ni    Ni4+2 0.011350 0.500000 0.137260 0.218335

loop_
_geom_bond_atom_site_label_1
_geom_bond_atom_site_label_2
_ccdc_geom_bond_type
C19   H37   S    
C6    C32   S    
C38   H16   S    
N32   Ni5   S    
C40   C71   A    
C8    C83   A    
N7    N31   A    
C23   C69   A    
N5    N29   A    
C57   C66   S    
N18   Ni5   S    
C41   H41   S    
C55   C68   S    
C3    C49   S    
C11   H67   S    
N25   Ni8   S    
C20   H11   S    
C67   H77   S    
C16   C31   S    
C12   C68   A    
N11   N26   A    
C52   H52   S    
N6    N28   A    
C19   C39   S    
C22   C29   S    
N12   N32   A    
C37   H15   S    
C86   Cl3   S    
C59   C66   A    
C48   H30   S    
C19   H10   S    
C56   C88   A    
C53   C70   S    
C61   C69   A    
C12   N12   A    
C23   N23   A    
N24   Ni7   S    
C65   C73   A    
C60   H60   S    
N1    Ni1   S    
C22   H22   S    
N16   Ni4   S    
C81   N15   A    
C5    C31   S    
C25   H20   S    
C86   N20   A    
C64   N7    A    
C9    H45   S    
C7    C87   A    
C40   N28   A    
C84   N18   A    
C22   H18   S    
C49   H49   S    
C38   H47   S    
C58   N32   A    
C25   C47   S    
C8    C86   A    
C26   C48   S    
C54   H54   S    
C18   H36   S    
C16   H84   S    
C43   C74   A    
C40   H40   S    
C63   N6    A    
C87   Cl4   S    
N31   Ni3   S    
C7    C33   S    
C46   H32   S    
C60   C70   A    
C75   N9    A    
C24   H19   S    
N12   Ni2   S    
C14   C33   S    
N22   Ni7   S    
C36   H44   S    
C15   C35   S    
C52   C54   D    
C47   H33   S    
C20   C29   S    
C2    C45   A    
C77   H69   S    
C83   H74   S    
C22   C44   S    
C6    C84   A    
C31   C44   S    
N8    N30   A    
C36   H14   S    
C78   N26   A    
C13   C30   S    
C4    C79   A    
C65   H65   S    
C15   H4    S    
C30   C73   S    
C85   N19   A    
C76   N10   A    
C29   C74   S    
C44   H27   S    
N13   N25   A    
C45   N22   A    
N16   N21   A    
C43   N31   A    
C50   H50   S    
C62   H62   S    
C57   H57   S    
C60   N3    A    
C18   H9    S    
C83   N17   A    
C35   C39   S    
C9    C14   S    
C80   H71   S    
C67   N25   A    
N20   Ni6   S    
C11   C16   S    
C55   H55   S    
C18   C38   S    
N29   Ni1   S    
C34   N27   A    
C34   H34   S    
N17   N20   A    
C56   H76   S    
C53   H53   S    
C1    C66   A    
C46   H28   S    
N5    Ni7   S    
C12   H12   S    
C32   C37   S    
C5    C80   A    
C43   H43   S    
C19   C28   S    
C45   H75   S    
N8    Ni8   S    
C2    C52   S    
N14   N19   A    
N15   Ni1   S    
C41   C72   A    
C75   H66   S    
C58   C68   A    
C13   H78   S    
C63   C71   A    
N3    N27   A    
C59   H59   S    
C37   H46   S    
N10   Ni2   S    
N26   Ni8   S    
N6    Ni7   S    
C77   N11   A    
C81   H72   S    
N9    Ni1   S    
N27   Ni4   S    
C28   C71   S    
C84   Cl1   S    
C87   N21   A    
C79   H70   S    
N28   Ni2   S    
C3    C77   A    
C14   H3    S    
C2    C76   A    
C9    C27   S    
C14   H5    S    
C80   N14   A    
N11   Ni3   S    
C10   C28   S    
N7    Ni8   S    
C13   H83   S    
C34   C70   A    
C39   H48   S    
C76   H68   S    
C11   H82   S    
N2    Ni5   S    
C82   N16   A    
C65   N8    A    
C50   C57   D    
C32   C46   S    
C59   N2    A    
C18   C27   S    
C26   H26   S    
C20   H38   S    
N13   Ni4   S    
C25   H25   S    
C51   C88   S    
C4    C67   A    
C85   Cl2   S    
C16   H7    S    
C24   H24   S    
C51   H51   S    
C25   C27   S    
C21   C30   S    
C64   H64   S    
C44   H31   S    
C26   C28   S    
C33   C38   S    
C13   C17   S    
C10   C15   S    
C24   C46   S    
N4    Ni6   S    
N14   Ni2   S    
N15   N18   A    
C5    C85   A    
N4    N23   A    
C49   C55   D    
C48   H35   S    
C54   C69   S    
C10   H81   S    
C21   H39   S    
N3    Ni6   S    
C78   H79   S    
C42   C73   A    
C23   H23   S    
C42   H42   S    
C42   N30   A    
N23   Ni3   S    
N9    N24   A    
C41   N29   A    
C17   H8    S    
C24   C30   S    
C62   C72   A    
C26   H21   S    
N17   Ni3   S    
C35   C48   S    
N21   Ni6   S    
C47   H29   S    
C63   H63   S    
C20   C36   S    
N30   Ni4   S    
C75   C88   A    
C39   H17   S    
C7    C82   A    
C21   C37   S    
C11   C29   S    
C61   N4    A    
C1    H1    S    
N1    N2    A    
C79   N13   A    
C4    C50   S    
C6    C81   A    
C17   C32   S    
C64   C74   A    
C31   C36   S    
N10   N22   A    
C9    H80   S    
C61   H61   S    
C17   H2    S    
C15   H6    S    
C51   C53   D    
C33   C47   S    
C3    C78   A    
C1    N1    A    
C8    C35   S    
C21   H13   S    
C27   C72   S    
C58   H58   S    
N19   Ni5   S    
C10   H56   S    
C56   N24   A    
C82   H73   S    
C62   N5    A    
