data_mof_unit_30988.cif
_audit_creation_date              2012-12-10T17:14:44-0500
_audit_creation_method            fapswitch 2.2
_symmetry_space_group_name_H-M    P1
_symmetry_Int_Tables_number       1
_space_group_crystal_system       triclinic
_cell_length_a                    10.649406
_cell_length_b                    12.98292
_cell_length_c                    11.765759
_cell_angle_alpha                 99.046798
_cell_angle_beta                  93.553629
_cell_angle_gamma                 91.426966
_cell_volume                      1602.42219469

loop_
_atom_site_label
_atom_site_type_symbol
_atom_type_description
_atom_site_fract_x
_atom_site_fract_y
_atom_site_fract_z
_atom_type_partial_charge
C1    C     C_R   0.498205 0.299429 0.479130 0.832849
C2    C     C_R   0.503302 0.700524 0.520733 0.845555
C3    C     C_R   0.530197 0.138449 0.562336 -0.241963
C4    C     C_R   0.479111 0.861119 0.435571 -0.233611
C5    C     C_R   0.523960 0.030430 0.552613 0.172473
C6    C     C_R   0.485516 0.969150 0.445247 0.170009
C7    C     C_R   0.364681 0.417395 0.028804 -0.082231
C8    C     C_R   0.623883 0.600461 0.972918 -0.094592
C9    C     C_R   0.384010 0.419483 0.147754 -0.072779
C10   C     C_R   0.605523 0.591435 0.851984 0.038852
C11   C     C_R   0.554100 0.543156 0.158478 0.321063
C12   C     C_R   0.451095 0.456365 0.846753 0.330597
C13   C     C_R   0.545920 0.539532 0.034919 -0.137242
C14   C     C_R   0.451717 0.471956 0.969522 0.033900
C15   C     C_R   0.259849 0.500034 0.500214 0.851289
C16   C     C_R   0.740158 0.500086 0.499800 0.865095
C17   C     C_3   0.041233 0.415799 0.541281 0.008410
C18   C     C_3   0.958786 0.584485 0.458793 0.000548
C19   C     C_3   0.951779 0.415250 0.434071 0.163631
C20   C     C_3   0.048251 0.585015 0.565991 0.168068
C21   C     C_3   0.876435 0.500731 0.500299 -0.070503
C22   C     C_3   0.123580 0.499532 0.499754 -0.052662
C23   C     C_3   0.965630 0.502359 0.610006 -0.301201
C24   C     C_3   0.034390 0.497921 0.390053 -0.329623
C25   C     C_R   0.509376 0.813704 0.532066 -0.033636
C26   C     C_R   0.495906 0.186105 0.466973 -0.022948
C27   C     C_R   0.453690 0.016875 0.349377 -0.185758
C28   C     C_R   0.554853 0.982793 0.648756 -0.188127
C29   C     C_R   0.458508 0.125002 0.360265 -0.155268
C30   C     C_R   0.547082 0.874783 0.638657 -0.148424
Cu1   Cu    Cu3+1 0.509400 0.507730 0.615930 0.953289
Cu2   Cu    Cu3+1 0.490600 0.492270 0.384070 0.973638
H1    H     H_    0.937181 0.505491 0.699661 0.172948
H2    H     H_    0.062868 0.494777 0.300404 0.158520
H3    H     H_    0.449624 0.814201 0.353154 0.154202
H4    H     H_    0.562254 0.185057 0.644017 0.138632
H5    H     H_    0.571667 0.839132 0.713947 0.170918
H6    H     H_    0.431775 0.160703 0.285495 0.154789
H7    H     H_    0.424173 0.970774 0.266591 0.145249
H8    H     H_    0.584419 0.028930 0.731511 0.144141
H9    H     H_    0.662671 0.638877 0.805729 0.164759
H10   H     H_    0.319962 0.376697 0.192811 0.133567
N1    N     N_R   0.523540 0.519360 0.790140 -0.227332
N2    N     N_R   0.476460 0.480640 0.209860 -0.169441
O1    O     O_R   0.506670 0.354460 0.582000 -0.608516
O2    O     O_R   0.493330 0.645540 0.418000 -0.560775
O3    O     O_R   0.490800 0.341410 0.386200 -0.590306
O4    O     O_R   0.509200 0.658590 0.613800 -0.594745
O5    O     O_R   0.324790 0.506500 0.597880 -0.598330
O6    O     O_R   0.675210 0.493500 0.402120 -0.568325
O7    O     O_R   0.308910 0.493440 0.402080 -0.590230
O8    O     O_R   0.691090 0.506560 0.597920 -0.595617
N3    N     N_3   0.895793 0.321512 0.362784 -0.571612
H11   H     H_    0.969326 0.278942 0.326296 0.246325
H12   H     H_    0.842098 0.345154 0.294715 0.219155
N4    N     N_3   0.104246 0.678750 0.637276 -0.570532
H13   H     H_    0.030691 0.721461 0.673560 0.250787
H14   H     H_    0.157716 0.655116 0.705490 0.234719
C31   C     C_2   0.088120 0.320937 0.585565 0.362619
H15   H     H_    0.065840 0.306765 0.670574 0.112494
O9    O     O_2   0.151102 0.259211 0.526211 -0.555325
C32   C     C_2   0.912082 0.679506 0.414712 0.377478
H16   H     H_    0.936741 0.694985 0.330803 0.064077
O10   O     O_2   0.847023 0.740120 0.473186 -0.540175
N5    N     N_3   0.388499 0.363772 0.784851 -0.557026
H17   H     H_    0.332027 0.379352 0.714944 0.285954
H18   H     H_    0.455492 0.308942 0.760474 0.215849
N6    N     N_3   0.640335 0.612615 0.233208 -0.514180
H19   H     H_    0.627785 0.689452 0.219846 0.221271
H20   H     H_    0.732035 0.588682 0.221650 0.177428
C33   C     C_2   0.244706 0.366397 0.974857 0.380300
H21   H     H_    0.207627 0.297364 0.004507 0.056561
O11   O     O_2   0.181814 0.405084 0.903204 -0.556890
C34   C     C_2   0.728517 0.672288 0.026128 0.313183
H22   H     H_    0.805705 0.644625 0.076017 0.066421
O12   O     O_2   0.732310 0.762741 0.009376 -0.531689

loop_
_geom_bond_atom_site_label_1
_geom_bond_atom_site_label_2
_ccdc_geom_bond_type
C16   C21   S    
C27   C29   A    
C18   C21   S    
Cu1   O8    S    
C20   N4    S    
C4    C25   A    
C15   C22   S    
N3    H11   S    
C2    O2    A    
C9    H10   S    
C17   C23   S    
C34   O12   D    
C18   C24   S    
C19   C21   S    
C16   O6    A    
C12   N1    A    
C7    C33   S    
C5    C6    A    
C28   H8    S    
N4    H13   S    
C23   H1    S    
C32   O10   D    
C7    C14   A    
C6    C27   A    
C27   H7    S    
N6    H19   S    
N5    H18   S    
C29   H6    S    
C15   O7    A    
C19   N3    S    
C4    H3    S    
C31   H15   S    
C13   C14   A    
C10   H9    S    
Cu1   O5    S    
N3    H12   S    
C31   O9    D    
C34   H22   S    
C4    C6    A    
C33   O11   D    
C18   C32   S    
C2    O4    A    
C24   H2    S    
C30   H5    S    
Cu2   O7    S    
C32   H16   S    
C5    C28   A    
Cu1   Cu2   S    
C20   C23   S    
C8    C34   S    
Cu2   N2    S    
C11   N2    A    
Cu2   O6    S    
Cu1   N1    S    
C17   C31   S    
C8    C10   A    
C20   C22   S    
Cu1   O4    S    
C21   C23   S    
C1    C26   S    
Cu2   O3    S    
C22   C24   S    
C11   N6    S    
C25   C30   A    
C7    C9    A    
C9    N2    A    
C10   N1    A    
Cu2   O2    S    
C3    C26   A    
C1    O3    A    
C16   O8    A    
C12   C14   A    
C3    C5    A    
C12   N5    S    
C17   C22   S    
C28   C30   A    
C19   C24   S    
C33   H21   S    
C11   C13   A    
C1    O1    A    
C3    H4    S    
C17   C19   S    
N4    H14   S    
C2    C25   S    
C18   C20   S    
C15   O5    A    
C8    C13   A    
C26   C29   A    
N6    H20   S    
N5    H17   S    
Cu1   O1    S    
