data_mof_unit_49231.cif
_audit_creation_date              2012-12-11T17:14:54-0500
_audit_creation_method            fapswitch 2.2
_symmetry_space_group_name_H-M    P1
_symmetry_Int_Tables_number       1
_space_group_crystal_system       triclinic
_cell_length_a                    7.223172
_cell_length_b                    12.150498
_cell_length_c                    21.34397
_cell_angle_alpha                 90.000071
_cell_angle_beta                  90.856032
_cell_angle_gamma                 89.999918
_cell_volume                      1873.04737883

loop_
_atom_site_label
_atom_site_type_symbol
_atom_type_description
_atom_site_fract_x
_atom_site_fract_y
_atom_site_fract_z
_atom_type_partial_charge
O1    O     O_R   0.354460 0.152320 0.595720 -0.541124
O2    O     O_R   0.645540 0.847680 0.404280 -0.541123
O3    O     O_R   0.145540 0.652320 0.404280 -0.541124
O4    O     O_R   0.854460 0.347680 0.595720 -0.541124
O5    O     O_R   0.683670 0.140090 0.727290 -0.526139
O6    O     O_R   0.316330 0.859910 0.272710 -0.526139
O7    O     O_R   0.816330 0.640090 0.272710 -0.526147
O8    O     O_R   0.183670 0.359910 0.727290 -0.526147
O9    O     O_R   0.854010 0.349340 0.727750 -0.524405
O10   O     O_R   0.145990 0.650660 0.272250 -0.524405
O11   O     O_R   0.645990 0.849340 0.272250 -0.524419
O12   O     O_R   0.354010 0.150660 0.727750 -0.524420
C1    C     C_R   0.516882 0.112171 0.746836 0.794815
C2    C     C_R   0.483118 0.887828 0.253164 0.794815
C3    C     C_R   0.983118 0.612172 0.253163 0.794816
C4    C     C_R   0.016882 0.387828 0.746837 0.794816
O13   O     O_R   0.684170 0.139420 0.596190 -0.543590
O14   O     O_R   0.315830 0.860580 0.403810 -0.543590
O15   O     O_R   0.815830 0.639420 0.403810 -0.543590
O16   O     O_R   0.184170 0.360580 0.596190 -0.543590
C5    C     C_R   0.514893 0.113138 0.574444 0.683773
C6    C     C_R   0.485107 0.886862 0.425556 0.683773
C7    C     C_R   0.985107 0.613138 0.425556 0.683773
C8    C     C_R   0.014893 0.386862 0.574444 0.683772
O17   O     O_3   0.520730 0.319480 0.661730 -0.382381
O18   O     O_3   0.479270 0.680520 0.338270 -0.382381
O19   O     O_3   0.979270 0.819480 0.338270 -0.382383
O20   O     O_3   0.020730 0.180520 0.661730 -0.382383
V1    V     V_3+5 0.795560 0.238090 0.661730 1.498859
V2    V     V_3+5 0.204440 0.761910 0.338270 1.498858
V3    V     V_3+5 0.704440 0.738090 0.338270 1.498840
V4    V     V_3+5 0.295560 0.261910 0.661730 1.498840
C9    C     C_R   0.014768 0.465600 0.798786 -0.187325
C10   C     C_R   0.985232 0.534400 0.201214 -0.187326
C11   C     C_R   0.485239 0.965599 0.201214 -0.187320
C12   C     C_R   0.514761 0.034401 0.798786 -0.187320
C13   C     C_R   0.082235 0.646955 0.838735 -0.115964
C14   C     C_R   0.917764 0.353045 0.161264 -0.115964
C15   C     C_R   0.417907 0.146975 0.161269 -0.115981
C16   C     C_R   0.582093 0.853025 0.838731 -0.115981
C17   C     C_R   0.053698 0.576469 0.788203 -0.282253
C18   C     C_R   0.946302 0.423531 0.211797 -0.282253
C19   C     C_R   0.446405 0.076480 0.211800 -0.282255
C20   C     C_R   0.553595 0.923520 0.788200 -0.282254
C21   C     C_R   0.994529 0.425877 0.859811 0.729434
C22   C     C_R   0.005470 0.574123 0.140189 0.729434
C23   C     C_R   0.505424 0.925869 0.140188 0.729413
C24   C     C_R   0.494576 0.074131 0.859812 0.729413
C25   C     C_R   0.004014 0.498658 0.911666 -0.034328
C26   C     C_R   0.995985 0.501342 0.088334 -0.034328
C27   C     C_R   0.495989 0.998654 0.088334 -0.034332
C28   C     C_R   0.504011 0.001346 0.911666 -0.034333
C29   C     C_R   0.064824 0.607873 0.900196 -0.051406
C30   C     C_R   0.935176 0.392127 0.099804 -0.051406
C31   C     C_R   0.435271 0.107888 0.099807 -0.051433
C32   C     C_R   0.564729 0.892112 0.900193 -0.051433
C33   C     C_R   0.970820 0.465071 0.974718 -0.138705
C34   C     C_R   0.029180 0.534929 0.025281 -0.138705
C35   C     C_R   0.529152 0.965060 0.025280 -0.138738
C36   C     C_R   0.470848 0.034940 0.974719 -0.138738
C37   C     C_R   0.122504 0.634172 0.010771 0.779798
C38   C     C_R   0.877496 0.365828 0.989229 0.779798
C39   C     C_R   0.377606 0.134210 0.989233 0.779848
C40   C     C_R   0.622394 0.865790 0.010767 0.779848
C41   C     C_R   0.125059 0.673602 0.949816 -0.243858
C42   C     C_R   0.874941 0.326398 0.050184 -0.243858
C43   C     C_R   0.375085 0.173638 0.050189 -0.243905
C44   C     C_R   0.624915 0.826362 0.949811 -0.243905
H1    H     H_    0.189164 0.752687 0.940903 0.155517
H2    H     H_    0.810836 0.247313 0.059097 0.155517
H3    H     H_    0.311046 0.252742 0.059105 0.155541
H4    H     H_    0.688954 0.747258 0.940895 0.155541
H5    H     H_    0.927295 0.393231 0.259008 0.131098
H6    H     H_    0.072705 0.606768 0.740992 0.131098
H7    H     H_    0.572554 0.893215 0.740987 0.131092
H8    H     H_    0.427446 0.106785 0.259012 0.131093
H9    H     H_    0.125081 0.730969 0.829858 0.142791
H10   H     H_    0.874919 0.269031 0.170142 0.142791
H11   H     H_    0.375137 0.231003 0.170149 0.142786
H12   H     H_    0.624863 0.768997 0.829851 0.142786
C45   C     C_1   0.995648 0.533140 0.478085 -0.174041
C46   C     C_1   0.004352 0.466860 0.521914 -0.174041
C47   C     C_1   0.504352 0.033140 0.521914 -0.174041
C48   C     C_1   0.495647 0.966860 0.478085 -0.174041
F1    F     F_    0.003762 0.685040 0.132361 -0.579785
F2    F     F_    0.996238 0.314960 0.867638 -0.579785
F3    F     F_    0.496371 0.185050 0.867640 -0.579733
F4    F     F_    0.503628 0.814950 0.132359 -0.579733
F5    F     F_    0.228430 0.688867 0.053509 -0.590729
F6    F     F_    0.771569 0.311133 0.946491 -0.590730
F7    F     F_    0.271724 0.188941 0.946497 -0.590759
F8    F     F_    0.728275 0.811058 0.053503 -0.590759

loop_
_geom_bond_atom_site_label_1
_geom_bond_atom_site_label_2
_ccdc_geom_bond_type
O1    C5    A    
O3    V2    S    
C9    C21   A    
O3    C7    A    
C10   C18   A    
O15   V3    S    
C45   C46   T    
C25   C33   A    
C33   C38   A    
C35   C40   A    
C26   C30   A    
C36   C39   A    
C40   C44   A    
O20   V1    S    
O9    C4    A    
C14   C18   A    
O10   C3    A    
O4    C8    A    
O11   C2    A    
C25   C29   A    
C43   H3    S    
O13   V1    S    
C8    C46   S    
C28   C36   A    
C17   H6    S    
C15   C31   A    
O16   C8    A    
C16   C32   A    
O2    C6    A    
C16   H12   S    
C10   C22   A    
C11   C19   A    
C3    C10   S    
O5    C1    A    
O4    V1    S    
O9    V1    S    
C22   F1    S    
C13   C29   A    
C34   C37   A    
O7    C3    A    
C11   C23   A    
C35   C36   A    
O8    C4    A    
O12   V4    S    
O19   V2    S    
C37   F5    S    
O5    V1    S    
C39   C43   A    
O7    V3    S    
C38   C42   A    
C26   C34   A    
C5    C47   S    
C1    C12   S    
C2    C11   S    
C23   C27   A    
C14   H10   S    
C32   C44   A    
C13   H9    S    
O1    V4    S    
O13   C5    A    
O2    V3    S    
C6    C48   S    
C20   H7    S    
O15   C7    A    
C4    C9    S    
O6    C2    A    
O10   V2    S    
C31   C43   A    
C47   C48   T    
C14   C30   A    
C21   C25   A    
C44   H4    S    
C24   F3    S    
O14   V2    S    
O6    V2    S    
C16   C20   A    
C12   C20   A    
C27   C35   A    
C40   F8    S    
C29   C41   A    
O16   V4    S    
C19   H8    S    
C18   H5    S    
C7    C45   S    
O14   C6    A    
O18   V3    S    
C15   C19   A    
C30   C42   A    
C22   C26   A    
C9    C17   A    
C23   F4    S    
C21   F2    S    
C33   C34   A    
C42   H2    S    
O8    V4    S    
O17   V4    S    
C41   H1    S    
C38   F6    S    
C12   C24   A    
C27   C31   A    
C13   C17   A    
O11   V3    S    
C37   C41   A    
C24   C28   A    
O12   C1    A    
C39   F7    S    
C28   C32   A    
C15   H11   S    
