data_mof_unit_46955.cif
_audit_creation_date              2013-03-05T16:41:16-0500
_audit_creation_method            fapswitch 2.2
_symmetry_space_group_name_H-M    P1
_symmetry_Int_Tables_number       1
_space_group_crystal_system       triclinic
_cell_length_a                    10.738817
_cell_length_b                    10.684812
_cell_length_c                    9.870993
_cell_angle_alpha                 89.718433
_cell_angle_beta                  89.874509
_cell_angle_gamma                 90.015289
_cell_volume                      1132.60341857

loop_
_atom_site_label
_atom_site_type_symbol
_atom_site_description
_atom_site_fract_x
_atom_site_fract_y
_atom_site_fract_z
_atom_type_partial_charge
O1    O     O_R   0.500020 0.316790 0.614690 -0.618332
O2    O     O_R   0.500000 0.316760 0.385350 -0.622928
C1    C     C_R   0.503940 0.259872 0.500185 0.891995
O3    O     O_R   0.319080 0.500020 0.614640 -0.588030
O4    O     O_R   0.319070 0.499980 0.385300 -0.621437
C2    C     C_R   0.262687 0.504576 0.500084 0.956718
Zn1   Zn    Zn3+2 0.500010 0.500020 0.653130 0.971006
Zn2   Zn    Zn3+2 0.499990 0.499980 0.346870 0.951043
O5    O     O_R   0.500000 0.683240 0.614650 -0.618753
O6    O     O_R   0.499980 0.683210 0.385310 -0.623142
O7    O     O_R   0.680930 0.500020 0.614700 -0.623456
O8    O     O_R   0.680920 0.499980 0.385360 -0.625357
C3    C     C_R   0.504355 0.739999 0.499660 0.873441
C4    C     C_R   0.737405 0.498671 0.499761 0.926166
C5    C     C_2   0.932827 0.524690 0.388067 -0.150413
C6    C     C_2   0.869204 0.491694 0.498981 -0.313534
H1    H     H_    0.886181 0.553786 0.295527 0.173400
H2    H     H_    0.912422 0.456390 0.590612 0.182800
C7    C     C_2   0.066917 0.518424 0.385999 -0.167765
C8    C     C_2   0.131513 0.521179 0.501196 -0.286592
H3    H     H_    0.112229 0.510830 0.287970 0.184797
H4    H     H_    0.089162 0.538916 0.599016 0.192978
C9    C     C_R   0.531015 0.062890 0.622129 0.138921
C10   C     C_R   0.524652 0.128437 0.500086 -0.101614
C11   C     C_R   0.543363 0.065281 0.377290 -0.214919
H5    H     H_    0.548524 0.114633 0.281282 0.172986
C12   C     C_R   0.543736 0.935849 0.376928 -0.215510
H6    H     H_    0.549049 0.887609 0.280794 0.175182
C13   C     C_R   0.525392 0.871222 0.499352 -0.101274
C14   C     C_R   0.531389 0.935137 0.621694 0.133223
C15   C     C_3   0.449501 0.926431 0.744000 -0.456001
C16   C     C_3   0.448834 0.068181 0.744381 -0.486794
H7    H     H_    0.356798 0.884868 0.721789 0.214287
H8    H     H_    0.498839 0.884995 0.832418 0.208593
H9    H     H_    0.355674 0.108743 0.722054 0.228428
H10   H     H_    0.497834 0.108314 0.833255 0.201200
C17   C     C_R   0.392710 0.477724 0.071754 0.183625
N1    N     N_R   0.499170 0.499140 0.142800 -0.107799
C18   C     C_R   0.603327 0.533128 0.071453 -0.124267
H11   H     H_    0.687373 0.558137 0.124974 0.152721
C19   C     C_R   0.603394 0.532947 0.927646 -0.127558
H12   H     H_    0.687529 0.557735 0.873495 0.169655
N2    N     N_R   0.499170 0.499180 0.857150 -0.137729
C20   C     C_R   0.392368 0.478804 0.929074 0.169545
C21   C     C_3   0.314294 0.363191 0.925277 0.110225
C22   C     C_3   0.315059 0.362195 0.079405 -0.563645
H13   H     H_    0.362684 0.282274 0.879181 0.108031
H14   H     H_    0.222784 0.379639 0.126669 0.228565
H15   H     H_    0.366776 0.281438 0.123125 0.190366
N3    N     N_R   0.190724 0.386276 0.868155 0.239004
O9    O     O_R   0.145700 0.309577 0.778828 -0.412557
O10   O     O_R   0.125360 0.483181 0.904468 -0.419491

loop_
_geom_bond_atom_site_label_1
_geom_bond_atom_site_label_2
_geom_bond_distance
_ccdc_geom_bond_type
O4    Zn2   1.978737 S    
N3    O10   1.302383 A    
C9    C10   1.392307 A    
C15   H7    1.112673 S    
C5    H1    1.086862 S    
C17   N1    1.362405 A    
C4    C6    1.417357 S    
Zn1   N2    2.013856 S    
C11   C12   1.382985 A    
C2    C8    1.419844 S    
C19   H12   1.081007 S    
C15   C16   1.514611 S    
C14   C15   1.494546 S    
Zn2   O8    1.980589 S    
C9    C16   1.494775 S    
C17   C20   1.408393 A    
N3    O9    1.300618 A    
C17   C22   1.490993 S    
C15   H8    1.112125 S    
C18   C19   1.419525 A    
C6    H2    1.083690 S    
C21   C22   1.521425 S    
C10   C11   1.404288 A    
C5    C7    1.441643 S    
C19   N2    1.368491 A    
C22   H15   1.112147 S    
C1    C10   1.421928 S    
C13   C14   1.391885 A    
Zn2   N1    2.014476 S    
C21   N3    1.463476 S    
O3    Zn1   1.980589 S    
C16   H10   1.111744 S    
O3    C2    1.284628 A    
C7    H3    1.085563 S    
O8    C4    1.283038 A    
Zn1   O7    1.978738 S    
O2    C1    1.284371 A    
C21   H13   1.107992 S    
N2    C20   1.364427 A    
O4    C2    1.284656 A    
O7    C4    1.285457 A    
C22   H14   1.110531 S    
C12   C13   1.402376 A    
C5    C6    1.335129 D    
C9    C14   1.365049 A    
C18   H11   1.080953 S    
N1    C18   1.368500 A    
C20   C21   1.493451 S    
Zn2   O6    1.996039 S    
C3    C13   1.420106 S    
C12   H6    1.083511 S    
Zn1   O5    1.992345 S    
O5    C3    1.285049 A    
C11   H5    1.083557 S    
O1    Zn1   1.996039 S    
O2    Zn2   1.992347 S    
C16   H9    1.112441 S    
C7    C8    1.333736 D    
C8    H4    1.083991 S    
O1    C1    1.286747 A    
O6    C3    1.285070 A    
