data_mof_unit_36546.cif
_audit_creation_date              2012-12-11T16:16:17-0500
_audit_creation_method            fapswitch 2.2
_symmetry_space_group_name_H-M    P1
_symmetry_Int_Tables_number       1
_space_group_crystal_system       triclinic
_cell_length_a                    7.364536
_cell_length_b                    25.778434
_cell_length_c                    28.987372
_cell_angle_alpha                 89.993758
_cell_angle_beta                  90.005374
_cell_angle_gamma                 89.994484
_cell_volume                      5503.14249103

loop_
_atom_site_label
_atom_site_type_symbol
_atom_type_description
_atom_site_fract_x
_atom_site_fract_y
_atom_site_fract_z
_atom_type_partial_charge
O1    O     O_R   0.600980 0.796780 0.202430 -0.535061
O2    O     O_R   0.399020 0.203220 0.797570 -0.541619
O3    O     O_R   0.399020 0.203220 0.702430 -0.534135
O4    O     O_R   0.600980 0.796780 0.297570 -0.540528
O5    O     O_R   0.100980 0.703220 0.297570 -0.534841
O6    O     O_R   0.899020 0.296780 0.702430 -0.539782
O7    O     O_R   0.899020 0.296780 0.797570 -0.533195
O8    O     O_R   0.100980 0.703220 0.202430 -0.540459
O9    O     O_R   0.271240 0.802920 0.297240 -0.522146
O10   O     O_R   0.728760 0.197080 0.702760 -0.531130
O11   O     O_R   0.728760 0.197080 0.797240 -0.526435
O12   O     O_R   0.271240 0.802920 0.202760 -0.530219
O13   O     O_R   0.771240 0.697080 0.202760 -0.522147
O14   O     O_R   0.228760 0.302920 0.797240 -0.530992
O15   O     O_R   0.228760 0.302920 0.702760 -0.521614
O16   O     O_R   0.771240 0.697080 0.297240 -0.530470
C1    C     C_R   0.438469 0.815207 0.312831 0.726892
C2    C     C_R   0.561484 0.184572 0.687363 0.691574
C3    C     C_R   0.561723 0.185172 0.813138 0.729222
C4    C     C_R   0.438539 0.815405 0.187335 0.690702
C5    C     C_R   0.938470 0.684786 0.187175 0.726995
C6    C     C_R   0.061481 0.315451 0.812621 0.692072
C7    C     C_R   0.061525 0.315208 0.687172 0.729184
C8    C     C_R   0.938521 0.684573 0.312637 0.690592
O17   O     O_3   0.434470 0.717290 0.250000 -0.379066
O18   O     O_3   0.565530 0.282710 0.750000 -0.377559
O19   O     O_3   0.934470 0.782710 0.250000 -0.379011
O20   O     O_3   0.065530 0.217290 0.750000 -0.385786
V1    V     V_3+5 0.159620 0.756070 0.250000 1.506663
V2    V     V_3+5 0.840380 0.243930 0.750000 1.495012
V3    V     V_3+5 0.659620 0.743930 0.250000 1.506340
V4    V     V_3+5 0.340380 0.256070 0.750000 1.501857
C9    C     C_R   0.107759 0.625613 0.366915 -0.118306
C10   C     C_R   0.890943 0.370782 0.630437 -0.144327
C11   C     C_R   0.892250 0.374419 0.866887 -0.117743
C12   C     C_R   0.109052 0.629194 0.130461 -0.144320
C13   C     C_R   0.608645 0.873940 0.132918 -0.116005
C14   C     C_R   0.393298 0.132858 0.872731 -0.118623
C15   C     C_R   0.392251 0.125610 0.633090 -0.118193
C16   C     C_R   0.609047 0.870767 0.369570 -0.144472
H1    H     H_    0.228203 0.635015 0.348509 0.177981
H2    H     H_    0.769455 0.353210 0.642664 0.184178
H3    H     H_    0.771802 0.365013 0.848480 0.178184
H4    H     H_    0.230544 0.646755 0.142700 0.184078
H5    H     H_    0.729000 0.864075 0.151155 0.178406
H6    H     H_    0.273119 0.152881 0.862807 0.176335
H7    H     H_    0.271804 0.135025 0.651491 0.178249
H8    H     H_    0.730540 0.853200 0.357336 0.184083
C17   C     C_R   0.119661 0.591358 0.404135 -0.189153
C18   C     C_R   0.878705 0.407643 0.595265 -0.198613
C19   C     C_R   0.880349 0.408672 0.904104 -0.189869
C20   C     C_R   0.121288 0.592341 0.095286 -0.198561
C21   C     C_R   0.621262 0.908283 0.095782 -0.186253
C22   C     C_R   0.381322 0.095679 0.907633 -0.184530
C23   C     C_R   0.380351 0.091344 0.595882 -0.189272
C24   C     C_R   0.621284 0.907614 0.404750 -0.198698
H9    H     H_    0.251435 0.575308 0.412546 0.202344
H10   H     H_    0.746024 0.416418 0.581237 0.193298
H11   H     H_    0.748572 0.424717 0.912512 0.202456
H12   H     H_    0.253973 0.583566 0.081268 0.193327
H13   H     H_    0.753344 0.924067 0.087301 0.201258
H14   H     H_    0.249992 0.088779 0.923269 0.200434
H15   H     H_    0.248578 0.075299 0.587477 0.202324
H16   H     H_    0.753969 0.916381 0.418775 0.193285
C25   C     C_R   0.965492 0.578299 0.430193 -0.095932
C26   C     C_R   0.034310 0.432457 0.578159 -0.070133
C27   C     C_R   0.034519 0.421737 0.930166 -0.096106
C28   C     C_R   0.965687 0.567531 0.078167 -0.070174
C29   C     C_R   0.467037 0.922019 0.070063 -0.099545
C30   C     C_R   0.535185 0.068066 0.922277 -0.100318
C31   C     C_R   0.534516 0.078268 0.569827 -0.095988
C32   C     C_R   0.465680 0.932425 0.421867 -0.070175
C33   C     C_R   0.797137 0.600570 0.417328 0.370338
C34   C     C_R   0.204286 0.419377 0.597637 0.380693
C35   C     C_R   0.202878 0.399473 0.917301 0.370232
C36   C     C_R   0.795716 0.580608 0.097643 0.380757
C37   C     C_R   0.298053 0.900193 0.082971 0.370681
C38   C     C_R   0.703486 0.079129 0.900785 0.367821
C39   C     C_R   0.702865 0.100539 0.582686 0.370343
C40   C     C_R   0.295703 0.919352 0.402390 0.380649
C41   C     C_R   0.784092 0.630615 0.376636 -0.080888
C42   C     C_R   0.216505 0.378859 0.630555 -0.084221
C43   C     C_R   0.215916 0.369426 0.876613 -0.081640
C44   C     C_R   0.783499 0.621124 0.130561 -0.084052
C45   C     C_R   0.284644 0.869812 0.123456 -0.079783
C46   C     C_R   0.716781 0.120309 0.868667 -0.083482
C47   C     C_R   0.715907 0.130597 0.623367 -0.080942
C48   C     C_R   0.283490 0.878847 0.369463 -0.084104
C49   C     C_R   0.942253 0.646233 0.352201 -0.169459
C50   C     C_R   0.057487 0.355292 0.648965 -0.165558
C51   C     C_R   0.057754 0.353799 0.852178 -0.167676
C52   C     C_R   0.942509 0.644692 0.148976 -0.164961
C53   C     C_R   0.442645 0.853756 0.147762 -0.170460
C54   C     C_R   0.558390 0.145806 0.851946 -0.176779
C55   C     C_R   0.557753 0.146227 0.647801 -0.170030
C56   C     C_R   0.442505 0.855285 0.351043 -0.165018
N1    N     N_R   0.834778 0.523503 0.492803 -0.230253
N2    N     N_R   0.164232 0.487206 0.515647 -0.210445
N3    N     N_R   0.165247 0.476559 0.992761 -0.230142
N4    N     N_R   0.835743 0.512749 0.015673 -0.210454
N5    N     N_R   0.335538 0.980830 0.010674 -0.222201
N6    N     N_R   0.666989 0.009344 0.981735 -0.222999
N7    N     N_R   0.665231 0.023447 0.507230 -0.230306
N8    N     N_R   0.335765 0.987185 0.484379 -0.210524
N9    N     N_R   0.851343 0.489587 0.527282 -0.302466
N10   N     N_R   0.147703 0.521224 0.481272 -0.293973
N11   N     N_R   0.148677 0.510460 0.027247 -0.302428
N12   N     N_R   0.852277 0.478747 0.981290 -0.293980
N13   N     N_R   0.351948 0.014803 0.976254 -0.295822
N14   N     N_R   0.650573 0.975321 0.016126 -0.295186
N15   N     N_R   0.648661 0.989533 0.472754 -0.302462
N16   N     N_R   0.352298 0.021201 0.518751 -0.294033
C57   C     C_R   0.016738 0.470907 0.539778 0.539305
C58   C     C_R   0.982697 0.540537 0.469207 0.525077
C59   C     C_R   0.983260 0.529088 0.039778 0.539294
C60   C     C_R   0.017310 0.459487 0.969189 0.525098
C61   C     C_R   0.518086 0.029577 0.960672 0.525326
C62   C     C_R   0.484408 0.959893 0.031192 0.526781
C63   C     C_R   0.483260 0.970871 0.460253 0.539278
C64   C     C_R   0.517310 0.040499 0.530819 0.524988
O21   O     O_3   0.642089 0.591891 0.443138 -0.539706
C65   C     C_3   0.629635 0.631336 0.476958 0.127401
H17   H     H_    0.656340 0.670744 0.462499 0.130961
H18   H     H_    0.728236 0.623793 0.505256 0.123300
C66   C     C_3   0.439299 0.631805 0.497210 -0.664429
H19   H     H_    0.433553 0.658982 0.526887 0.173758
H20   H     H_    0.340301 0.644753 0.470748 0.230492
H21   H     H_    0.401960 0.592422 0.509192 0.248293
O22   O     O_3   0.359705 0.445098 0.583409 -0.544502
C67   C     C_3   0.414670 0.481130 0.617700 0.109336
H22   H     H_    0.546240 0.468187 0.632399 0.163022
H23   H     H_    0.317297 0.485813 0.647011 0.110170
C68   C     C_3   0.443089 0.534153 0.595902 -0.683443
H24   H     H_    0.311123 0.549974 0.583885 0.216288
H25   H     H_    0.501594 0.561244 0.621705 0.175909
H26   H     H_    0.537723 0.531062 0.566252 0.267749
O23   O     O_3   0.357930 0.408153 0.943114 -0.539547
C69   C     C_3   0.370391 0.368703 0.976938 0.127527
H27   H     H_    0.343920 0.329290 0.962462 0.130131
H28   H     H_    0.271620 0.376202 0.005204 0.122948
C70   C     C_3   0.560642 0.368295 0.997254 -0.665240
H29   H     H_    0.566368 0.341112 0.026933 0.173183
H30   H     H_    0.659827 0.355390 0.970826 0.230181
H31   H     H_    0.597750 0.407690 0.009251 0.248657
O24   O     O_3   0.640305 0.554877 0.083422 -0.544448
C71   C     C_3   0.585337 0.518866 0.117735 0.109333
H32   H     H_    0.453844 0.531840 0.132447 0.162982
H33   H     H_    0.682792 0.514166 0.147031 0.110149
C72   C     C_3   0.556716 0.465845 0.095962 -0.683640
H34   H     H_    0.688603 0.450000 0.083923 0.216304
H35   H     H_    0.498256 0.438769 0.121786 0.175885
H36   H     H_    0.461967 0.468948 0.066331 0.267685
O25   O     O_3   0.143157 0.909520 0.057235 -0.539653
C73   C     C_3   0.132959 0.871362 0.022255 0.118594
H37   H     H_    0.141136 0.831368 0.036796 0.138263
H38   H     H_    0.244577 0.876662 0.996771 0.114338
C74   C     C_3   0.952974 0.876253 0.996943 -0.644123
H39   H     H_    0.949334 0.848667 0.967544 0.167395
H40   H     H_    0.839079 0.867082 0.020628 0.225217
H41   H     H_    0.936227 0.916245 0.983529 0.250745
O26   O     O_3   0.858347 0.051597 0.912278 -0.538638
C75   C     C_3   0.867605 0.007343 0.883521 0.124630
H42   H     H_    0.853572 0.017713 0.846325 0.135864
H43   H     H_    0.759076 0.979146 0.892798 0.112991
C76   C     C_3   0.050578 0.980962 0.889811 -0.646113
H44   H     H_    0.055196 0.944736 0.869128 0.165485
H45   H     H_    0.071900 0.971136 0.926649 0.248888
H46   H     H_    0.161155 0.007058 0.878061 0.227731
O27   O     O_3   0.857909 0.091855 0.556875 -0.539750
C77   C     C_3   0.870319 0.131292 0.523039 0.127405
H47   H     H_    0.843545 0.170703 0.537481 0.131032
H48   H     H_    0.771744 0.123735 0.494742 0.123357
C78   C     C_3   0.060663 0.131771 0.502794 -0.664377
H49   H     H_    0.066386 0.158944 0.473108 0.173840
H50   H     H_    0.159629 0.144730 0.529255 0.230532
H51   H     H_    0.098066 0.092389 0.490825 0.248289
O28   O     O_3   0.140278 0.945071 0.416625 -0.544502
C79   C     C_3   0.085258 0.981107 0.382333 0.109351
H52   H     H_    0.953684 0.968167 0.367643 0.163002
H53   H     H_    0.182603 0.985794 0.353017 0.110153
C80   C     C_3   0.056826 0.034128 0.404128 -0.683377
H54   H     H_    0.188794 0.049948 0.416135 0.216308
H55   H     H_    0.998279 0.061223 0.378326 0.175923
H56   H     H_    0.962221 0.031034 0.433785 0.267748
C81   C     C_2   0.603201 0.640688 0.357680 0.813134
O29   O     O_2   0.507142 0.674366 0.374534 -0.576894
O30   O     O_R   0.552002 0.614353 0.317502 -0.651511
H57   H     H_    0.447511 0.631189 0.300551 0.296335
C82   C     C_2   0.396398 0.358581 0.642260 0.794005
O31   O     O_2   0.483972 0.378787 0.673230 -0.580126
O32   O     O_R   0.453212 0.312208 0.621744 -0.653492
H58   H     H_    0.557026 0.294884 0.638671 0.276901
C83   C     C_2   0.396797 0.359349 0.857663 0.813492
O33   O     O_2   0.492883 0.325682 0.874537 -0.576607
O34   O     O_R   0.447953 0.385664 0.817468 -0.651516
H59   H     H_    0.552435 0.368821 0.800527 0.296657
C84   C     C_2   0.603614 0.641399 0.142260 0.793725
O35   O     O_2   0.516116 0.621215 0.173255 -0.580331
O36   O     O_R   0.546726 0.687750 0.121709 -0.653177
H60   H     H_    0.442935 0.705083 0.138628 0.276798
C85   C     C_2   0.103771 0.859612 0.142277 0.811357
O37   O     O_2   0.008607 0.825716 0.125446 -0.576739
O38   O     O_R   0.051748 0.885981 0.182368 -0.651470
H61   H     H_    0.947440 0.869041 0.199302 0.296215
C86   C     C_2   0.898255 0.139459 0.856561 0.820445
O39   O     O_2   0.997772 0.113629 0.831870 -0.570735
O40   O     O_R   0.947195 0.189501 0.870639 -0.657698
H62   H     H_    0.050509 0.204782 0.852086 0.276969
C87   C     C_2   0.896793 0.140678 0.642315 0.813478
O41   O     O_2   0.992815 0.174355 0.625447 -0.576459
O42   O     O_R   0.948031 0.114350 0.682500 -0.652976
H63   H     H_    0.052501 0.131194 0.699446 0.294852
C88   C     C_2   0.103611 0.858574 0.357758 0.793677
O43   O     O_2   0.016029 0.878789 0.326787 -0.580288
O44   O     O_R   0.046820 0.812197 0.378273 -0.653577
H64   H     H_    0.943013 0.794879 0.361348 0.276563

loop_
_geom_bond_atom_site_label_1
_geom_bond_atom_site_label_2
_ccdc_geom_bond_type
O17   V3    S    
C4    C53   S    
C48   C56   A    
O18   V4    S    
C74   H39   S    
C26   C57   S    
O12   V1    S    
C30   C38   A    
C47   C87   S    
O27   C77   S    
C29   C37   A    
N7    C64   A    
C10   H2    S    
N12   C60   A    
C27   C60   S    
C21   C29   A    
C8    C49   S    
N14   C62   A    
C31   C39   A    
C79   H52   S    
C27   C35   A    
N13   C61   A    
O15   V4    S    
C78   H49   S    
O16   V3    S    
O11   C3    A    
C76   H44   S    
C17   C25   A    
C31   C64   S    
N10   C58   A    
C14   C22   A    
N5    C62   A    
N9    C57   A    
C16   C56   A    
O22   C67   S    
C72   H35   S    
C81   O30   S    
O19   V1    S    
C77   H47   S    
C84   O35   D    
C30   C61   S    
N5    N13   A    
C26   C34   A    
C29   C62   S    
O1    V3    S    
C32   C40   A    
C17   H9    S    
O3    C2    A    
O2    V4    S    
C85   O37   D    
C33   C41   A    
C82   O32   S    
C46   C54   A    
C37   O25   S    
C21   H13   S    
C35   C43   A    
C15   C23   A    
O11   V2    S    
C16   C24   A    
C23   H15   S    
C66   H21   S    
C6    C51   S    
C24   H16   S    
N2    N10   A    
C11   H3    S    
C73   H38   S    
C12   C20   A    
C12   H4    S    
C45   C85   S    
O4    V3    S    
N8    C63   A    
C41   C49   A    
C38   C46   A    
O15   C7    A    
C37   C45   A    
O36   H60   S    
C74   H40   S    
O7    V2    S    
O12   C4    A    
C2    C55   S    
C85   O38   S    
C36   C44   A    
C76   H45   S    
N4    C59   A    
C45   C53   A    
C34   C42   A    
C46   C86   S    
C39   C47   A    
O24   C71   S    
C71   H33   S    
C78   H50   S    
C10   C18   A    
N4    N12   A    
C48   C88   S    
C13   C53   A    
O40   H62   S    
C18   H10   S    
C73   C74   S    
C35   O23   S    
C25   C33   A    
N3    C60   A    
C41   C81   S    
N2    C57   A    
C3    C54   S    
C22   H14   S    
C83   O34   S    
C20   C28   A    
C80   H54   S    
C15   H7    S    
C75   H42   S    
O32   H58   S    
C47   C55   A    
N8    N16   A    
C43   C83   S    
C67   H23   S    
O44   H64   S    
C10   C50   A    
C9    C49   A    
C68   H26   S    
C71   C72   S    
O10   V2    S    
O42   H63   S    
C22   C30   A    
C25   C58   S    
C88   O43   D    
N11   C59   A    
C14   C54   A    
C87   O41   D    
C73   H37   S    
C7    C50   S    
O13   C5    A    
O3    V4    S    
C1    C56   S    
C19   C27   A    
C28   C36   A    
C84   O36   S    
C18   C26   A    
O14   C6    A    
C15   C55   A    
O21   C65   S    
N6    C61   A    
C69   H28   S    
O4    C1    A    
N15   C63   A    
O9    C1    A    
O6    V2    S    
C36   O24   S    
C83   O33   D    
C76   H46   S    
C33   O21   S    
C42   C82   S    
C11   C19   A    
C68   H24   S    
C72   H36   S    
C67   C68   S    
C19   H11   S    
O8    V1    S    
C13   H5    S    
O5    V1    S    
C43   C51   A    
N16   C64   A    
C71   H32   S    
C80   H56   S    
C16   H8    S    
C86   O39   D    
C87   O42   S    
O1    C4    A    
C24   C32   A    
O2    C3    A    
C75   C76   S    
O13   V3    S    
O14   V4    S    
C9    C17   A    
C69   C70   S    
O8    C5    A    
C79   H53   S    
N1    C58   A    
C70   H31   S    
N7    N15   A    
O9    V1    S    
C44   C84   S    
C74   H41   S    
O7    C6    A    
N3    N11   A    
O23   C69   S    
C42   C50   A    
C9    H1    S    
C40   O28   S    
C39   O27   S    
C65   C66   S    
C70   H30   S    
C67   H22   S    
O25   C73   S    
C88   O44   S    
N1    N9    A    
O30   H57   S    
C40   C48   A    
C75   H43   S    
O26   C75   S    
C70   H29   S    
C12   C52   A    
C81   O29   D    
C66   H19   S    
O5    C8    A    
C77   H48   S    
O10   C2    A    
O6    C7    A    
C32   C63   S    
O20   V2    S    
C78   H51   S    
C82   O31   D    
C14   H6    S    
C79   C80   S    
N6    N14   A    
C69   H27   S    
C28   C59   S    
O34   H59   S    
C80   H55   S    
C13   C21   A    
C20   H12   S    
C38   O26   S    
O16   C8    A    
O28   C79   S    
C34   O22   S    
C66   H20   S    
C68   H25   S    
C44   C52   A    
O38   H61   S    
C65   H17   S    
C72   H34   S    
C86   O40   S    
C65   H18   S    
C77   C78   S    
C23   C31   A    
C5    C52   S    
C11   C51   A    
