data_mof_unit_43115.cif
_audit_creation_date              2012-12-11T17:37:52-0500
_audit_creation_method            fapswitch 2.2
_symmetry_space_group_name_H-M    P1
_symmetry_Int_Tables_number       1
_space_group_crystal_system       triclinic
_cell_length_a                    13.140675
_cell_length_b                    13.025126
_cell_length_c                    15.531412
_cell_angle_alpha                 117.292378
_cell_angle_beta                  63.708454
_cell_angle_gamma                 97.502895
_cell_volume                      2109.22900528

loop_
_atom_site_label
_atom_site_type_symbol
_atom_type_description
_atom_site_fract_x
_atom_site_fract_y
_atom_site_fract_z
_atom_type_partial_charge
C1    C     C_R   0.999533 0.832843 0.058941 -0.092143
C2    C     C_R   0.318903 0.541291 0.778937 -0.125456
C3    C     C_R   0.257311 0.423539 0.055981 -0.152942
C4    C     C_R   0.703193 0.403692 0.206317 -0.132103
C5    C     C_R   0.025003 0.278051 0.686022 -0.144084
C6    C     C_R   0.359581 0.446390 0.989903 0.154229
C7    C     C_R   0.013650 0.166344 0.676830 0.063481
C8    C     C_R   0.326705 0.467687 0.677513 0.038922
C9    C     C_R   0.015075 0.147967 0.034540 0.084888
C10   C     C_R   0.410989 0.971886 0.129017 -0.128907
C11   C     C_R   0.346055 0.951243 0.218289 -0.149700
C12   C     C_R   0.705627 0.433153 0.302878 0.026858
C13   C     C_R   0.232347 0.998684 0.284843 0.120620
C14   C     C_R   0.184052 0.065922 0.260522 -0.203932
C15   C     C_R   0.249199 0.086326 0.171218 -0.115042
C16   C     C_R   0.754971 0.516083 0.893225 -0.012294
C17   C     C_R   0.362686 0.039607 0.105673 -0.086703
C18   C     C_R   0.134234 0.072366 0.481043 -0.240437
C19   C     C_R   0.064930 0.059763 0.574761 0.072714
C20   C     C_R   0.052596 0.946109 0.566067 0.136607
C21   C     C_R   0.096933 0.852070 0.464615 -0.114351
C22   C     C_R   0.128594 0.870063 0.374518 0.033263
C23   C     C_R   0.661000 0.459075 0.929716 0.036981
C24   C     C_R   0.164572 0.978702 0.380170 0.042762
C25   C     C_R   0.026664 0.893926 0.710718 0.445435
C26   C     C_R   0.954713 0.869753 0.796317 -0.214620
C27   C     C_R   0.837390 0.868865 0.826386 -0.137369
C28   C     C_R   0.014751 0.704785 0.302925 0.412851
C29   C     C_R   0.791409 0.891788 0.770816 -0.143875
C30   C     C_R   0.862385 0.916954 0.685836 -0.148197
C31   C     C_R   0.980118 0.919269 0.655938 -0.057075
C32   C     C_R   0.943990 0.368463 0.372063 -0.156230
C33   C     C_R   0.831260 0.341823 0.397018 -0.157643
C34   C     C_R   0.089377 0.789761 0.293570 -0.013040
C35   C     C_R   0.741889 0.427267 0.480277 0.080882
C36   C     C_R   0.766050 0.533026 0.549109 -0.149448
C37   C     C_R   0.879002 0.559766 0.523004 -0.023201
C38   C     C_R   0.967003 0.480590 0.429451 -0.129788
C39   C     C_R   0.533153 0.431635 0.570356 -0.234907
C40   C     C_R   0.676118 0.423425 0.993965 -0.105483
C41   C     C_R   0.425533 0.441937 0.576293 0.076715
C42   C     C_R   0.414345 0.432818 0.486620 0.022318
C43   C     C_R   0.509297 0.411291 0.393391 -0.220874
C44   C     C_R   0.616873 0.413454 0.390135 0.077362
C45   C     C_R   0.337828 0.526519 0.963685 -0.116133
C46   C     C_R   0.630114 0.419390 0.478188 0.042007
C47   C     C_R   0.258756 0.356386 0.432843 -0.166660
C48   C     C_R   0.141920 0.362294 0.464726 -0.202204
C49   C     C_R   0.073920 0.462926 0.550329 -0.100743
C50   C     C_R   0.123131 0.564073 0.592856 -0.052161
C51   C     C_R   0.240304 0.559388 0.560677 -0.122566
C52   C     C_R   0.107923 0.791922 0.200198 -0.207153
C53   C     C_R   0.305898 0.452203 0.488202 0.089213
C54   C     C_2   0.469859 0.407445 0.967258 -0.166102
C55   C     C_2   0.563372 0.439557 0.906330 -0.196857
C56   C     C_R   0.957619 0.178577 0.781120 -0.102006
C57   C     C_2   0.828720 0.958623 0.107326 -0.182290
C58   C     C_2   0.830092 0.048206 0.194976 -0.165477
C59   C     C_R   0.799030 0.494451 0.304071 -0.028740
C60   C     C_R   0.893960 0.748902 0.969555 -0.083829
C61   C     C_R   0.908109 0.853132 0.044975 0.072274
C62   C     C_2   0.786350 0.544007 0.803292 0.394788
C63   C     C_R   0.219186 0.438755 0.687551 -0.088465
C64   C     C_R   0.056935 0.252458 0.080964 -0.124662
C65   C     C_R   0.954974 0.169720 0.989225 -0.087630
Cl1   Cl    Cl    0.173536 0.895524 0.676135 -0.693729
Cl2   Cl    Cl    0.896544 0.732097 0.425793 -0.769216
H1    H     H_    0.030143 0.893279 0.116286 0.107288
H2    H     H_    0.498786 0.935515 0.078006 0.104683
H3    H     H_    0.384333 0.898981 0.235896 0.124717
H4    H     H_    0.650345 0.344136 0.172421 0.090672
H5    H     H_    0.095453 0.100045 0.309274 0.115826
H6    H     H_    0.211578 0.137902 0.152589 0.104721
H7    H     H_    0.161304 0.155525 0.484644 0.128804
H8    H     H_    0.085110 0.765167 0.457915 0.147756
H9    H     H_    0.990237 0.852522 0.839641 0.168144
H10   H     H_    0.781523 0.851123 0.893021 0.118762
H11   H     H_    0.700651 0.890866 0.794096 0.128493
H12   H     H_    0.926608 0.113891 0.808296 0.110423
H13   H     H_    0.825618 0.936140 0.644127 0.185402
H14   H     H_    0.053747 0.504314 0.404680 0.136808
H15   H     H_    0.012929 0.304169 0.305529 0.111002
H16   H     H_    0.813344 0.259611 0.345310 0.132201
H17   H     H_    0.698071 0.599412 0.615006 0.127104
H18   H     H_    0.897989 0.643971 0.571657 0.163611
H19   H     H_    0.541716 0.438410 0.639076 0.123709
H20   H     H_    0.496853 0.408513 0.327934 0.129282
H21   H     H_    0.309424 0.274081 0.374705 0.139616
H22   H     H_    0.102393 0.286765 0.429537 0.133134
H23   H     H_    0.198078 0.379093 0.624573 0.122335
H24   H     H_    0.982840 0.461482 0.581596 0.177708
H25   H     H_    0.070197 0.643535 0.655362 0.171681
H26   H     H_    0.277076 0.634608 0.601478 0.162451
H27   H     H_    0.470915 0.369994 0.016391 0.120757
H28   H     H_    0.560765 0.472775 0.854861 0.110408
H29   H     H_    0.764106 0.962631 0.083137 0.126277
H30   H     H_    0.890867 0.049873 0.225187 0.129878
H31   H     H_    0.629476 0.363146 0.023982 0.091183
H32   H     H_    0.170403 0.835826 0.159251 0.145006
H33   H     H_    0.830946 0.525803 0.362392 0.183226
H34   H     H_    0.099322 0.269142 0.130954 0.077058
H35   H     H_    0.822065 0.734067 0.951186 0.128081
H36   H     H_    0.397887 0.574317 0.925591 0.082618
H37   H     H_    0.730173 0.529190 0.765324 0.016584
H38   H     H_    0.900246 0.111231 0.957762 0.096671
H39   H     H_    0.386059 0.587587 0.798208 0.092504
H40   H     H_    0.245604 0.372217 0.097330 0.095320
H41   H     H_    0.046604 0.303223 0.623789 0.110944
H42   H     H_    0.413061 0.055487 0.036564 0.104909
N1    N     N_R   0.037320 0.720000 0.995830 -0.053303
N2    N     N_R   0.824900 0.517970 0.936430 -0.046634
N3    N     N_R   0.003190 0.648180 0.211390 -0.066175
N4    N     N_R   0.774330 0.457010 0.995830 -0.057689
N5    N     N_R   0.053760 0.709130 0.151980 -0.058796
N6    N     N_R   0.853840 0.498830 0.211390 -0.042929
N7    N     N_R   0.974250 0.667320 0.936430 -0.025992
N8    N     N_R   0.225670 0.542990 0.004170 -0.048141
N9    N     N_R   0.946240 0.290870 0.848020 -0.049025
N10   N     N_R   0.146160 0.501170 0.788610 -0.036512
N11   N     N_R   0.025750 0.332680 0.063570 -0.041733
N12   N     N_R   0.962680 0.280000 0.004170 -0.048767
N13   N     N_R   0.209230 0.553860 0.848010 -0.043395
N14   N     N_R   0.175100 0.482030 0.063570 -0.052011
N15   N     N_R   0.996810 0.351820 0.788610 -0.034061
N16   N     N_R   0.790770 0.446140 0.151990 -0.043500
Ni1   Ni    Ni4+2 0.130310 0.630310 0.000000 0.215028
Ni2   Ni    Ni4+2 0.869690 0.369690 0.000000 0.208715
Ni3   Ni    Ni4+2 0.985660 0.509480 0.863750 0.276646
Ni4   Ni    Ni4+2 0.014340 0.490520 0.136250 0.228042
O1    O     O_2   0.876274 0.584004 0.770090 -0.636233

loop_
_geom_bond_atom_site_label_1
_geom_bond_atom_site_label_2
_ccdc_geom_bond_type
C25   C31   A    
C6    C45   A    
C27   C29   A    
C9    C64   A    
C41   C42   A    
C62   O1    D    
C19   C20   A    
C3    C6    A    
N3    N5    A    
C11   H3    S    
C39   C41   A    
C28   N3    A    
C5    N15   A    
C26   C27   A    
C29   C30   A    
C56   H12   S    
C4    N16   A    
C18   C24   A    
C37   H18   S    
C36   C37   A    
C6    C54   S    
N12   Ni2   S    
C42   C53   S    
C40   H31   S    
C30   C31   A    
N5    Ni1   S    
C10   C17   A    
C23   C40   A    
C1    H1    S    
C18   C19   A    
C34   C52   A    
C45   H36   S    
C12   C59   A    
C29   H11   S    
C35   C36   A    
C42   C43   A    
C3    N14   A    
C57   H29   S    
C26   H9    S    
C32   C38   A    
N3    Ni4   S    
C4    C12   A    
N8    Ni1   S    
C47   C53   A    
C30   H13   S    
N10   Ni3   S    
C28   C34   A    
C18   H7    S    
C21   C22   A    
N14   Ni4   S    
C59   H33   S    
C58   H30   S    
C16   C62   S    
C7    C56   A    
C49   H24   S    
C60   H35   S    
C65   H38   S    
C44   C46   A    
C62   H37   S    
C2    N13   A    
C64   H34   S    
C22   C34   S    
N11   Ni4   S    
C47   C48   A    
C28   Cl2   S    
C8    C41   S    
C55   H28   S    
C5    C7    A    
C3    H40   S    
C25   C26   A    
C2    H39   S    
C13   C24   S    
C17   H42   S    
C60   C61   A    
C51   C53   A    
N13   Ni1   S    
C43   C44   A    
C37   C38   A    
C1    N1    A    
C63   N10   A    
C40   N4    A    
C50   C51   A    
N2    N4    A    
N9    N15   A    
C57   C61   S    
C33   H16   S    
N1    Ni1   S    
C39   C46   A    
C50   H25   S    
C48   C49   A    
C15   H6    S    
C51   H26   S    
C16   C23   A    
C65   N12   A    
C48   H22   S    
C38   H14   S    
C22   C24   A    
C60   N7    A    
N9    Ni2   S    
N1    N7    A    
N11   N12   A    
N6    Ni4   S    
N10   N13   A    
C45   N8    A    
C15   C17   A    
C54   C55   D    
C14   H5    S    
C2    C8    A    
C25   Cl1   S    
C27   H10   S    
C1    C61   A    
C23   C55   S    
N4    Ni2   S    
C52   N5    A    
C32   H15   S    
C21   H8    S    
C52   H32   S    
C7    C19   S    
C64   N11   A    
N15   Ni3   S    
C43   H20   S    
C32   C33   A    
N8    N14   A    
C12   C44   S    
C47   H21   S    
C56   N9    A    
C11   C13   A    
C57   C58   D    
C36   H17   S    
N6    N16   A    
C63   H23   S    
C33   C35   A    
C9    C65   A    
C54   H27   S    
C10   C11   A    
C8    C63   A    
C10   H2    S    
C20   C21   A    
C59   N6    A    
C49   C50   A    
N7    Ni3   S    
N2    Ni3   S    
N16   Ni2   S    
C14   C15   A    
C39   H19   S    
C13   C14   A    
C35   C46   S    
C5    H41   S    
C4    H4    S    
C16   N2    A    
C20   C31   S    
