data_mof_unit_27359.cif
_audit_creation_date              2012-12-10T16:54:02-0500
_audit_creation_method            fapswitch 2.2
_symmetry_space_group_name_H-M    P1
_symmetry_Int_Tables_number       1
_space_group_crystal_system       triclinic
_cell_length_a                    9.713394
_cell_length_b                    10.932478
_cell_length_c                    13.495372
_cell_angle_alpha                 89.98796
_cell_angle_beta                  73.66185
_cell_angle_gamma                 88.43218
_cell_volume                      1374.66575453

loop_
_atom_site_label
_atom_site_type_symbol
_atom_type_description
_atom_site_fract_x
_atom_site_fract_y
_atom_site_fract_z
_atom_type_partial_charge
C1    C     C_R   0.495904 0.734650 0.506478 0.713757
C2    C     C_R   0.434772 0.519124 0.978904 -0.085212
C3    C     C_R   0.482111 0.537251 0.870779 -0.159249
C4    C     C_R   0.541772 0.500735 0.031651 0.016363
C5    C     C_R   0.686051 0.474280 0.974500 -0.056600
C6    C     C_R   0.730599 0.502709 0.869573 0.375893
C7    C     C_R   0.630394 0.556242 0.825258 0.450920
C8    C     C_R   0.513287 0.516625 0.138187 -0.159663
C9    C     C_R   0.750958 0.438843 0.132884 -0.182700
C10   C     C_R   0.381143 0.535996 0.812327 -0.156578
C11   C     C_2   0.616351 0.060585 0.491400 0.434868
C12   C     C_R   0.424217 0.512376 0.699205 0.850084
C13   C     C_2   0.514109 0.134516 0.470861 0.296963
C14   C     C_2   0.607953 0.928234 0.473364 -0.295973
C15   C     C_2   0.489884 0.867630 0.521548 0.376615
C16   C     C_2   0.066139 0.596404 0.520952 -0.041413
C17   C     C_2   0.906021 0.590456 0.535664 0.140214
C18   C     C_R   0.503627 0.265341 0.494789 0.768045
C19   C     C_R   0.575858 0.496325 0.300943 0.770337
C20   C     C_R   0.786181 0.433994 0.025614 -0.072903
C21   C     C_R   0.616165 0.485558 0.188880 -0.096240
C22   C     C_R   0.235223 0.552021 0.864051 -0.325389
C23   C     C_R   0.187613 0.553495 0.971943 0.479598
C24   C     C_R   0.283897 0.519635 0.028343 0.207985
Cu1   Cu    Cu3+1 0.361370 0.499980 0.499980 0.947419
Cu2   Cu    Cu3+1 0.638630 0.500020 0.500020 1.002815
H1    H     H_    0.830104 0.410127 0.171529 0.170465
H2    H     H_    0.699711 0.881505 0.420442 0.100251
H3    H     H_    0.108416 0.684430 0.531261 0.113009
H4    H     H_    0.107176 0.417021 0.506890 0.227712
H5    H     H_    0.839896 0.666825 0.574490 0.131968
H6    H     H_    0.893279 0.403442 0.982668 0.198849
H7    H     H_    0.414369 0.560588 0.182332 0.191982
H8    H     H_    0.156913 0.559769 0.820851 0.211644
N1    N     N_2   0.152660 0.501340 0.501130 -0.264828
N2    N     N_2   0.846520 0.501370 0.501160 -0.002047
O1    O     O_R   0.382960 0.678040 0.499980 -0.595094
O2    O     O_R   0.617100 0.678080 0.500020 -0.595514
O3    O     O_R   0.325800 0.499940 0.650950 -0.594803
O4    O     O_R   0.559930 0.499980 0.650990 -0.537502
O5    O     O_R   0.382900 0.321920 0.499980 -0.563190
O6    O     O_R   0.617040 0.321960 0.500020 -0.582025
O7    O     O_R   0.440070 0.500020 0.349010 -0.571175
O8    O     O_R   0.674200 0.500060 0.349050 -0.548797
O9    O     O_3   0.412899 0.086316 0.427772 -0.569111
C25   C     C_3   0.448556 0.117435 0.322298 -0.393596
H9    H     H_    0.558959 0.083929 0.280413 0.143627
H10   H     H_    0.437472 0.217839 0.311863 0.178485
H11   H     H_    0.372819 0.072490 0.286776 0.196934
O10   O     O_3   0.383971 0.928424 0.599293 -0.575647
C26   C     C_3   0.245686 0.885269 0.608868 -0.266770
H12   H     H_    0.229941 0.797050 0.650946 0.157353
H13   H     H_    0.223516 0.878580 0.532512 0.175344
H14   H     H_    0.166036 0.952194 0.655964 0.172437
O11   O     O_3   0.935518 0.449835 0.414868 -0.508570
C27   C     C_3   0.919257 0.322516 0.420152 -0.122841
H15   H     H_    0.848621 0.294526 0.372881 0.173637
H16   H     H_    0.881597 0.288870 0.500843 0.182145
H17   H     H_    0.025545 0.277415 0.385539 0.105443
O12   O     O_3   0.875065 0.504740 0.817507 -0.573586
C28   C     C_3   0.910087 0.399363 0.754334 -0.332069
H18   H     H_    0.025890 0.400250 0.712154 0.199893
H19   H     H_    0.848805 0.397724 0.696010 0.180862
H20   H     H_    0.891531 0.314536 0.801341 0.145546
N3    N     N_2   0.227129 0.477586 0.131393 -0.428867
H21   H     H_    0.130811 0.518349 0.172100 0.301106
C29   C     C_3   0.227947 0.345849 0.141225 -0.673862
H22   H     H_    0.195984 0.321461 0.224152 0.231324
H23   H     H_    0.337138 0.305918 0.105593 0.231737
H24   H     H_    0.151026 0.306126 0.103629 0.218444
O13   O     O_3   0.043465 0.569681 0.023024 -0.597123
C30   C     C_3   0.996442 0.688593 0.004660 -0.319493
H25   H     H_    0.987115 0.696914 0.924735 0.191819
H26   H     H_    0.067625 0.759851 0.020322 0.142579
H27   H     H_    0.887763 0.706116 0.058006 0.194839
O14   O     O_3   0.680241 0.635621 0.744014 -0.566631
C31   C     C_3   0.621291 0.754320 0.772295 -0.314094
H28   H     H_    0.633385 0.783596 0.848422 0.148668
H29   H     H_    0.506831 0.760587 0.772596 0.175328
H30   H     H_    0.680078 0.819631 0.713905 0.176369
O15   O     O_3   0.714970 0.108547 0.537955 -0.601225
C32   C     C_3   0.834978 0.029278 0.529583 -0.392652
H31   H     H_    0.891837 0.008507 0.447304 0.159043
H32   H     H_    0.803790 0.943953 0.573888 0.176811
H33   H     H_    0.911532 0.075665 0.563426 0.185510

loop_
_geom_bond_atom_site_label_1
_geom_bond_atom_site_label_2
_ccdc_geom_bond_type
O11   C27   S    
C4    C8    A    
Cu2   O4    S    
Cu1   O7    S    
O15   C32   S    
Cu2   O8    S    
C5    C20   A    
O9    C25   S    
C11   O15   S    
C25   H11   S    
Cu2   O6    S    
H4    N1    S    
C19   C21   S    
C3    C7    A    
C18   O6    A    
C16   N1    D    
C5    C6    A    
C11   C14   S    
C27   H15   S    
C15   O10   S    
C28   H19   S    
C24   N3    S    
Cu1   O1    S    
C16   C17   S    
N3    C29   S    
C23   C24   A    
C1    C15   S    
C17   N2    D    
C1    O1    A    
C30   H25   S    
C30   H27   S    
C19   O7    A    
C8    C21   A    
C31   H29   S    
C22   H8    S    
C25   H10   S    
C26   H12   S    
C6    O12   S    
O14   C31   S    
C30   H26   S    
C18   O5    A    
Cu1   O5    S    
Cu2   O2    S    
C16   H3    S    
C31   H28   S    
C10   C22   A    
C29   H22   S    
O12   C28   S    
C29   H23   S    
C12   O4    A    
C28   H20   S    
C2    C4    A    
C23   O13   S    
C9    C20   A    
O10   C26   S    
C6    C7    A    
C10   C12   S    
C1    O2    A    
Cu1   N1    S    
C13   C18   S    
Cu2   N2    S    
N3    H21   S    
C32   H32   S    
C2    C24   A    
C17   H5    S    
C19   O8    A    
C9    H1    S    
C20   H6    S    
C31   H30   S    
C25   H9    S    
C14   C15   D    
C4    C5    A    
C7    O14   S    
C32   H33   S    
C27   H17   S    
C26   H14   S    
C14   H2    S    
C29   H24   S    
C12   O3    A    
C2    C3    A    
Cu1   Cu2   S    
O13   C30   S    
C3    C10   A    
Cu1   O3    S    
C13   O9    S    
C11   C13   D    
C9    C21   A    
C27   H16   S    
C8    H7    S    
C28   H18   S    
C32   H31   S    
N2    O11   S    
C22   C23   A    
C26   H13   S    
