data_mof_unit_50615.cif
_audit_creation_date              2012-12-11T17:39:39-0500
_audit_creation_method            fapswitch 2.2
_symmetry_space_group_name_H-M    P1
_symmetry_Int_Tables_number       1
_space_group_crystal_system       triclinic
_cell_length_a                    14.866254
_cell_length_b                    15.154199
_cell_length_c                    14.817171
_cell_angle_alpha                 109.263582
_cell_angle_beta                  108.719552
_cell_angle_gamma                 110.473669
_cell_volume                      2567.83020719

loop_
_atom_site_label
_atom_site_type_symbol
_atom_type_description
_atom_site_fract_x
_atom_site_fract_y
_atom_site_fract_z
_atom_type_partial_charge
C1    C     C_R   0.905044 0.978124 0.718078 -0.115223
C2    C     C_R   0.996965 0.322054 0.533428 0.035988
C3    C     C_R   0.361604 0.305912 0.807366 -0.058218
C4    C     C_R   0.625171 0.918119 0.420201 0.069518
C5    C     C_R   0.754652 0.688330 0.278917 -0.067291
C6    C     C_R   0.252993 0.032017 0.436965 -0.105688
C7    C     C_R   0.090329 0.789613 0.590881 -0.128830
C8    C     C_R   0.909456 0.999122 0.198453 -0.139154
C9    C     C_R   0.091954 0.088826 0.286077 -0.114631
C10   C     C_R   0.906801 0.701444 0.503241 -0.134458
C11   C     C_R   0.754410 0.779723 0.187033 -0.173552
C12   C     C_R   0.091173 0.314651 0.554662 -0.152742
C13   C     C_R   0.257990 0.943456 0.531538 -0.112474
C14   C     C_R   0.730699 0.678438 0.177001 -0.083377
C15   C     C_R   0.288064 0.963308 0.456759 0.049201
C16   C     C_R   0.997094 0.697826 0.560098 0.059756
C17   C     C_R   0.999390 0.051572 0.188604 0.056487
C18   C     C_R   0.484798 0.580847 0.390238 -0.118555
C19   C     C_R   0.473961 0.660797 0.368596 -0.148907
C20   C     C_R   0.458473 0.736131 0.438288 0.112479
C21   C     C_R   0.452932 0.728703 0.528910 -0.177690
C22   C     C_R   0.460170 0.646427 0.547706 -0.086456
C23   C     C_R   0.299362 0.210953 0.802677 -0.238573
C24   C     C_R   0.476028 0.572596 0.478438 -0.061940
C25   C     C_R   0.360978 0.838884 0.425380 -0.226473
C26   C     C_R   0.347889 0.921137 0.410152 0.065008
C27   C     C_R   0.397956 0.963744 0.355935 0.055946
C28   C     C_R   0.465169 0.929916 0.328418 -0.211108
C29   C     C_R   0.505962 0.878426 0.378284 0.032667
C30   C     C_R   0.443078 0.819067 0.413992 0.040118
C31   C     C_R   0.350129 0.049653 0.245451 -0.146745
C32   C     C_R   0.366778 0.142289 0.236773 -0.170179
C33   C     C_R   0.439406 0.245682 0.330156 -0.129906
C34   C     C_R   0.693155 0.986929 0.397658 -0.115488
C35   C     C_R   0.496096 0.256195 0.432404 0.361295
C36   C     C_R   0.479716 0.163540 0.441128 -0.200380
C37   C     C_R   0.405929 0.059963 0.347829 0.032561
C38   C     C_R   0.800452 0.180746 0.174376 -0.085485
C39   C     C_R   0.874348 0.272269 0.278966 -0.195337
C40   C     C_R   0.834642 0.315118 0.345953 -0.115117
C41   C     C_R   0.720124 0.266300 0.306027 0.767639
C42   C     C_R   0.646769 0.174358 0.201797 -0.267097
C43   C     C_R   0.686841 0.131549 0.136066 -0.191309
C44   C     C_R   0.911696 0.505807 0.470399 -0.127988
C45   C     C_R   0.300688 0.301725 0.711589 0.685452
C46   C     C_R   0.990528 0.604116 0.567109 0.024597
C47   C     C_R   0.067686 0.609987 0.657597 0.082504
C48   C     C_R   0.066952 0.514633 0.645433 -0.239653
C49   C     C_R   0.991085 0.417267 0.545764 0.061098
C50   C     C_R   0.912286 0.412494 0.457046 0.104159
C51   C     C_R   0.261331 0.746460 0.812810 -0.172330
C52   C     C_R   0.337956 0.845913 0.909922 -0.189931
C53   C     C_R   0.302763 0.912760 0.958684 -0.288126
C54   C     C_R   0.190702 0.879847 0.911193 0.785542
C55   C     C_R   0.113759 0.780303 0.814297 -0.277850
C56   C     C_R   0.692356 0.898069 0.489849 -0.156313
C57   C     C_R   0.148553 0.713220 0.763465 0.043428
C58   C     C_2   0.544285 0.460887 0.883532 0.042357
C59   C     C_2   0.473044 0.388928 0.895726 -0.167769
C60   C     C_2   0.632700 0.565885 0.979675 -0.280383
C61   C     C_2   0.686072 0.577253 0.078040 0.722788
C62   C     C_R   0.371827 0.391720 0.111283 -0.129473
C63   C     C_R   0.286830 0.308524 0.106322 -0.137476
C64   C     C_R   0.176005 0.272374 0.038255 0.096948
C65   C     C_R   0.152390 0.324433 0.978360 -0.145424
C66   C     C_R   0.237639 0.409644 0.985974 -0.084143
C67   C     C_R   0.906308 0.219169 0.470454 -0.091278
C68   C     C_R   0.347345 0.443296 0.052453 -0.103128
C69   C     C_R   0.086005 0.164194 0.115205 -0.199865
C70   C     C_R   0.993769 0.077143 0.099699 0.066833
C71   C     C_R   0.894013 0.017127 0.998055 0.056598
C72   C     C_R   0.890345 0.044050 0.917141 -0.216857
C73   C     C_R   0.988614 0.103816 0.921810 0.051198
C74   C     C_R   0.083934 0.178523 0.025294 0.057669
C75   C     C_R   0.816012 0.819709 0.930808 -0.295496
C76   C     C_R   0.724702 0.714322 0.865064 0.823714
C77   C     C_R   0.617883 0.697794 0.827891 -0.304648
C78   C     C_R   0.088471 0.067993 0.812248 -0.038197
C79   C     C_R   0.602301 0.786552 0.858045 -0.209206
C80   C     C_R   0.693361 0.892074 0.921468 -0.180279
C81   C     C_R   0.800911 0.909380 0.957870 0.028219
C82   C     C_R   0.995133 0.058046 0.820964 0.055478
H1    H     H_    0.819044 0.948478 0.692640 0.102146
H2    H     H_    0.255497 0.060162 0.379953 0.121642
H3    H     H_    0.175181 0.816697 0.644203 0.104933
H4    H     H_    0.826055 0.979375 0.150792 0.110300
H5    H     H_    0.176033 0.147566 0.314466 0.105006
H6    H     H_    0.821742 0.648192 0.477794 0.118697
H7    H     H_    0.747215 0.801045 0.123483 0.115800
H8    H     H_    0.272335 0.894036 0.566138 0.092094
H9    H     H_    0.481099 0.508764 0.492912 0.142594
H10   H     H_    0.499539 0.524780 0.338647 0.115678
H11   H     H_    0.478256 0.664344 0.298168 0.119535
H12   H     H_    0.175470 0.380541 0.598193 0.173132
H13   H     H_    0.442441 0.786150 0.584939 0.111346
H14   H     H_    0.452886 0.639614 0.615693 0.125225
H15   H     H_    0.311972 0.794504 0.452546 0.125714
H16   H     H_    0.502348 0.964378 0.287545 0.128601
H17   H     H_    0.295027 0.970096 0.172613 0.158364
H18   H     H_    0.324671 0.132973 0.156914 0.171919
H19   H     H_    0.453463 0.317489 0.323008 0.119352
H20   H     H_    0.525652 0.171991 0.519891 0.149540
H21   H     H_    0.629625 0.060596 0.055303 0.131607
H22   H     H_    0.328474 0.182062 0.857092 0.151110
H23   H     H_    0.831277 0.148145 0.123000 0.124282
H24   H     H_    0.962203 0.309491 0.307932 0.146792
H25   H     H_    0.558820 0.136388 0.171942 0.148017
H26   H     H_    0.854574 0.502682 0.400120 0.141949
H27   H     H_    0.125442 0.515936 0.713076 0.134295
H28   H     H_    0.290232 0.696543 0.774970 0.122665
H29   H     H_    0.424788 0.871572 0.946916 0.138316
H30   H     H_    0.362445 0.990057 0.033189 0.137523
H31   H     H_    0.668430 0.009143 0.335748 0.090619
H32   H     H_    0.027198 0.755883 0.778331 0.168674
H33   H     H_    0.525136 0.453812 0.803681 0.207593
H34   H     H_    0.491436 0.397035 0.975986 0.186959
H35   H     H_    0.636279 0.635607 0.973212 0.092668
H36   H     H_    0.413356 0.508807 0.057786 0.102602
H37   H     H_    0.456860 0.416116 0.160574 0.122939
H38   H     H_    0.307491 0.271095 0.153588 0.102311
H39   H     H_    0.067814 0.299137 0.925644 0.119762
H40   H     H_    0.218559 0.449039 0.939661 0.112250
H41   H     H_    0.159258 0.218521 0.195279 0.115944
H42   H     H_    0.813240 0.996841 0.840728 0.131892
H43   H     H_    0.898148 0.831637 0.955017 0.183478
H44   H     H_    0.547148 0.616126 0.776504 0.173520
H45   H     H_    0.519596 0.773639 0.829176 0.141615
H46   H     H_    0.680188 0.960200 0.937769 0.122905
H47   H     H_    0.667163 0.840637 0.516944 0.120540
H48   H     H_    0.820339 0.195230 0.439646 0.116047
H49   H     H_    0.173156 0.120061 0.877266 0.120994
H50   H     H_    0.746498 0.625098 0.299703 0.132988
N1    N     N_R   0.941940 0.944580 0.650780 -0.045406
N2    N     N_R   0.206190 0.054080 0.497260 -0.045321
N3    N     N_R   0.056380 0.847410 0.553580 -0.038916
N4    N     N_R   0.944890 0.999100 0.292900 -0.039522
N5    N     N_R   0.058060 0.055420 0.349220 -0.042381
N6    N     N_R   0.943200 0.791100 0.497260 -0.042480
N7    N     N_R   0.795540 0.849750 0.292910 -0.031839
N8    N     N_R   0.205730 0.996760 0.553580 -0.043420
N9    N     N_R   0.056800 0.208900 0.502740 -0.039035
N10   N     N_R   0.204460 0.150250 0.707090 -0.080128
N11   N     N_R   0.794270 0.003240 0.446420 -0.044911
N12   N     N_R   0.204920 0.207570 0.650770 -0.102953
N13   N     N_R   0.793810 0.945920 0.502740 -0.044723
N14   N     N_R   0.943620 0.152590 0.446420 -0.049858
N15   N     N_R   0.055110 0.000900 0.707100 -0.049695
N16   N     N_R   0.795080 0.792430 0.349230 -0.047925
Ni1   Ni    Ni4+2 0.869690 0.869690 0.500000 0.216847
Ni2   Ni    Ni4+2 0.130310 0.130310 0.500000 0.259920
Ni3   Ni    Ni4+2 0.129250 0.998840 0.629170 0.216163
Ni4   Ni    Ni4+2 0.870750 0.001160 0.370830 0.212305
I1    I     I_    0.612001 0.410801 0.572807 -0.295670
F1    F     F_    0.679999 0.306810 0.368947 -0.714850
F2    F     F_    0.156543 0.944629 0.958686 -0.738681
F3    F     F_    0.685813 0.491014 0.088122 -0.703105
F4    F     F_    0.338671 0.366925 0.672273 -0.758328
F5    F     F_    0.739784 0.628140 0.836167 -0.679616

loop_
_geom_bond_atom_site_label_1
_geom_bond_atom_site_label_2
_ccdc_geom_bond_type
N3    N6    A    
C66   C68   A    
C24   H9    S    
C13   H8    S    
C8    N4    A    
C73   C74   A    
C54   C55   A    
C3    C23   A    
C35   C36   A    
C78   H49   S    
C2    C12   A    
C20   C30   S    
C53   C54   A    
C34   H31   S    
C10   H6    S    
C26   C27   A    
C29   C30   A    
C18   C24   A    
C36   C37   A    
C27   C37   S    
N2    N8    A    
C38   C39   A    
C11   C14   A    
C40   C50   S    
C69   H41   S    
C58   C60   S    
N2    Ni2   S    
N7    Ni4   S    
C12   N9    A    
C36   H20   S    
C18   C19   A    
C41   C42   A    
C56   N13   A    
C11   N7    A    
N12   Ni2   S    
C68   H36   S    
C6    C15   A    
N14   Ni4   S    
C9    N5    A    
C5    H50   S    
C47   C48   A    
C59   H34   S    
C45   N12   A    
C66   H40   S    
C23   N10   A    
C70   C71   A    
N1    N15   A    
C31   H17   S    
C42   H25   S    
C8    H4    S    
C56   H47   S    
C19   H11   S    
C72   C73   A    
C77   C79   A    
C48   H27   S    
C17   C70   S    
C5    N16   A    
C21   C22   A    
C72   H42   S    
C12   H12   S    
C1    N1    A    
N4    Ni4   S    
C44   C46   A    
N9    Ni2   S    
C44   H26   S    
N6    Ni1   S    
N7    N16   A    
C4    C34   A    
C34   N11   A    
C6    H2    S    
C51   C52   A    
C13   N8    A    
C69   C74   A    
N1    Ni1   S    
C76   C77   A    
C2    C67   A    
C16   C46   S    
C54   F2    S    
C75   C81   A    
C15   C26   S    
C21   H13   S    
C52   H29   S    
C1    C82   A    
C63   C64   A    
C14   C61   S    
C3    C45   A    
C31   C37   A    
N11   Ni4   S    
C60   C61   D    
C75   H43   S    
N10   Ni3   S    
N15   Ni3   S    
C75   C76   A    
C7    N3    A    
C62   C63   A    
C2    C49   S    
C28   H16   S    
C47   C57   S    
C78   C82   A    
C31   C32   A    
C48   C49   A    
C76   F5    S    
C11   H7    S    
C67   N14   A    
C62   H37   S    
C39   H24   S    
C45   F4    S    
C60   H35   S    
N16   Ni1   S    
N8    Ni3   S    
C5    C14   A    
C78   N15   A    
C51   C57   A    
N9    N14   A    
C53   H30   S    
C25   H15   S    
C40   C41   A    
C65   C66   A    
C51   H28   S    
C65   H39   S    
C13   C15   A    
C58   H33   S    
C22   C24   A    
N5    Ni2   S    
C58   C59   D    
C67   H48   S    
C42   C43   A    
C61   F3    S    
C73   C82   S    
C39   C40   A    
N10   N12   A    
C52   C53   A    
C41   F1    S    
C44   C50   A    
C25   C30   A    
N11   N13   A    
C79   H45   S    
C46   C47   A    
C28   C29   A    
C22   H14   S    
C7    C16   A    
C35   I1    S    
C80   C81   A    
C4    C29   S    
C55   H32   S    
C1    H1    S    
C80   H46   S    
C19   C20   A    
C8    C17   A    
C62   C68   A    
C18   H10   S    
C64   C65   A    
C33   H19   S    
C55   C57   A    
C25   C26   A    
C38   C43   A    
C6    N2    A    
C10   C16   A    
C32   C33   A    
C63   H38   S    
C7    H3    S    
C38   H23   S    
N3    Ni3   S    
C33   C35   A    
C9    C17   A    
C23   H22   S    
C69   C70   A    
C43   H21   S    
C79   C80   A    
C32   H18   S    
C71   C72   A    
N13   Ni1   S    
C20   C21   A    
C49   C50   A    
C27   C28   A    
C64   C74   S    
N4    N5    A    
C10   N6    A    
C4    C56   A    
C77   H44   S    
C3    C59   S    
C71   C81   S    
C9    H5    S    
