data_mof_unit_60295.cif
_audit_creation_date              2013-03-05T15:55:00-0500
_audit_creation_method            fapswitch 2.2
_symmetry_space_group_name_H-M    P1
_symmetry_Int_Tables_number       1
_space_group_crystal_system       triclinic
_cell_length_a                    21.799058
_cell_length_b                    30.574838
_cell_length_c                    30.950766
_cell_angle_alpha                 90.113418
_cell_angle_beta                  90.001844
_cell_angle_gamma                 89.992833
_cell_volume                      20628.727493

loop_
_atom_site_label
_atom_site_type_symbol
_atom_site_description
_atom_site_fract_x
_atom_site_fract_y
_atom_site_fract_z
_atom_type_partial_charge
O1    O     O_R   0.250030 0.571170 0.018980 -0.563010
O2    O     O_R   0.749970 0.428830 0.018980 -0.524513
O3    O     O_R   0.250030 0.428830 0.981020 -0.562988
O4    O     O_R   0.749970 0.571170 0.981020 -0.524487
O5    O     O_R   0.750030 0.071170 0.018980 -0.524589
O6    O     O_R   0.249970 0.928830 0.018980 -0.562802
O7    O     O_R   0.750030 0.928830 0.981020 -0.524561
O8    O     O_R   0.249970 0.071170 0.981020 -0.562793
O9    O     O_R   0.750030 0.571170 0.518980 -0.562537
O10   O     O_R   0.249970 0.428830 0.518980 -0.524718
O11   O     O_R   0.750030 0.428830 0.481020 -0.562476
O12   O     O_R   0.249970 0.571170 0.481020 -0.524684
O13   O     O_R   0.250030 0.071170 0.518980 -0.562399
O14   O     O_R   0.749970 0.928830 0.518980 -0.525404
O15   O     O_R   0.250030 0.928830 0.481020 -0.562419
O16   O     O_R   0.749970 0.071170 0.481020 -0.525025
O17   O     O_R   0.250030 0.519000 0.071200 -0.511488
O18   O     O_R   0.749970 0.481000 0.071200 -0.543870
O19   O     O_R   0.250030 0.481000 0.928800 -0.511489
O20   O     O_R   0.749970 0.519000 0.928800 -0.543879
O21   O     O_R   0.750030 0.019000 0.071200 -0.544495
O22   O     O_R   0.249970 0.981000 0.071200 -0.510988
O23   O     O_R   0.750030 0.981000 0.928800 -0.544495
O24   O     O_R   0.249970 0.019000 0.928800 -0.510994
O25   O     O_R   0.750030 0.519000 0.571200 -0.512370
O26   O     O_R   0.249970 0.481000 0.571200 -0.543058
O27   O     O_R   0.750030 0.481000 0.428800 -0.512387
O28   O     O_R   0.249970 0.519000 0.428800 -0.543061
O29   O     O_R   0.250030 0.019000 0.571200 -0.512316
O30   O     O_R   0.749970 0.981000 0.571200 -0.543206
O31   O     O_R   0.250030 0.981000 0.428800 -0.512270
O32   O     O_R   0.749970 0.019000 0.428800 -0.543308
C1    C     C_R   0.250540 0.559662 0.059216 0.890325
C2    C     C_R   0.748014 0.440062 0.059271 0.870457
C3    C     C_R   0.250539 0.440338 0.940784 0.890311
C4    C     C_R   0.748011 0.559939 0.940729 0.870463
C5    C     C_R   0.751913 0.059935 0.059200 0.872172
C6    C     C_R   0.249367 0.940308 0.059281 0.887699
C7    C     C_R   0.751918 0.940065 0.940800 0.872139
C8    C     C_R   0.249371 0.059692 0.940719 0.887738
C9    C     C_R   0.750642 0.559634 0.559198 0.892870
C10   C     C_R   0.248062 0.440060 0.559295 0.868867
C11   C     C_R   0.750636 0.440366 0.440802 0.893039
C12   C     C_R   0.248059 0.559940 0.440704 0.868842
C13   C     C_R   0.250692 0.059632 0.559212 0.892240
C14   C     C_R   0.748172 0.940050 0.559274 0.869820
C15   C     C_R   0.250678 0.940370 0.440788 0.892315
C16   C     C_R   0.748145 0.059950 0.440727 0.869969
O33   O     O_R   0.159850 0.526090 0.973890 -0.527511
O34   O     O_R   0.840150 0.473910 0.973890 -0.562819
O35   O     O_R   0.159850 0.473910 0.026110 -0.527470
O36   O     O_R   0.840150 0.526090 0.026110 -0.562821
O37   O     O_R   0.659850 0.026090 0.973890 -0.562617
O38   O     O_R   0.340150 0.973910 0.973890 -0.528155
O39   O     O_R   0.659850 0.973910 0.026110 -0.562618
O40   O     O_R   0.340150 0.026090 0.026110 -0.528086
O41   O     O_R   0.659850 0.526090 0.473890 -0.526871
O42   O     O_R   0.340150 0.473910 0.473890 -0.563036
O43   O     O_R   0.659850 0.473910 0.526110 -0.526735
O44   O     O_R   0.340150 0.526090 0.526110 -0.563043
O45   O     O_R   0.159850 0.026090 0.473890 -0.526872
O46   O     O_R   0.840150 0.973910 0.473890 -0.563755
O47   O     O_R   0.159850 0.973910 0.526110 -0.526616
O48   O     O_R   0.840150 0.026090 0.526110 -0.563178
C17   C     C_R   0.131550 0.500001 0.999998 0.805549
C18   C     C_R   0.869262 0.500001 0.999998 0.827112
C19   C     C_R   0.630754 0.999999 0.999997 0.826427
C20   C     C_R   0.368462 1.000000 0.999998 0.804635
C21   C     C_R   0.631523 0.500002 0.499999 0.808962
C22   C     C_R   0.369238 0.500002 0.499997 0.826343
C23   C     C_R   0.131530 0.000009 0.499999 0.809100
C24   C     C_R   0.869246 0.000019 0.499979 0.825884
Cu1   Cu    Cu3+1 0.250020 0.530890 0.969080 1.212050
Cu2   Cu    Cu3+1 0.749980 0.469110 0.969080 1.206281
Cu3   Cu    Cu3+1 0.250020 0.469110 0.030920 1.212061
Cu4   Cu    Cu3+1 0.749980 0.530890 0.030920 1.206292
Cu5   Cu    Cu3+1 0.750020 0.030890 0.969080 1.205480
Cu6   Cu    Cu3+1 0.249980 0.969110 0.969080 1.212120
Cu7   Cu    Cu3+1 0.750020 0.969110 0.030920 1.205494
Cu8   Cu    Cu3+1 0.249980 0.030890 0.030920 1.212127
Cu9   Cu    Cu3+1 0.750020 0.530890 0.469080 1.214195
Cu10  Cu    Cu3+1 0.249980 0.469110 0.469080 1.205049
Cu11  Cu    Cu3+1 0.750020 0.469110 0.530920 1.214219
Cu12  Cu    Cu3+1 0.249980 0.530890 0.530920 1.205055
Cu13  Cu    Cu3+1 0.250020 0.030890 0.469080 1.214038
Cu14  Cu    Cu3+1 0.749980 0.969110 0.469080 1.204319
Cu15  Cu    Cu3+1 0.250020 0.969110 0.530920 1.213974
Cu16  Cu    Cu3+1 0.749980 0.030890 0.530920 1.204742
O49   O     O_R   0.340200 0.526080 0.973890 -0.570156
O50   O     O_R   0.659800 0.473920 0.973890 -0.562598
O51   O     O_R   0.340200 0.473920 0.026110 -0.570159
O52   O     O_R   0.659800 0.526080 0.026110 -0.562588
O53   O     O_R   0.840200 0.026080 0.973890 -0.561879
O54   O     O_R   0.159800 0.973920 0.973890 -0.570496
O55   O     O_R   0.840200 0.973920 0.026110 -0.561862
O56   O     O_R   0.159800 0.026080 0.026110 -0.570501
O57   O     O_R   0.840200 0.526080 0.473890 -0.570246
O58   O     O_R   0.159800 0.473920 0.473890 -0.563013
O59   O     O_R   0.840200 0.473920 0.526110 -0.570265
O60   O     O_R   0.159800 0.526080 0.526110 -0.562984
O61   O     O_R   0.340200 0.026080 0.473890 -0.570284
O62   O     O_R   0.659800 0.973920 0.473890 -0.562821
O63   O     O_R   0.340200 0.973920 0.526110 -0.570319
O64   O     O_R   0.659800 0.026080 0.526110 -0.562731
C25   C     C_R   0.368919 0.499999 0.000002 0.782819
C26   C     C_R   0.631028 0.500000 0.000002 0.775794
C27   C     C_R   0.868927 0.999999 0.000002 0.780035
C28   C     C_R   0.131037 0.000000 0.000002 0.778722
C29   C     C_R   0.868916 0.499999 0.500002 0.784663
C30   C     C_R   0.131026 0.500000 0.500002 0.772815
C31   C     C_R   0.368918 0.999999 0.500002 0.783589
C32   C     C_R   0.631028 0.000000 0.500002 0.775436
C33   C     C_R   0.058163 0.461515 0.928201 0.206052
C34   C     C_R   0.948402 0.573080 0.038856 0.236702
C35   C     C_R   0.058153 0.538498 0.071788 0.206051
C36   C     C_R   0.948428 0.426928 0.961133 0.236685
C37   C     C_R   0.551497 0.926851 0.038446 0.236770
C38   C     C_R   0.441602 0.038735 0.928525 0.202633
C39   C     C_R   0.551466 0.073135 0.961531 0.236754
C40   C     C_R   0.441623 0.961245 0.071456 0.202584
C41   C     C_R   0.557811 0.462063 0.427869 0.209869
C42   C     C_R   0.448267 0.572920 0.539148 0.237219
C43   C     C_R   0.557802 0.537966 0.572112 0.209748
C44   C     C_R   0.448298 0.427098 0.460831 0.237213
C45   C     C_R   0.057866 0.962460 0.427636 0.209574
C46   C     C_R   0.948309 0.072838 0.539283 0.236965
C47   C     C_R   0.057832 0.037823 0.572189 0.209435
C48   C     C_R   0.948334 0.927374 0.460436 0.236570
C49   C     C_R   0.030924 0.424788 0.908093 0.208189
C50   C     C_R   0.979323 0.594788 0.072793 0.176362
C51   C     C_R   0.030902 0.575225 0.091895 0.208224
C52   C     C_R   0.979355 0.405223 0.927194 0.176388
C53   C     C_R   0.520399 0.904929 0.072082 0.176183
C54   C     C_R   0.468668 0.075623 0.908741 0.208052
C55   C     C_R   0.520358 0.095050 0.927890 0.176219
C56   C     C_R   0.468702 0.924352 0.091232 0.208099
C57   C     C_R   0.530344 0.425606 0.407429 0.208124
C58   C     C_R   0.478942 0.594250 0.573431 0.176966
C59   C     C_R   0.530321 0.574425 0.592547 0.208254
C60   C     C_R   0.478977 0.405775 0.426543 0.176986
C61   C     C_R   0.030338 0.926145 0.406982 0.207335
C62   C     C_R   0.978978 0.094112 0.573603 0.176880
C63   C     C_R   0.030365 0.074257 0.592680 0.207717
C64   C     C_R   0.978938 0.906234 0.425982 0.177045
C65   C     C_R   0.971047 0.467818 0.976211 -0.089701
C66   C     C_R   0.032351 0.522536 0.032704 -0.092350
C67   C     C_R   0.971036 0.532191 0.023777 -0.089684
C68   C     C_R   0.032358 0.477475 0.967286 -0.092317
C69   C     C_R   0.467580 0.977390 0.032561 -0.092859
C70   C     C_R   0.528900 0.032201 0.976350 -0.088869
C71   C     C_R   0.467567 0.022598 0.967423 -0.092804
C72   C     C_R   0.528915 0.967787 0.023631 -0.088843
C73   C     C_R   0.470952 0.467906 0.476115 -0.090512
C74   C     C_R   0.532219 0.522357 0.532822 -0.091923
C75   C     C_R   0.470940 0.532111 0.523866 -0.090473
C76   C     C_R   0.532226 0.477664 0.467162 -0.091836
C77   C     C_R   0.970989 0.968108 0.475879 -0.090278
C78   C     C_R   0.032235 0.022274 0.532877 -0.091737
C79   C     C_R   0.970963 0.032058 0.523943 -0.090427
C80   C     C_R   0.032266 0.977887 0.466998 -0.091574
C81   C     C_R   0.937140 0.500003 0.999995 -0.022256
C82   C     C_R   0.065120 0.500005 0.999995 0.012177
C83   C     C_R   0.434854 0.999997 0.999995 0.011302
C84   C     C_R   0.562832 0.999996 0.999992 -0.020846
C85   C     C_R   0.437065 0.500006 0.499992 -0.023308
C86   C     C_R   0.565046 0.500008 0.499995 0.012547
C87   C     C_R   0.937092 0.000060 0.499936 -0.022520
C88   C     C_R   0.065068 0.000034 0.499976 0.012323
C89   C     C_R   0.285861 0.587305 0.130356 0.277094
C90   C     C_R   0.719291 0.414994 0.133325 0.261444
C91   C     C_R   0.285839 0.412695 0.869638 0.277123
C92   C     C_R   0.719303 0.585008 0.866669 0.261437
C93   C     C_R   0.783529 0.085780 0.132251 0.262119
C94   C     C_R   0.216367 0.913461 0.131453 0.278741
C95   C     C_R   0.783494 0.914226 0.867736 0.262140
C96   C     C_R   0.216369 0.086548 0.868549 0.278742
C97   C     C_R   0.786807 0.587658 0.629908 0.276397
C98   C     C_R   0.220946 0.415441 0.633854 0.261534
C99   C     C_R   0.786804 0.412331 0.370100 0.276346
C100  C     C_R   0.220989 0.584554 0.366131 0.261535
C101  C     C_R   0.286339 0.087478 0.630169 0.274877
C102  C     C_R   0.719666 0.915113 0.633397 0.263536
C103  C     C_R   0.286369 0.912502 0.369853 0.274824
C104  C     C_R   0.719738 0.084871 0.366574 0.263460
C105  C     C_R   0.285215 0.619129 0.162761 0.190564
C106  C     C_R   0.721162 0.383575 0.166054 0.179042
C107  C     C_R   0.285187 0.380873 0.837231 0.190546
C108  C     C_R   0.721180 0.616425 0.833939 0.179054
C109  C     C_R   0.782329 0.117332 0.164937 0.186573
C110  C     C_R   0.217598 0.881778 0.163924 0.183387
C111  C     C_R   0.782283 0.882676 0.835049 0.186511
C112  C     C_R   0.217602 0.118229 0.836078 0.183426
C113  C     C_R   0.786009 0.619436 0.662364 0.188238
C114  C     C_R   0.222930 0.384030 0.666572 0.179839
C115  C     C_R   0.786006 0.380554 0.337643 0.188258
C116  C     C_R   0.222982 0.615962 0.333413 0.179822
C117  C     C_R   0.285307 0.119197 0.662687 0.184431
C118  C     C_R   0.721282 0.883669 0.666088 0.183819
C119  C     C_R   0.285338 0.880784 0.337334 0.184460
C120  C     C_R   0.721365 0.116320 0.333888 0.183804
C121  C     C_R   0.250342 0.657424 0.157065 -0.237111
C122  C     C_R   0.750043 0.343297 0.158377 -0.244003
C123  C     C_R   0.250331 0.342577 0.842932 -0.237098
C124  C     C_R   0.750060 0.656699 0.841619 -0.243995
C125  C     C_R   0.750261 0.156612 0.158350 -0.242676
C126  C     C_R   0.249939 0.842576 0.157186 -0.238493
C127  C     C_R   0.750247 0.843391 0.841646 -0.242662
C128  C     C_R   0.249955 0.157420 0.842812 -0.238484
C129  C     C_R   0.749755 0.657171 0.657192 -0.240395
C130  C     C_R   0.249424 0.343073 0.658277 -0.240797
C131  C     C_R   0.749741 0.342831 0.342808 -0.240405
C132  C     C_R   0.249437 0.656926 0.341720 -0.240778
C133  C     C_R   0.249573 0.157123 0.657267 -0.243084
C134  C     C_R   0.749205 0.843075 0.658232 -0.238502
C135  C     C_R   0.249555 0.842884 0.342731 -0.243131
C136  C     C_R   0.749225 0.156925 0.341770 -0.238461
C137  C     C_R   0.216888 0.664420 0.118826 0.198902
C138  C     C_R   0.775494 0.333323 0.118004 0.190439
C139  C     C_R   0.216891 0.335582 0.881175 0.198883
C140  C     C_R   0.775505 0.666667 0.881994 0.190410
C141  C     C_R   0.722433 0.165945 0.118619 0.190943
C142  C     C_R   0.281502 0.834911 0.118277 0.198395
C143  C     C_R   0.722451 0.834055 0.881385 0.190920
C144  C     C_R   0.281531 0.165077 0.881718 0.198412
C145  C     C_R   0.713945 0.663137 0.619760 0.209610
C146  C     C_R   0.271081 0.332077 0.617137 0.184371
C147  C     C_R   0.713907 0.336879 0.380229 0.209640
C148  C     C_R   0.271035 0.667931 0.382872 0.184297
C149  C     C_R   0.213932 0.163135 0.619762 0.210461
C150  C     C_R   0.771813 0.832239 0.617299 0.184347
C151  C     C_R   0.213835 0.836911 0.380206 0.210367
C152  C     C_R   0.771739 0.167771 0.382728 0.184131
C153  C     C_R   0.217546 0.632708 0.086279 0.266897
C154  C     C_R   0.769013 0.362984 0.083962 0.266616
C155  C     C_R   0.217548 0.367295 0.913722 0.266881
C156  C     C_R   0.769004 0.637015 0.916040 0.266663
C157  C     C_R   0.729415 0.136636 0.084243 0.265205
C158  C     C_R   0.281035 0.866706 0.085880 0.267372
C159  C     C_R   0.729448 0.863360 0.915761 0.265259
C160  C     C_R   0.281061 0.133283 0.914117 0.267328
C161  C     C_R   0.715632 0.631822 0.586881 0.263163
C162  C     C_R   0.266349 0.362381 0.583525 0.270978
C163  C     C_R   0.715591 0.368193 0.413111 0.263089
C164  C     C_R   0.266299 0.637625 0.416482 0.271070
C165  C     C_R   0.215689 0.131827 0.586882 0.263095
C166  C     C_R   0.767205 0.862494 0.583625 0.269379
C167  C     C_R   0.215573 0.868226 0.413081 0.262887
C168  C     C_R   0.767053 0.137526 0.416405 0.269859
C169  C     C_R   0.251346 0.593763 0.092327 -0.306072
C170  C     C_R   0.744643 0.405352 0.092279 -0.339805
C171  C     C_R   0.251340 0.406238 0.907672 -0.306073
C172  C     C_R   0.744641 0.594649 0.907720 -0.339789
C173  C     C_R   0.755582 0.094761 0.092022 -0.339177
C174  C     C_R   0.248731 0.906251 0.092525 -0.307303
C175  C     C_R   0.755587 0.905239 0.907976 -0.339173
C176  C     C_R   0.248742 0.093749 0.907475 -0.307287
C177  C     C_R   0.751253 0.593661 0.592304 -0.305112
C178  C     C_R   0.244534 0.405370 0.592359 -0.341921
C179  C     C_R   0.751235 0.406339 0.407696 -0.305081
C180  C     C_R   0.244530 0.594630 0.407639 -0.341918
C181  C     C_R   0.251217 0.093630 0.592366 -0.305071
C182  C     C_R   0.744556 0.905309 0.592251 -0.342193
C183  C     C_R   0.251183 0.906380 0.407629 -0.305195
C184  C     C_R   0.744515 0.094692 0.407749 -0.342173
C185  C     C_R   0.467984 0.460310 0.999680 -0.098942
C186  C     C_R   0.531911 0.539678 0.001097 -0.103024
C187  C     C_R   0.467970 0.539688 0.000334 -0.098909
C188  C     C_R   0.531925 0.460321 0.998916 -0.103012
C189  C     C_R   0.968018 0.960311 0.000353 -0.100621
C190  C     C_R   0.031945 0.039688 0.000425 -0.101531
C191  C     C_R   0.968004 0.039687 0.999662 -0.100579
C192  C     C_R   0.031959 0.960311 0.999588 -0.101539
C193  C     C_R   0.967974 0.460312 0.499503 -0.097295
C194  C     C_R   0.031900 0.539673 0.501275 -0.104952
C195  C     C_R   0.967959 0.539686 0.500512 -0.097311
C196  C     C_R   0.031915 0.460326 0.498739 -0.104918
C197  C     C_R   0.467981 0.960311 0.499623 -0.097732
C198  C     C_R   0.531907 0.039676 0.501154 -0.104108
C199  C     C_R   0.467966 0.039687 0.500392 -0.097836
C200  C     C_R   0.531922 0.960323 0.498859 -0.104028
H1    H     H_    0.443589 0.429442 0.999252 0.166337
H2    H     H_    0.556283 0.570551 0.001772 0.170828
H3    H     H_    0.443563 0.570556 0.000762 0.166340
H4    H     H_    0.556308 0.429448 0.998240 0.170824
H5    H     H_    0.943634 0.929436 0.000448 0.170333
H6    H     H_    0.056328 0.070563 0.000577 0.166222
H7    H     H_    0.943608 0.070562 0.999566 0.170331
H8    H     H_    0.056354 0.929436 0.999436 0.166221
H9    H     H_    0.943575 0.429447 0.498936 0.166892
H10   H     H_    0.056269 0.570544 0.502089 0.170648
H11   H     H_    0.943549 0.570550 0.501078 0.166896
H12   H     H_    0.056294 0.429455 0.497923 0.170640
H13   H     H_    0.443584 0.929444 0.499150 0.166771
H14   H     H_    0.556278 0.070549 0.501875 0.170439
H15   H     H_    0.443559 0.070554 0.500864 0.166761
H16   H     H_    0.556304 0.929450 0.498138 0.170401
C201  C     C_R   0.564079 0.500000 0.000005 -0.008477
C202  C     C_R   0.435838 0.499999 0.000007 0.003808
C203  C     C_R   0.064102 1.000000 0.000005 0.001064
C204  C     C_R   0.935861 0.999999 0.000007 -0.005057
C205  C     C_R   0.064071 0.500000 0.500006 -0.009978
C206  C     C_R   0.935831 0.499999 0.500007 0.004907
C207  C     C_R   0.564076 1.000000 0.500006 -0.008998
C208  C     C_R   0.435836 0.999999 0.500007 0.004542
O65   O     O_R   0.302180 0.295120 0.704840 -0.551713
O66   O     O_R   0.697820 0.704880 0.704840 -0.543899
O67   O     O_R   0.302180 0.704880 0.295160 -0.551734
O68   O     O_R   0.697820 0.295120 0.295160 -0.543903
O69   O     O_R   0.802180 0.795120 0.704840 -0.552204
O70   O     O_R   0.197820 0.204880 0.704840 -0.543081
O71   O     O_R   0.802180 0.204880 0.295160 -0.552227
O72   O     O_R   0.197820 0.795120 0.295160 -0.543133
O73   O     O_R   0.802180 0.295120 0.204840 -0.550225
O74   O     O_R   0.197820 0.704880 0.204840 -0.544434
O75   O     O_R   0.802180 0.704880 0.795160 -0.550232
O76   O     O_R   0.197820 0.295120 0.795160 -0.544439
O77   O     O_R   0.302180 0.795120 0.204840 -0.543280
O78   O     O_R   0.697820 0.204880 0.204840 -0.550731
O79   O     O_R   0.302180 0.204880 0.795160 -0.543287
O80   O     O_R   0.697820 0.795120 0.795160 -0.550741
O81   O     O_R   0.197800 0.295110 0.704850 -0.553644
O82   O     O_R   0.802200 0.704890 0.704850 -0.553879
O83   O     O_R   0.197800 0.704890 0.295150 -0.553637
O84   O     O_R   0.802200 0.295110 0.295150 -0.553888
O85   O     O_R   0.697800 0.795110 0.704850 -0.554592
O86   O     O_R   0.302200 0.204890 0.704850 -0.553152
O87   O     O_R   0.697800 0.204890 0.295150 -0.554592
O88   O     O_R   0.302200 0.795110 0.295150 -0.553114
O89   O     O_R   0.697800 0.295110 0.204850 -0.552284
O90   O     O_R   0.302200 0.704890 0.204850 -0.554916
O91   O     O_R   0.697800 0.704890 0.795150 -0.552279
O92   O     O_R   0.302200 0.295110 0.795150 -0.554914
O93   O     O_R   0.197800 0.795110 0.204850 -0.554080
O94   O     O_R   0.802200 0.204890 0.204850 -0.553439
O95   O     O_R   0.197800 0.204890 0.795150 -0.554073
O96   O     O_R   0.802200 0.795110 0.795150 -0.553446
C209  C     C_R   0.249919 0.310126 0.691615 0.893333
C210  C     C_R   0.749942 0.690559 0.690623 0.896169
C211  C     C_R   0.249924 0.689873 0.308383 0.893340
C212  C     C_R   0.749938 0.309441 0.309377 0.896149
C213  C     C_R   0.749878 0.810172 0.691643 0.893960
C214  C     C_R   0.249908 0.190565 0.690628 0.894966
C215  C     C_R   0.749885 0.189833 0.308363 0.893976
C216  C     C_R   0.249903 0.809436 0.309372 0.894972
C217  C     C_R   0.750024 0.310129 0.191576 0.898572
C218  C     C_R   0.250054 0.690596 0.190631 0.889149
C219  C     C_R   0.750030 0.689870 0.808423 0.898574
C220  C     C_R   0.250051 0.309404 0.809368 0.889143
C221  C     C_R   0.249997 0.809347 0.190615 0.889227
C222  C     C_R   0.750031 0.189765 0.191646 0.898093
C223  C     C_R   0.250002 0.190652 0.809384 0.889236
C224  C     C_R   0.750026 0.810236 0.808353 0.898064
Cu17  Cu    Cu3+1 0.311820 0.250000 0.750000 1.176129
Cu18  Cu    Cu3+1 0.688180 0.750000 0.750000 1.174525
Cu19  Cu    Cu3+1 0.311820 0.750000 0.250000 1.176132
Cu20  Cu    Cu3+1 0.688180 0.250000 0.250000 1.174526
Cu21  Cu    Cu3+1 0.811820 0.750000 0.750000 1.166078
Cu22  Cu    Cu3+1 0.188180 0.250000 0.750000 1.184400
Cu23  Cu    Cu3+1 0.811820 0.250000 0.250000 1.166067
Cu24  Cu    Cu3+1 0.188180 0.750000 0.250000 1.184385
Br1   Br    Br    0.063140 0.599456 0.144897 -0.230160
Br2   Br    Br    0.952501 0.348517 0.907309 -0.172247
Br3   Br    Br    0.063167 0.400560 0.855089 -0.230206
Br4   Br    Br    0.952448 0.651494 0.092675 -0.172213
Br5   Br    Br    0.547163 0.151865 0.908495 -0.172505
Br6   Br    Br    0.436125 0.899709 0.143852 -0.230980
Br7   Br    Br    0.547227 0.848111 0.091468 -0.172474
Br8   Br    Br    0.436082 0.100254 0.856115 -0.231042
Br9   Br    Br    0.561979 0.597889 0.646050 -0.228904
Br10  Br    Br    0.452121 0.349249 0.406171 -0.176791
Br11  Br    Br    0.562003 0.402154 0.353920 -0.228965
Br12  Br    Br    0.452061 0.650776 0.593796 -0.176814
Br13  Br    Br    0.062060 0.097648 0.646203 -0.227521
Br14  Br    Br    0.952023 0.849858 0.405189 -0.174948
Br15  Br    Br    0.062008 0.902989 0.353339 -0.227064
Br16  Br    Br    0.952102 0.150607 0.594056 -0.174836
N1    N     N_R   0.101510 0.487916 0.904927 0.151713
O97   O     O_R   0.091448 0.529691 0.901064 -0.258014
O98   O     O_R   0.144828 0.470226 0.881955 -0.288921
N2    N     N_R   0.902007 0.595933 0.015097 0.176151
O99   O     O_R   0.900993 0.593407 0.973112 -0.328215
O100  O     O_R   0.856635 0.614576 0.035334 -0.231140
N3    N     N_R   0.101510 0.512098 0.095065 0.151709
O101  O     O_R   0.091458 0.470325 0.098936 -0.258003
O102  O     O_R   0.144826 0.529791 0.118033 -0.288930
N4    N     N_R   0.902052 0.404071 0.984896 0.176151
O103  O     O_R   0.901046 0.406600 0.026881 -0.328155
O104  O     O_R   0.856687 0.385420 0.964664 -0.231130
N5    N     N_R   0.598022 0.904145 0.014630 0.176216
O105  O     O_R   0.599289 0.906952 0.972675 -0.330022
O106  O     O_R   0.643398 0.885565 0.034850 -0.231293
N6    N     N_R   0.398402 0.012308 0.905022 0.152030
O107  O     O_R   0.408530 0.970539 0.901026 -0.257806
O108  O     O_R   0.355200 0.029958 0.881983 -0.289480
N7    N     N_R   0.597972 0.095848 0.985353 0.176225
O109  O     O_R   0.599235 0.093038 0.027308 -0.329965
O110  O     O_R   0.643338 0.114438 0.965140 -0.231282
N8    N     N_R   0.398417 0.987667 0.094965 0.152024
O111  O     O_R   0.408537 0.029434 0.098974 -0.257786
O112  O     O_R   0.355219 0.970012 0.117996 -0.289514
N9    N     N_R   0.601342 0.488505 0.404830 0.151627
O113  O     O_R   0.591406 0.530306 0.401101 -0.257466
O114  O     O_R   0.644782 0.470835 0.381955 -0.289011
N10   N     N_R   0.402108 0.596040 0.515355 0.176118
O115  O     O_R   0.401432 0.593899 0.473348 -0.325695
O116  O     O_R   0.356808 0.614845 0.535519 -0.232055
N11   N     N_R   0.601342 0.511529 0.595157 0.151601
O117  O     O_R   0.591415 0.469729 0.598899 -0.257430
O118  O     O_R   0.644778 0.529203 0.618029 -0.289051
N12   N     N_R   0.402164 0.403970 0.484630 0.176130
O119  O     O_R   0.401498 0.406115 0.526637 -0.325618
O120  O     O_R   0.356871 0.385152 0.464473 -0.232034
N13   N     N_R   0.101436 0.988986 0.404732 0.151848
O121  O     O_R   0.091478 0.030795 0.401108 -0.257674
O122  O     O_R   0.144952 0.971394 0.381868 -0.289052
N14   N     N_R   0.902260 0.096014 0.515447 0.176252
O123  O     O_R   0.901603 0.093771 0.473444 -0.326010
O124  O     O_R   0.856975 0.114896 0.535559 -0.231786
N15   N     N_R   0.101366 0.011347 0.595194 0.151722
O125  O     O_R   0.091422 0.969544 0.598887 -0.257619
O126  O     O_R   0.144828 0.028983 0.618071 -0.289356
N16   N     N_R   0.902503 0.904085 0.484381 0.176056
O127  O     O_R   0.902103 0.906255 0.526389 -0.325237
O128  O     O_R   0.857450 0.884719 0.464405 -0.230969
N17   N     N_R   0.323842 0.549297 0.135336 0.174222
O129  O     O_R   0.368446 0.541872 0.108363 -0.340372
O130  O     O_R   0.312638 0.521307 0.165942 -0.208575
N18   N     N_R   0.687943 0.455535 0.141065 0.177790
O131  O     O_R   0.639984 0.465846 0.118212 -0.313477
O132  O     O_R   0.707492 0.482355 0.170705 -0.225629
N19   N     N_R   0.323811 0.450700 0.864653 0.174227
O133  O     O_R   0.368427 0.458118 0.891618 -0.340345
O134  O     O_R   0.312586 0.478695 0.834054 -0.208578
N20   N     N_R   0.687960 0.544471 0.858926 0.177791
O135  O     O_R   0.639997 0.534167 0.881771 -0.313461
O136  O     O_R   0.707516 0.517649 0.829288 -0.225630
N21   N     N_R   0.816995 0.045935 0.138984 0.177024
O137  O     O_R   0.863396 0.036231 0.114309 -0.320366
O138  O     O_R   0.800910 0.019133 0.169552 -0.226390
N22   N     N_R   0.180075 0.952165 0.137423 0.175208
O139  O     O_R   0.134147 0.960189 0.111779 -0.334374
O140  O     O_R   0.194107 0.980166 0.167544 -0.205312
N23   N     N_R   0.816936 0.954073 0.860992 0.177034
O141  O     O_R   0.863356 0.963777 0.885648 -0.320307
O142  O     O_R   0.800807 0.980878 0.830435 -0.226434
N24   N     N_R   0.180065 0.047856 0.862583 0.175192
O143  O     O_R   0.134139 0.039847 0.888230 -0.334407
O144  O     O_R   0.194084 0.019848 0.832463 -0.205318
N25   N     N_R   0.825912 0.550163 0.634373 0.173489
O145  O     O_R   0.869841 0.543254 0.606726 -0.343733
O146  O     O_R   0.816111 0.521937 0.665004 -0.209871
N26   N     N_R   0.191347 0.456518 0.642203 0.178333
O147  O     O_R   0.142445 0.467449 0.620661 -0.309424
O148  O     O_R   0.213126 0.483036 0.671331 -0.226257
N27   N     N_R   0.825924 0.449811 0.365645 0.173471
O149  O     O_R   0.869853 0.456699 0.393298 -0.343779
O150  O     O_R   0.816137 0.478047 0.335018 -0.209884
N28   N     N_R   0.191424 0.543471 0.357768 0.178345
O151  O     O_R   0.142502 0.532538 0.379279 -0.309339
O152  O     O_R   0.213251 0.516955 0.328653 -0.226270
N29   N     N_R   0.325189 0.049873 0.634810 0.173451
O153  O     O_R   0.369395 0.042883 0.607403 -0.342428
O154  O     O_R   0.314832 0.021598 0.665306 -0.207159
N30   N     N_R   0.689056 0.955903 0.641329 0.177959
O155  O     O_R   0.640826 0.966515 0.618896 -0.312662
O156  O     O_R   0.709243 0.982476 0.670974 -0.228053
N31   N     N_R   0.325276 0.950074 0.365242 0.173441
O157  O     O_R   0.369452 0.957025 0.392683 -0.342551
O158  O     O_R   0.314991 0.978364 0.334745 -0.207169
N32   N     N_R   0.689212 0.044062 0.358604 0.177984
O159  O     O_R   0.640944 0.033421 0.380975 -0.312475
O160  O     O_R   0.709504 0.017507 0.328976 -0.228070
Br17  Br    Br    0.333155 0.609670 0.214497 -0.271246
Br18  Br    Br    0.683534 0.395932 0.221305 -0.262201
Br19  Br    Br    0.333092 0.390336 0.785484 -0.271295
Br20  Br    Br    0.683555 0.604074 0.778686 -0.262202
Br21  Br    Br    0.826217 0.106639 0.218157 -0.281771
Br22  Br    Br    0.174759 0.892706 0.217589 -0.252176
Br23  Br    Br    0.826102 0.893380 0.781806 -0.281915
Br24  Br    Br    0.174743 0.107311 0.782417 -0.252163
Br25  Br    Br    0.834566 0.610235 0.713866 -0.273859
Br26  Br    Br    0.187203 0.396931 0.722315 -0.261995
Br27  Br    Br    0.834574 0.389748 0.286149 -0.273840
Br28  Br    Br    0.187306 0.603056 0.277655 -0.262050
Br29  Br    Br    0.332369 0.109580 0.714807 -0.248516
Br30  Br    Br    0.682479 0.895913 0.720934 -0.288774
Br31  Br    Br    0.332468 0.890376 0.285242 -0.248472
Br32  Br    Br    0.682649 0.104066 0.279014 -0.288877
Br33  Br    Br    0.170025 0.717400 0.110151 -0.279051
Br34  Br    Br    0.816251 0.277729 0.108668 -0.278562
Br35  Br    Br    0.170047 0.282603 0.889852 -0.279087
Br36  Br    Br    0.816278 0.722250 0.891329 -0.278519
Br37  Br    Br    0.678511 0.220498 0.110351 -0.274403
Br38  Br    Br    0.325967 0.781027 0.108755 -0.282953
Br39  Br    Br    0.678544 0.779505 0.889657 -0.274400
Br40  Br    Br    0.326017 0.218947 0.891231 -0.282910
Br41  Br    Br    0.660959 0.713424 0.612811 -0.257374
Br42  Br    Br    0.302634 0.273891 0.605995 -0.301591
Br43  Br    Br    0.660880 0.286618 0.387153 -0.257248
Br44  Br    Br    0.302495 0.726134 0.394031 -0.301729
Br45  Br    Br    0.160735 0.213315 0.612840 -0.256304
Br46  Br    Br    0.803899 0.774140 0.606380 -0.300747
Br47  Br    Br    0.160568 0.786774 0.387099 -0.256246
Br48  Br    Br    0.803793 0.225868 0.393667 -0.300901
N33   N     N_R   0.183349 0.640119 0.047338 0.178053
O161  O     O_R   0.198218 0.672121 0.021758 -0.234313
O162  O     O_R   0.138356 0.614320 0.036762 -0.346725
N34   N     N_R   0.782219 0.348401 0.040816 0.200500
O163  O     O_R   0.736956 0.342416 0.014037 -0.254037
O164  O     O_R   0.835043 0.330795 0.031890 -0.180655
N35   N     N_R   0.183359 0.359886 0.952664 0.178057
O165  O     O_R   0.198230 0.327876 0.978239 -0.234301
O166  O     O_R   0.138383 0.385702 0.963253 -0.346755
N36   N     N_R   0.782162 0.651606 0.959190 0.200526
O167  O     O_R   0.736874 0.657579 0.985950 -0.254079
O168  O     O_R   0.834965 0.669225 0.968140 -0.180616
N37   N     N_R   0.715800 0.151360 0.041241 0.201621
O169  O     O_R   0.760868 0.157476 0.014352 -0.252847
O170  O     O_R   0.662970 0.169077 0.032619 -0.180165
N38   N     N_R   0.314337 0.858901 0.046617 0.178470
O171  O     O_R   0.297945 0.827341 0.020837 -0.235159
O172  O     O_R   0.360432 0.883715 0.036166 -0.342013
N39   N     N_R   0.715885 0.848630 0.958768 0.201640
O173  O     O_R   0.760982 0.842528 0.985640 -0.252902
O174  O     O_R   0.663077 0.830901 0.967411 -0.180136
N40   N     N_R   0.314373 0.141078 0.953379 0.178464
O175  O     O_R   0.298038 0.172671 0.979137 -0.235105
O176  O     O_R   0.360420 0.116222 0.963852 -0.342140
N41   N     N_R   0.680804 0.638937 0.548146 0.176820
O177  O     O_R   0.693417 0.672005 0.523298 -0.226662
O178  O     O_R   0.637337 0.612044 0.537115 -0.351412
N42   N     N_R   0.279986 0.348147 0.540372 0.199514
O179  O     O_R   0.235069 0.342428 0.513251 -0.258423
O180  O     O_R   0.332831 0.330348 0.531857 -0.185323
N43   N     N_R   0.680738 0.361092 0.451835 0.176785
O181  O     O_R   0.693228 0.327959 0.476637 -0.226527
O182  O     O_R   0.637410 0.388088 0.462930 -0.351635
N44   N     N_R   0.279883 0.651866 0.459642 0.199532
O183  O     O_R   0.234937 0.657564 0.486743 -0.258510
O184  O     O_R   0.332701 0.669684 0.468182 -0.185338
N45   N     N_R   0.180913 0.138939 0.548124 0.176709
O185  O     O_R   0.193478 0.172052 0.523319 -0.226595
O186  O     O_R   0.137433 0.112050 0.537085 -0.351220
N46   N     N_R   0.781706 0.848329 0.540585 0.199753
O187  O     O_R   0.737281 0.842393 0.513106 -0.256881
O188  O     O_R   0.834752 0.830589 0.532575 -0.185365
N47   N     N_R   0.180686 0.861170 0.451798 0.176654
O189  O     O_R   0.193113 0.828047 0.476629 -0.226501
O190  O     O_R   0.137259 0.888131 0.462785 -0.351505
N48   N     N_R   0.781269 0.151731 0.459480 0.199921
O191  O     O_R   0.736681 0.157580 0.486842 -0.257281
O192  O     O_R   0.834224 0.169519 0.467656 -0.185414

loop_
_geom_bond_atom_site_label_1
_geom_bond_atom_site_label_2
_geom_bond_distance
_ccdc_geom_bond_type
O4    C4    1.293499 A    
O5    C5    1.292663 A    
N17   O129  1.301224 A    
C104  N32   1.435073 S    
O48   C24   1.299658 A    
C37   C53   1.412630 A    
C154  C170  1.423054 A    
O36   C18   1.299820 A    
C127  C224  1.444070 S    
C99   C115  1.396265 A    
N21   O137  1.301339 A    
C97   C113  1.396285 A    
C158  C174  1.413826 A    
C50   Br4   1.929640 S    
C27   C204  1.459098 S    
O42   Cu10  1.976696 S    
C36   C65   1.421875 A    
C59   Br9   1.930924 S    
Cu14  Cu16  2.686463 S    
C7    C175  1.472406 S    
C102  C182  1.415809 A    
O71   Cu23  1.977035 S    
C193  C196  1.394055 A    
C106  C122  1.402885 A    
C187  C202  1.401218 A    
C194  C195  1.394051 A    
C89   C169  1.411130 A    
C21   C86   1.449123 S    
C47   N15   1.436999 S    
C98   C178  1.416725 A    
Cu9   Cu11  2.691786 S    
C19   C84   1.480627 S    
C110  C126  1.405664 A    
C93   C173  1.413565 A    
N30   O155  1.301328 A    
N25   O146  1.300985 A    
O83   Cu24  1.976511 S    
C46   N14   1.433820 S    
O96   C224  1.293660 A    
C100  C116  1.397654 A    
O86   Cu17  1.972686 S    
C39   N7    1.432398 S    
O2    C2    1.293497 A    
N29   O154  1.300984 A    
O56   C28   1.295952 A    
C155  N35   1.435504 S    
N13   O122  1.299365 A    
C137  C153  1.396866 A    
C133  C214  1.451731 S    
O55   C27   1.297548 A    
C34   C50   1.412610 A    
C193  H9    1.083418 S    
O81   Cu22  1.976558 S    
C190  H6    1.083405 S    
O88   C216  1.297849 A    
C168  N48   1.435185 S    
Cu5   Cu7   2.691786 S    
C57   C60   1.404672 A    
O16   Cu16  1.977261 S    
C195  C206  1.401178 A    
C160  C176  1.413839 A    
C153  C169  1.412960 A    
O75   Cu21  1.977035 S    
C125  C222  1.444081 S    
O19   Cu1   1.968120 S    
C33   N1    1.437340 S    
N6    O108  1.299214 A    
C61   C64   1.404800 A    
O25   C9    1.297507 A    
N37   O170  1.300501 A    
O42   C22   1.299593 A    
O92   Cu17  1.972655 S    
O28   C12   1.304790 A    
Cu20  Cu23  2.695238 S    
C18   C81   1.479679 S    
O29   C13   1.297318 A    
N4    O104  1.301517 A    
N34   O163  1.301306 A    
C66   C82   1.416620 A    
C148  C164  1.398268 A    
C76   C86   1.417220 A    
O32   Cu14  1.971944 S    
O21   Cu7   1.968122 S    
C2    C170  1.476370 S    
C47   C63   1.413748 A    
O23   Cu5   1.968120 S    
C73   C76   1.396555 A    
C95   C175  1.413585 A    
O74   C218  1.296080 A    
C192  C203  1.401363 A    
C138  C154  1.398672 A    
C74   C75   1.396568 A    
O45   Cu13  1.976749 S    
O43   C21   1.293551 A    
Cu15  O63   1.976991 S    
O52   C26   1.296043 A    
N31   O158  1.300990 A    
O47   C23   1.293596 A    
C77   C80   1.396324 A    
Cu10  Cu12  2.686463 S    
C159  C175  1.422558 A    
C78   C79   1.396494 A    
C109  Br21  1.933245 S    
C103  N31   1.435357 S    
N3    O101  1.301646 A    
C118  C134  1.403108 A    
C65   C68   1.396501 A    
C133  C149  1.409140 A    
O66   C210  1.294395 A    
O7    Cu7   1.973449 S    
C66   C67   1.396497 A    
C160  N40   1.435155 S    
C29   C206  1.458680 S    
C132  C148  1.398404 A    
N24   O144  1.300985 A    
C199  C208  1.401205 A    
C52   Br2   1.929640 S    
C151  C167  1.396286 A    
Cu12  O60   1.976938 S    
O34   C18   1.299845 A    
C64   Br14  1.930126 S    
O9    C9    1.294532 A    
O96   Cu21  1.972655 S    
C68   C82   1.416623 A    
N14   O123  1.301776 A    
Cu2   O50   1.976911 S    
C50   C51   1.404505 A    
O1    Cu1   1.973449 S    
O12   C12   1.294211 A    
C143  C159  1.397983 A    
N46   O187  1.301354 A    
C128  C223  1.451519 S    
C48   N16   1.434129 S    
C65   C81   1.433028 A    
C75   C85   1.432518 A    
C199  H15   1.083418 S    
O93   C221  1.295837 A    
C104  C184  1.415800 A    
O68   Cu20  1.973158 S    
O77   C221  1.295259 A    
C80   C88   1.417368 A    
C43   N11   1.437019 S    
N23   O142  1.301049 A    
C165  N45   1.435942 S    
C8    C176  1.465384 S    
O78   Cu20  1.973135 S    
C40   N8    1.437584 S    
N42   O179  1.301283 A    
C112  Br24  1.934024 S    
N38   O172  1.300418 A    
O13   Cu13  1.973449 S    
O25   Cu11  1.968122 S    
O7    C7    1.292682 A    
O93   Cu24  1.976558 S    
O19   C3    1.298140 A    
O8    C8    1.295181 A    
C33   C49   1.413605 A    
C91   C107  1.396066 A    
C142  Br38  1.933480 S    
C167  C183  1.411707 A    
N2    O99   1.301800 A    
C168  C184  1.423786 A    
C43   C74   1.419630 A    
O22   C6    1.297043 A    
C101  N29   1.435342 S    
C127  C143  1.401025 A    
O31   Cu13  1.968120 S    
C41   C76   1.419628 A    
C111  Br23  1.933246 S    
C42   C75   1.422067 A    
O51   C25   1.297460 A    
C96   N24   1.435005 S    
N15   O125  1.301629 A    
C164  C180  1.423715 A    
C101  C117  1.396479 A    
N20   O136  1.301032 A    
N9    O113  1.301625 A    
C45   C80   1.419801 A    
N19   O134  1.300997 A    
C46   C79   1.421796 A    
C115  C131  1.407751 A    
O46   Cu14  1.976696 S    
C35   C66   1.419703 A    
O12   Cu12  1.977261 S    
C185  C202  1.401215 A    
N8    O111  1.301661 A    
Cu2   Cu4   2.686463 S    
C119  C135  1.407189 A    
C33   C68   1.419699 A    
Cu6   O54   1.976911 S    
C34   C67   1.421887 A    
O34   Cu2   1.976696 S    
N48   O191  1.301284 A    
Cu6   Cu8   2.686463 S    
C146  C162  1.398263 A    
O38   C20   1.291403 A    
C198  H14   1.083407 S    
C43   C59   1.413709 A    
C48   C77   1.421699 A    
C41   C57   1.413713 A    
C144  C160  1.398022 A    
C4    C172  1.476380 S    
O81   C209  1.292405 A    
C45   C61   1.413818 A    
C104  C120  1.397545 A    
C135  C216  1.451799 S    
O6    C6    1.295188 A    
O95   Cu22  1.976511 S    
O3    Cu3   1.973449 S    
C156  N36   1.436167 S    
C196  C205  1.401554 A    
C38   C54   1.413521 A    
Cu3   O51   1.976991 S    
C197  C208  1.401200 A    
C149  C165  1.396266 A    
C186  H2    1.083406 S    
C198  C207  1.401519 A    
C44   C73   1.422051 A    
O85   C213  1.291854 A    
C130  C146  1.398417 A    
O77   Cu19  1.976989 S    
C99   N27   1.435399 S    
C156  C172  1.423060 A    
Cu16  O64   1.976938 S    
C94   C174  1.413154 A    
C121  C218  1.450451 S    
O67   Cu19  1.977035 S    
N33   O162  1.300173 A    
N28   O151  1.301312 A    
Cu10  O58   1.976911 S    
O28   Cu10  1.971944 S    
C139  C155  1.396874 A    
C193  C206  1.401172 A    
O14   Cu14  1.977261 S    
C22   C85   1.478576 S    
O69   Cu21  1.976989 S    
O64   C32   1.296050 A    
C99   C179  1.410576 A    
N32   O159  1.301325 A    
C111  C127  1.404724 A    
O40   C20   1.291414 A    
C16   C184  1.476699 S    
C108  C124  1.402889 A    
C152  C168  1.398527 A    
C100  C180  1.416739 A    
N45   O185  1.301003 A    
C44   N12   1.433964 S    
O82   C210  1.297282 A    
O57   C29   1.297420 A    
C13   C181  1.459273 S    
N19   O133  1.301223 A    
C36   C52   1.412614 A    
O3    C3    1.294808 A    
C37   N5    1.432395 S    
N41   O177  1.300941 A    
C58   Br12  1.929534 S    
C107  Br19  1.934274 S    
C9    C177  1.458841 S    
C194  H10   1.083404 S    
N12   O119  1.301757 A    
C105  Br17  1.934272 S    
O92   C220  1.294662 A    
C92   C172  1.415909 A    
C147  Br43  1.935306 S    
N16   O127  1.301771 A    
N40   O176  1.300360 A    
C25   C202  1.458780 S    
C163  N43   1.435980 S    
N35   O165  1.300958 A    
O86   C214  1.297814 A    
C35   N3    1.437337 S    
N18   O131  1.301317 A    
O26   C10   1.304793 A    
N27   O150  1.300984 A    
C28   C203  1.459122 S    
C161  N41   1.435922 S    
C119  Br31  1.934688 S    
O26   Cu12  1.971942 S    
C73   C85   1.432504 A    
O94   Cu23  1.972686 S    
C62   C63   1.404692 A    
C200  C207  1.401525 A    
O30   C14   1.305211 A    
C145  Br41  1.935273 S    
N26   O147  1.301308 A    
O36   Cu4   1.976669 S    
C150  C166  1.398500 A    
N39   O173  1.301346 A    
C54   C55   1.404449 A    
C56   Br6   1.931186 S    
C128  C144  1.406246 A    
C70   C84   1.433439 A    
O80   C224  1.294156 A    
C100  N28   1.434916 S    
C131  C212  1.452111 S    
O40   Cu8   1.976669 S    
C34   N2    1.433047 S    
O90   C218  1.294667 A    
N36   O167  1.301308 A    
C10   C178  1.477296 S    
O45   C23   1.293341 A    
C97   C177  1.410583 A    
C49   Br3   1.931091 S    
C120  C136  1.403096 A    
N8    O112  1.299215 A    
N11   O118  1.299331 A    
O37   C19   1.301651 A    
C95   C111  1.396743 A    
N1    O98   1.299277 A    
C146  Br42  1.937594 S    
O65   Cu17  1.976989 S    
C138  Br34  1.939024 S    
N30   O156  1.301057 A    
N25   O145  1.301209 A    
C30   C205  1.459547 S    
C94   N22   1.435005 S    
O17   Cu3   1.968122 S    
C198  C199  1.394053 A    
O31   C15   1.297247 A    
C152  Br48  1.938033 S    
C91   N19   1.435323 S    
C189  C204  1.401361 A    
C190  C203  1.401355 A    
Cu14  O62   1.976911 S    
O60   C30   1.296068 A    
N13   O121  1.301649 A    
O58   C30   1.296062 A    
C136  C215  1.444228 S    
C106  Br18  1.933209 S    
O10   C10   1.294193 A    
Cu1   Cu3   2.691786 S    
O62   C32   1.296044 A    
N47   O189  1.301011 A    
C77   C87   1.432402 A    
N20   O135  1.301315 A    
C132  C211  1.443466 S    
C78   C88   1.417326 A    
O14   C14   1.293382 A    
C90   N18   1.435078 S    
C98   C114  1.397668 A    
N44   O183  1.301281 A    
O17   C1    1.298139 A    
C124  C140  1.400232 A    
C157  C173  1.422547 A    
N15   O126  1.299335 A    
O43   Cu11  1.976703 S    
N37   O169  1.301345 A    
C41   N9    1.437025 S    
O72   C216  1.293635 A    
C162  N42   1.435061 S    
C124  C219  1.445122 S    
C145  C161  1.396337 A    
C31   C208  1.458747 S    
O59   C29   1.297434 A    
C107  C123  1.407301 A    
C38   N6    1.437590 S    
N22   O139  1.301232 A    
C90   C170  1.415909 A    
O21   C5    1.306875 A    
O63   C31   1.297452 A    
O35   C17   1.293252 A    
C105  C121  1.407311 A    
O68   C212  1.294392 A    
C140  Br36  1.939091 S    
C151  Br47  1.935320 S    
C109  C125  1.404744 A    
C148  Br44  1.937591 S    
C155  C171  1.412979 A    
O13   C13   1.294963 A    
C164  N44   1.435060 S    
C166  C182  1.423790 A    
C49   C52   1.404516 A    
O85   Cu18  1.976558 S    
O22   Cu8   1.971942 S    
C39   C70   1.421689 A    
C129  C210  1.452096 S    
C134  C213  1.444199 S    
C165  C181  1.411755 A    
N27   O149  1.301207 A    
C143  Br39  1.940496 S    
C186  C201  1.401507 A    
N17   O130  1.300997 A    
O82   Cu21  1.972686 S    
C129  C145  1.409124 A    
O70   Cu22  1.973135 S    
C37   C72   1.421704 A    
C102  N30   1.435080 S    
N21   O138  1.301044 A    
C126  C221  1.451505 S    
C42   C58   1.412703 A    
C67   C81   1.433038 A    
C114  C130  1.402214 A    
O70   C214  1.293633 A    
C120  Br32  1.932525 S    
C154  N34   1.436154 S    
N29   O153  1.301210 A    
C95   N23   1.435469 S    
C46   C62   1.412692 A    
O91   Cu18  1.976511 S    
C39   C55   1.412631 A    
C40   C56   1.413510 A    
N14   O124  1.301444 A    
O37   Cu5   1.976749 S    
C116  Br28  1.932883 S    
Cu7   O55   1.976991 S    
O39   Cu7   1.976703 S    
Cu11  O59   1.976991 S    
C158  N38   1.435131 S    
C187  H3    1.083416 S    
C90   C106  1.398020 A    
C3    C171  1.460626 S    
C40   C69   1.419686 A    
O20   Cu2   1.971944 S    
O75   C219  1.293214 A    
C1    C169  1.460615 S    
C47   C78   1.419698 A    
O50   C26   1.296037 A    
O33   C17   1.293257 A    
C94   C110  1.397495 A    
N34   O164  1.300530 A    
O24   Cu6   1.971944 S    
C61   Br15  1.931257 S    
N42   O180  1.300741 A    
C159  N39   1.436849 S    
C5    C173  1.472384 S    
C110  Br22  1.934017 S    
C14   C182  1.476666 S    
O30   Cu16  1.971942 S    
C134  C150  1.398588 A    
C194  C205  1.401550 A    
O67   C211  1.294809 A    
C125  C141  1.401034 A    
C117  C133  1.407146 A    
N2    O100  1.301514 A    
C20   C83   1.447283 S    
O24   C8    1.297041 A    
O18   Cu4   1.971942 S    
C53   Br7   1.929701 S    
N44   O184  1.300742 A    
C44   C60   1.412711 A    
C63   Br13  1.930933 S    
N10   O116  1.301443 A    
N6    O107  1.301659 A    
C150  Br46  1.938121 S    
C191  C204  1.401364 A    
N7    O109  1.301838 A    
C191  H7    1.083418 S    
C42   N10   1.433966 S    
O61   C31   1.297438 A    
O11   Cu11  1.973449 S    
C89   C105  1.396070 A    
N4    O103  1.301802 A    
Cu1   O49   1.976945 S    
O79   Cu17  1.977035 S    
C195  H11   1.083417 S    
N48   O192  1.300755 A    
N39   O174  1.300501 A    
C122  C138  1.400245 A    
O32   C16   1.305216 A    
O94   C222  1.293656 A    
C166  N46   1.435189 S    
Cu5   O53   1.976945 S    
O10   Cu10  1.977261 S    
C62   Br16  1.929523 S    
O71   C215  1.295795 A    
C26   C201  1.459443 S    
O6    Cu6   1.977261 S    
C58   C59   1.404661 A    
O89   C217  1.294834 A    
O20   C4    1.305011 A    
O27   C11   1.297504 A    
C101  C181  1.411142 A    
C189  C192  1.394064 A    
C141  C157  1.397979 A    
N5    O106  1.301549 A    
C190  C191  1.394059 A    
C74   C86   1.417220 A    
O69   C213  1.295804 A    
C54   Br8   1.931182 S    
O48   Cu16  1.976669 S    
C92   C108  1.398016 A    
C141  Br37  1.940504 S    
O38   Cu6   1.976696 S    
O88   Cu19  1.972655 S    
O89   Cu20  1.976558 S    
N35   O166  1.300198 A    
O83   C211  1.292378 A    
N24   O143  1.301229 A    
O44   Cu12  1.976669 S    
C102  C118  1.397569 A    
O84   Cu23  1.972655 S    
O15   C15   1.294997 A    
O16   C16   1.293395 A    
C11   C179  1.458824 S    
O1    C1    1.294801 A    
C35   C51   1.413601 A    
C144  Br40  1.933489 S    
O54   C28   1.295946 A    
N33   O161  1.300953 A    
N28   O152  1.301049 A    
C188  H4    1.083407 S    
C135  C151  1.409223 A    
C189  H5    1.083419 S    
N47   O190  1.300000 A    
C126  C142  1.406241 A    
C147  C163  1.396377 A    
N32   O160  1.301049 A    
C96   C112  1.397479 A    
C92   N20   1.435080 S    
O79   C223  1.295275 A    
C32   C207  1.459477 S    
O80   Cu18  1.973158 S    
O65   C209  1.294792 A    
C200  H16   1.083408 S    
C89   N17   1.435319 S    
N38   O171  1.300939 A    
C17   C82   1.448129 S    
C53   C56   1.404438 A    
N43   O181  1.301010 A    
O11   C11   1.294527 A    
C69   C83   1.416073 A    
C117  Br29  1.934667 S    
Cu8   O56   1.976938 S    
C162  C178  1.423699 A    
N12   O120  1.301442 A    
Cu17  Cu22  2.695238 S    
O2    Cu2   1.977261 S    
O91   C219  1.294827 A    
N43   O182  1.299995 A    
Cu19  Cu24  2.695238 S    
C113  Br25  1.934441 S    
C12   C180  1.477322 S    
C131  C147  1.409153 A    
C51   Br1   1.931093 S    
N16   O128  1.302329 A    
C112  C128  1.405669 A    
C79   C87   1.432364 A    
O76   Cu22  1.973158 S    
C122  C217  1.445115 S    
N9    O114  1.299332 A    
N18   O132  1.301031 A    
C137  Br33  1.934140 S    
Cu13  Cu15  2.691786 S    
O73   Cu23  1.976989 S    
O66   Cu18  1.973135 S    
O29   Cu15  1.968122 S    
O27   Cu9   1.968120 S    
C36   N4    1.433055 S    
O72   Cu24  1.973158 S    
N26   O148  1.301047 A    
C69   C72   1.396396 A    
C167  N47   1.435987 S    
C163  C179  1.411782 A    
C15   C183  1.459192 S    
C161  C177  1.411740 A    
C142  C158  1.397995 A    
C103  C119  1.396472 A    
C121  C137  1.406840 A    
N36   O168  1.300529 A    
N3    O102  1.299273 A    
O95   C223  1.295827 A    
C188  C201  1.401513 A    
C96   C176  1.413140 A    
C48   C64   1.413244 A    
C113  C129  1.407753 A    
N31   O157  1.301220 A    
O44   C22   1.299565 A    
N11   O117  1.301627 A    
C118  Br30  1.932528 S    
C185  H1    1.083414 S    
O46   C24   1.299669 A    
O18   C2    1.305008 A    
N1    O97   1.301645 A    
C72   C84   1.433459 A    
C97   N25   1.435396 S    
Cu4   O52   1.976938 S    
O87   C215  1.291872 A    
C91   C171  1.411140 A    
C98   N26   1.434917 S    
C71   C83   1.416079 A    
C23   C88   1.448798 S    
O78   C222  1.294167 A    
C24   C87   1.478974 S    
C45   N13   1.436989 S    
C197  C200  1.394057 A    
O74   Cu24  1.973135 S    
O49   C25   1.297442 A    
O35   Cu3   1.976703 S    
Cu13  O61   1.976945 S    
O15   Cu15  1.973449 S    
N10   O115  1.301752 A    
O47   Cu15  1.976703 S    
C70   C71   1.396386 A    
C140  C156  1.398635 A    
C55   Br5   1.929698 S    
O41   Cu9   1.976749 S    
O39   C19   1.301610 A    
O90   Cu19  1.972686 S    
C115  Br27  1.934450 S    
C192  H8    1.083401 S    
Cu18  Cu21  2.695238 S    
O87   Cu20  1.976511 S    
N46   O188  1.300819 A    
C123  C139  1.406840 A    
C130  C209  1.443485 S    
C149  Br45  1.935306 S    
O76   C220  1.296079 A    
C93   N21   1.435471 S    
N23   O141  1.301338 A    
N45   O186  1.300013 A    
O53   C27   1.297534 A    
C60   Br10  1.929530 S    
N7    O110  1.301549 A    
C114  Br26  1.932882 S    
N5    O105  1.301836 A    
Cu9   O57   1.976945 S    
C123  C220  1.450438 S    
C6    C174  1.465395 S    
C103  C183  1.411124 A    
C93   C109  1.396747 A    
N41   O178  1.299833 A    
N22   O140  1.300983 A    
O84   C212  1.297294 A    
O33   Cu1   1.976749 S    
C108  Br20  1.933209 S    
C38   C71   1.419682 A    
C185  C188  1.394057 A    
O4    Cu4   1.977261 S    
C186  C187  1.394055 A    
C157  N37   1.436845 S    
C196  H12   1.083404 S    
C139  Br35  1.934143 S    
C153  N33   1.435492 S    
C197  H13   1.083414 S    
C116  C132  1.402204 A    
O8    Cu8   1.977261 S    
N40   O175  1.300886 A    
C136  C152  1.398633 A    
O41   C21   1.293538 A    
O73   C217  1.293202 A    
O5    Cu5   1.973449 S    
O23   C7    1.306876 A    
O9    Cu9   1.973449 S    
C57   Br11  1.930918 S    
