data_mof_unit_57564.cif
_audit_creation_date              2013-03-05T15:44:53-0500
_audit_creation_method            fapswitch 2.2
_symmetry_space_group_name_H-M    P1
_symmetry_Int_Tables_number       1
_space_group_crystal_system       triclinic
_cell_length_a                    15.779131
_cell_length_b                    15.341196
_cell_length_c                    9.862184
_cell_angle_alpha                 90.004097
_cell_angle_beta                  61.068399
_cell_angle_gamma                 90.005679
_cell_volume                      2089.40022852

loop_
_atom_site_label
_atom_site_type_symbol
_atom_site_description
_atom_site_fract_x
_atom_site_fract_y
_atom_site_fract_z
_atom_type_partial_charge
O1    O     O_R   0.422430 0.089640 0.419570 -0.543167
O2    O     O_R   0.577570 0.910360 0.580430 -0.543196
O3    O     O_R   0.577570 0.089640 0.580430 -0.568774
O4    O     O_R   0.422430 0.910360 0.419570 -0.568822
O5    O     O_R   0.922430 0.589640 0.419570 -0.568869
O6    O     O_R   0.077570 0.410360 0.580430 -0.568949
O7    O     O_R   0.077570 0.589640 0.580430 -0.543052
O8    O     O_R   0.922430 0.410360 0.419570 -0.543169
O9    O     O_R   0.384170 0.089650 0.673910 -0.552877
O10   O     O_R   0.615830 0.910350 0.326090 -0.552867
O11   O     O_R   0.615830 0.089650 0.326090 -0.548349
O12   O     O_R   0.384170 0.910350 0.673910 -0.548354
O13   O     O_R   0.884170 0.589650 0.673910 -0.548309
O14   O     O_R   0.115830 0.410350 0.326090 -0.548308
O15   O     O_R   0.115830 0.589650 0.326090 -0.552934
O16   O     O_R   0.884170 0.410350 0.673910 -0.552874
C1    C     C_R   0.375768 0.121325 0.557865 0.750973
C2    C     C_R   0.624225 0.878668 0.442138 0.750977
C3    C     C_R   0.630529 0.115818 0.438979 0.737157
C4    C     C_R   0.369464 0.884184 0.561022 0.737047
C5    C     C_R   0.869469 0.615812 0.561022 0.737176
C6    C     C_R   0.130544 0.384199 0.438972 0.737221
C7    C     C_R   0.124227 0.621336 0.442142 0.750944
C8    C     C_R   0.875783 0.378657 0.557852 0.750973
C9    C     C_2   0.509591 0.994684 0.917708 0.585824
C10   C     C_2   0.490416 0.005352 0.082281 0.585840
C11   C     C_2   0.009584 0.505362 0.917721 0.585777
C12   C     C_2   0.990408 0.494681 0.082292 0.585749
Cu1   Cu    Cu3+1 0.522650 0.000000 0.349410 1.024376
Cu2   Cu    Cu3+1 0.477350 0.000000 0.650590 1.024374
Cu3   Cu    Cu3+1 0.022650 0.500000 0.349410 1.024340
Cu4   Cu    Cu3+1 0.977350 0.500000 0.650590 1.024375
N1    N     N_2   0.443290 0.000000 0.876860 -0.190432
N2    N     N_2   0.556710 0.000000 0.123140 -0.190452
N3    N     N_2   0.943290 0.500000 0.876860 -0.190482
N4    N     N_2   0.056710 0.500000 0.123140 -0.190443
C13   C     C_2   0.291923 0.821592 0.591745 0.435370
C14   C     C_2   0.708040 0.178433 0.408257 0.435291
C15   C     C_2   0.689212 0.805423 0.419194 0.431995
C16   C     C_2   0.310770 0.194560 0.580817 0.432017
C17   C     C_2   0.810833 0.305371 0.580763 0.432085
C18   C     C_2   0.189215 0.694594 0.419214 0.432225
C19   C     C_2   0.208072 0.321608 0.408241 0.435096
C20   C     C_2   0.791964 0.678424 0.591741 0.435146
C21   C     C_2   0.245509 0.819414 0.506331 0.056323
C22   C     C_2   0.754504 0.180605 0.493592 0.056197
C23   C     C_2   0.673912 0.749187 0.535532 0.085841
C24   C     C_2   0.326093 0.250826 0.464512 0.085808
C25   C     C_2   0.826160 0.249142 0.464393 0.085831
C26   C     C_2   0.173828 0.750901 0.535506 0.085928
C27   C     C_2   0.254411 0.319338 0.493778 0.056311
C28   C     C_2   0.745588 0.680671 0.506273 0.056233
C29   C     C_3   0.658260 0.987397 0.012730 -0.456393
H1    H     H_    0.701566 0.990803 0.073530 0.231800
H2    H     H_    0.670199 0.922037 0.957934 0.241986
H3    H     H_    0.685105 0.040577 0.925613 0.202267
C30   C     C_3   0.341733 0.012565 0.987273 -0.456424
H4    H     H_    0.298429 0.009128 0.926473 0.231798
H5    H     H_    0.314918 0.959385 0.074392 0.202193
H6    H     H_    0.329761 0.077928 0.042066 0.242034
C31   C     C_3   0.158266 0.512580 0.012729 -0.456393
H7    H     H_    0.201572 0.509135 0.073524 0.231804
H8    H     H_    0.185077 0.459411 0.925585 0.202183
H9    H     H_    0.170240 0.577949 0.957968 0.242062
C32   C     C_3   0.841738 0.487395 0.987269 -0.456390
H10   H     H_    0.798432 0.490806 0.926471 0.231809
H11   H     H_    0.829789 0.422033 0.042050 0.241994
H12   H     H_    0.814903 0.540571 0.074398 0.202259
C33   C     C_3   0.739589 0.113876 0.615513 -0.712901
H13   H     H_    0.796393 0.119518 0.650882 0.233158
H14   H     H_    0.668685 0.125271 0.720077 0.287927
H15   H     H_    0.744270 0.047014 0.569206 0.250142
C34   C     C_3   0.260508 0.886124 0.384334 -0.713168
H16   H     H_    0.203705 0.880533 0.348963 0.233071
H17   H     H_    0.255895 0.952991 0.430579 0.250306
H18   H     H_    0.331410 0.874664 0.279793 0.287830
C35   C     C_3   0.416552 0.251132 0.307521 -0.717092
H19   H     H_    0.420686 0.311546 0.242453 0.243675
H20   H     H_    0.482311 0.249048 0.321412 0.219289
H21   H     H_    0.415894 0.195218 0.236744 0.294057
C36   C     C_3   0.583489 0.748927 0.692589 -0.717097
H22   H     H_    0.579365 0.688531 0.757698 0.243665
H23   H     H_    0.584206 0.804863 0.763290 0.294044
H24   H     H_    0.517694 0.751007 0.678787 0.219297
C37   C     C_3   0.083299 0.751241 0.692412 -0.717415
H25   H     H_    0.079122 0.811683 0.757453 0.243622
H26   H     H_    0.017592 0.749119 0.678374 0.219279
H27   H     H_    0.083894 0.695356 0.763290 0.293997
C38   C     C_3   0.916572 0.248939 0.307319 -0.717194
H28   H     H_    0.920743 0.188531 0.242201 0.243601
H29   H     H_    0.915786 0.304859 0.236648 0.294067
H30   H     H_    0.982379 0.251098 0.321088 0.219355
C39   C     C_3   0.760606 0.614040 0.384148 -0.712830
H31   H     H_    0.703925 0.619787 0.348526 0.233230
H32   H     H_    0.831586 0.625436 0.279747 0.287820
H33   H     H_    0.755800 0.547143 0.430374 0.250259
C40   C     C_3   0.239339 0.385937 0.616011 -0.712731
H34   H     H_    0.295950 0.380131 0.651790 0.233225
H35   H     H_    0.244240 0.452853 0.569764 0.250262
H36   H     H_    0.168297 0.374555 0.720346 0.287706
F1    F     F_    0.731980 0.236488 0.290784 -0.654195
F2    F     F_    0.267883 0.763585 0.709321 -0.654103
F3    F     F_    0.231900 0.204067 0.723429 -0.659600
F4    F     F_    0.768044 0.795875 0.276552 -0.659584
F5    F     F_    0.268153 0.704057 0.276667 -0.659563
F6    F     F_    0.732013 0.295770 0.723407 -0.659556
F7    F     F_    0.767944 0.736405 0.709351 -0.654200
F8    F     F_    0.232159 0.263672 0.290545 -0.654159
F9    F     F_    0.399814 0.023361 0.196324 -0.708073
F10   F     F_    0.600200 0.976712 0.803649 -0.708110
F11   F     F_    0.899799 0.476697 0.196346 -0.708090
F12   F     F_    0.100184 0.523390 0.803685 -0.707956

loop_
_geom_bond_atom_site_label_1
_geom_bond_atom_site_label_2
_geom_bond_distance
_ccdc_geom_bond_type
C27   C40   1.508685 S    
O6    Cu4   1.952511 S    
C39   H31   1.111356 S    
C31   H9    1.111025 S    
C34   H16   1.111253 S    
O13   Cu4   1.944071 S    
O14   Cu3   1.944071 S    
C40   H36   1.108980 S    
C36   H22   1.111154 S    
C15   F4    1.361865 S    
C29   H1    1.107086 S    
C29   H3    1.109555 S    
C22   C25   1.466849 S    
O11   C3    1.305465 A    
C7    C18   1.463287 S    
O3    Cu2   1.952358 S    
C14   F1    1.361902 S    
C13   F2    1.361940 S    
C30   H5    1.109559 S    
O2    C2    1.291113 A    
N3    C32   1.450013 S    
O6    C6    1.295279 A    
C21   C34   1.508503 S    
C31   H8    1.109551 S    
C22   C33   1.508472 S    
C26   C37   1.515390 S    
C36   H23   1.109167 S    
C10   N2    1.292759 D    
C24   C27   1.466866 S    
Cu3   Cu4   2.698029 S    
C32   H11   1.111029 S    
O3    C3    1.295289 A    
C38   H29   1.109205 S    
O4    Cu1   1.952359 S    
C35   H19   1.111140 S    
C20   C28   1.357928 D    
O15   C7    1.307833 A    
C39   H32   1.108762 S    
C8    C17   1.463273 S    
C34   H17   1.110602 S    
C33   H13   1.111314 S    
C17   C25   1.360553 D    
C40   H35   1.110763 S    
C40   H34   1.111470 S    
C35   H20   1.110854 S    
C12   F11   1.352584 S    
C33   H14   1.108800 S    
C17   F6    1.361883 S    
C37   H26   1.110880 S    
Cu4   N3    2.026856 S    
C30   H6    1.111027 S    
C11   N3    1.292757 D    
C9    C10   1.509132 S    
C37   H25   1.111135 S    
Cu1   N2    2.026856 S    
C1    C16   1.463209 S    
C24   C35   1.515374 S    
C33   H15   1.110619 S    
C2    C15   1.463226 S    
Cu1   Cu2   2.698029 S    
C3    C14   1.466864 S    
C5    C20   1.466891 S    
C6    C19   1.466937 S    
C32   H12   1.109555 S    
O12   C4    1.305500 A    
O1    Cu1   1.952510 S    
O13   C5    1.305504 A    
C28   C39   1.508446 S    
C38   H30   1.110933 S    
C10   F9    1.352573 S    
O11   Cu1   1.943887 S    
O9    Cu2   1.944071 S    
C18   C26   1.360512 D    
C9    F10   1.352575 S    
O9    C1    1.307813 A    
C11   F12   1.352577 S    
C39   H33   1.110606 S    
C34   H18   1.108841 S    
C29   H2    1.111031 S    
C13   C21   1.357921 D    
N4    C31   1.450017 S    
C36   H24   1.110912 S    
C15   C23   1.360543 D    
C37   H27   1.109136 S    
C16   C24   1.360506 D    
N1    C30   1.450017 S    
O7    Cu4   1.952358 S    
Cu2   N1    2.026856 S    
O12   Cu2   1.943889 S    
O8    Cu3   1.952359 S    
C25   C38   1.515502 S    
O15   Cu3   1.943887 S    
C23   C28   1.466862 S    
O16   Cu4   1.943889 S    
O1    C1    1.291108 A    
O2    Cu2   1.952511 S    
O14   C6    1.305520 A    
C16   F3    1.361875 S    
C4    C13   1.466978 S    
C35   H21   1.109078 S    
O10   Cu1   1.944071 S    
C19   C27   1.358031 D    
C30   H4    1.107087 S    
C21   C26   1.466898 S    
O10   C2    1.307833 A    
O7    C7    1.291132 A    
O8    C8    1.291120 A    
C20   F7    1.361903 S    
C19   F8    1.361925 S    
C23   C36   1.515483 S    
C31   H7    1.107088 S    
C18   F5    1.361862 S    
C14   C22   1.357889 D    
O4    C4    1.295305 A    
O5    C5    1.295264 A    
C12   N4    1.292750 D    
N2    C29   1.450013 S    
O16   C8    1.307842 A    
C32   H10   1.107082 S    
C11   C12   1.509139 S    
Cu3   N4    2.026856 S    
C38   H28   1.111132 S    
C9    N1    1.292750 D    
O5    Cu3   1.952510 S    
