data_mof_unit_23891.cif
_audit_creation_date              2012-12-11T14:01:25-0500
_audit_creation_method            fapswitch 2.2
_symmetry_space_group_name_H-M    P1
_symmetry_Int_Tables_number       1
_space_group_crystal_system       triclinic
_cell_length_a                    19.102877
_cell_length_b                    11.033977
_cell_length_c                    18.734251
_cell_angle_alpha                 89.827724
_cell_angle_beta                  90.288584
_cell_angle_gamma                 90.081992
_cell_volume                      3948.74674556

loop_
_atom_site_label
_atom_site_type_symbol
_atom_type_description
_atom_site_fract_x
_atom_site_fract_y
_atom_site_fract_z
_atom_type_partial_charge
C1    C     C_R   0.265838 0.064151 0.833317 0.532095
C2    C     C_R   0.708000 0.996045 0.139518 0.551220
C3    C     C_R   0.791386 0.498802 0.860843 0.562588
C4    C     C_R   0.227658 0.544060 0.147586 0.547605
C5    C     C_R   0.440239 0.003029 0.088381 -0.090496
C6    C     C_R   0.449182 0.052247 0.943533 -0.051600
C7    C     C_R   0.011338 0.556482 0.064335 -0.024536
C8    C     C_R   0.047975 0.521551 0.921995 -0.104878
C9    C     C_R   0.036617 0.651711 0.023923 -0.081893
C10   C     C_R   0.060902 0.631994 0.955188 -0.130415
C11   C     C_R   0.410333 0.107046 0.060743 -0.151626
C12   C     C_R   0.416195 0.133676 0.988897 -0.130319
C13   C     C_2   0.251344 0.583248 0.921691 -0.048576
C14   C     C_2   0.730830 0.641836 0.068083 -0.000531
C15   C     C_2   0.740211 0.046343 0.904518 -0.125452
C16   C     C_2   0.238540 0.133222 0.069592 -0.137610
C17   C     C_2   0.251689 0.599571 0.081425 0.257543
C18   C     C_2   0.785223 0.530186 0.936430 0.235639
C19   C     C_2   0.714406 0.017473 0.062450 0.238033
C20   C     C_2   0.234427 0.148525 0.885264 0.269354
C21   C     C_2   0.296030 0.536617 0.040205 -0.143184
C22   C     C_2   0.731878 0.488575 0.975399 -0.156822
C23   C     C_2   0.769612 0.974563 0.026316 -0.182398
C24   C     C_2   0.212796 0.099479 0.946603 -0.115238
C25   C     C_2   0.306400 0.567132 0.965368 -0.125224
C26   C     C_2   0.723625 0.525051 0.049939 -0.062983
C27   C     C_2   0.787541 0.016169 0.954226 -0.189527
C28   C     C_2   0.203902 0.170976 0.011760 -0.155988
C29   C     C_2   0.517529 0.837770 0.587711 -0.111281
C30   C     C_2   0.542718 0.827546 0.434183 -0.110936
C31   C     C_2   0.017347 0.337707 0.587578 -0.109986
C32   C     C_2   0.042625 0.327555 0.434121 -0.111501
C33   C     C_2   0.566342 0.743891 0.480263 -0.180390
C34   C     C_2   0.542701 0.739842 0.554361 -0.162897
C35   C     C_2   0.066147 0.243792 0.480168 -0.180450
C36   C     C_2   0.042421 0.239721 0.554209 -0.162976
C37   C     C_2   0.243967 0.562821 0.584846 -0.081576
C38   C     C_2   0.753300 0.567664 0.417732 -0.076093
C39   C     C_2   0.744019 0.062845 0.584823 -0.080067
C40   C     C_2   0.253280 0.067795 0.417789 -0.074263
C41   C     C_2   0.240075 0.570863 0.426454 -0.136530
C42   C     C_2   0.761626 0.570835 0.573017 -0.134385
C43   C     C_2   0.740026 0.070797 0.426483 -0.136901
C44   C     C_2   0.261575 0.070987 0.573082 -0.130036
C45   C     C_R   0.468915 0.824046 0.854180 0.559085
C46   C     C_R   0.531851 0.819703 0.145467 0.552852
C47   C     C_R   0.970236 0.319784 0.854102 0.548279
C48   C     C_R   0.028991 0.323065 0.146789 0.544478
C49   C     C_2   0.189609 0.536774 0.471701 -0.157599
C50   C     C_2   0.813931 0.541478 0.528539 -0.150058
C51   C     C_2   0.689587 0.036671 0.471743 -0.156570
C52   C     C_2   0.313826 0.041443 0.528598 -0.147264
C53   C     C_2   0.187693 0.584531 0.544045 0.242372
C54   C     C_2   0.813298 0.579177 0.453906 0.240686
C55   C     C_2   0.687689 0.084385 0.544088 0.239731
C56   C     C_2   0.313244 0.079394 0.454016 0.240814
C57   C     C_R   0.261611 0.637999 0.851990 0.531255
C58   C     C_R   0.725843 0.682598 0.140926 0.544119
C59   C     C_R   0.759226 0.129856 0.847517 0.526868
C60   C     C_R   0.226826 0.182354 0.140118 0.553537
C61   C     C_R   0.273074 0.044218 0.647251 0.528539
C62   C     C_R   0.727320 0.044323 0.352507 0.533279
C63   C     C_R   0.773119 0.544099 0.647203 0.542620
C64   C     C_R   0.227395 0.544503 0.352429 0.542488
C65   C     C_R   0.472706 0.824285 0.649734 0.546759
C66   C     C_R   0.561727 0.819468 0.359840 0.568757
C67   C     C_R   0.972616 0.324275 0.649660 0.549430
C68   C     C_R   0.061699 0.319475 0.359829 0.565317
C69   C     C_R   0.259632 0.634549 0.647506 0.562080
C70   C     C_R   0.740024 0.634706 0.352761 0.568195
C71   C     C_R   0.759639 0.134549 0.647500 0.566314
C72   C     C_R   0.240008 0.134774 0.352795 0.567891
C73   C     C_R   0.510186 0.820758 0.071406 -0.042669
C74   C     C_R   0.500089 0.843865 0.924261 -0.052217
C75   C     C_R   0.994831 0.336608 0.077011 -0.059820
C76   C     C_R   0.995223 0.318925 0.928335 -0.036954
C77   C     C_R   0.475700 0.921516 0.043448 -0.017315
C78   C     C_R   0.475257 0.939605 0.969180 -0.013102
C79   C     C_R   0.007824 0.439919 0.034928 -0.014170
C80   C     C_R   0.016701 0.426813 0.960834 -0.020830
C81   C     C_R   0.538276 0.748038 0.952903 0.253137
C82   C     C_R   0.537639 0.729784 0.025892 0.245516
C83   C     C_R   0.977313 0.217362 0.971848 0.258612
C84   C     C_R   0.969617 0.231846 0.045047 0.260510
Cr1   Cr    Cr6+3 0.230530 0.836340 0.748870 1.001726
Cr2   Cr    Cr6+3 0.769470 0.836340 0.251130 1.000938
Cr3   Cr    Cr6+3 0.730530 0.336340 0.748870 1.018030
Cr4   Cr    Cr6+3 0.269470 0.336340 0.251130 0.995019
Cr5   Cr    Cr6+3 0.387420 0.989430 0.750820 0.978062
Cr6   Cr    Cr6+3 0.612580 0.989430 0.249180 0.998220
Cr7   Cr    Cr6+3 0.887420 0.489430 0.750820 0.990770
Cr8   Cr    Cr6+3 0.112580 0.489430 0.249180 0.988637
Cr9   Cr    Cr6+3 0.385640 0.677860 0.749230 0.994889
Cr10  Cr    Cr6+3 0.614360 0.677860 0.250770 0.983757
Cr11  Cr    Cr6+3 0.885640 0.177860 0.749230 0.990449
Cr12  Cr    Cr6+3 0.114360 0.177860 0.250770 0.994641
H1    H     H_    0.144272 0.487337 0.452691 0.127895
H2    H     H_    0.861407 0.498581 0.548628 0.146034
H3    H     H_    0.644268 0.987172 0.452755 0.127882
H4    H     H_    0.361222 0.998240 0.548656 0.147751
H5    H     H_    0.286114 0.621360 0.443279 0.081784
H6    H     H_    0.713330 0.613478 0.555312 0.069622
H7    H     H_    0.786021 0.121467 0.443246 0.080085
H8    H     H_    0.213360 0.113919 0.555390 0.068112
H9    H     H_    0.284195 0.501314 0.566447 0.048037
H10   H     H_    0.708839 0.522891 0.442095 0.035602
H11   H     H_    0.784336 0.001567 0.566337 0.051963
H12   H     H_    0.208838 0.022892 0.442104 0.035237
H13   H     H_    0.434318 0.986145 0.144970 0.131933
H14   H     H_    0.457233 0.083993 0.889846 0.149207
H15   H     H_    0.993058 0.575338 0.117735 0.131062
H16   H     H_    0.062813 0.510313 0.866698 0.121146
H17   H     H_    0.035838 0.740355 0.046031 0.101623
H18   H     H_    0.086673 0.703648 0.926815 0.120969
H19   H     H_    0.383800 0.168601 0.095684 0.156383
H20   H     H_    0.396014 0.218704 0.968820 0.116529
H21   H     H_    0.323847 0.457904 0.060655 0.104584
H22   H     H_    0.692747 0.430634 0.951480 0.107118
H23   H     H_    0.810863 0.928518 0.055481 0.106186
H24   H     H_    0.214454 0.001508 0.953407 0.107448
H25   H     H_    0.359846 0.578209 0.946856 0.129190
H26   H     H_    0.710628 0.456589 0.089441 0.107404
H27   H     H_    0.841940 0.038368 0.946283 0.207588
H28   H     H_    0.168971 0.248609 0.013104 0.144342
H29   H     H_    0.198501 0.571015 0.941198 0.152969
H30   H     H_    0.736271 0.711487 0.028033 0.059977
H31   H     H_    0.685676 0.021538 0.909821 0.159926
H32   H     H_    0.276341 0.061166 0.064943 0.112172
H33   H     H_    0.598059 0.668921 0.461351 0.133435
H34   H     H_    0.540122 0.650869 0.579238 0.152300
H35   H     H_    0.097836 0.168778 0.461263 0.133589
H36   H     H_    0.039751 0.150720 0.579040 0.151170
H37   H     H_    0.509513 0.902110 0.450526 0.114006
H38   H     H_    0.524038 0.928141 0.565610 0.112433
H39   H     H_    0.009433 0.402150 0.450444 0.114202
H40   H     H_    0.023921 0.428084 0.565502 0.111850
O1    O     O_R   0.215090 0.709860 0.828130 -0.525112
O2    O     O_R   0.784910 0.709860 0.171870 -0.513306
O3    O     O_R   0.715090 0.209860 0.828130 -0.540276
O4    O     O_R   0.284910 0.209860 0.171870 -0.526468
O5    O     O_R   0.445660 0.919250 0.676780 -0.501849
O6    O     O_R   0.554340 0.919250 0.323220 -0.494480
O7    O     O_R   0.945660 0.419250 0.676780 -0.501761
O8    O     O_R   0.054340 0.419250 0.323220 -0.495771
O9    O     O_R   0.456260 0.718170 0.670000 -0.517992
O10   O     O_R   0.543740 0.718170 0.330000 -0.508398
O11   O     O_R   0.956260 0.218170 0.670000 -0.521081
O12   O     O_R   0.043740 0.218170 0.330000 -0.507962
O13   O     O_R   0.320940 0.626760 0.674370 -0.529704
O14   O     O_R   0.679060 0.626760 0.325630 -0.541959
O15   O     O_R   0.820940 0.126760 0.674370 -0.519519
O16   O     O_R   0.179060 0.126760 0.325630 -0.540697
O17   O     O_3   0.334530 0.834540 0.749640 -0.237071
O18   O     O_3   0.665470 0.834540 0.250360 -0.304997
O19   O     O_3   0.834530 0.334540 0.749640 -0.263022
O20   O     O_3   0.165470 0.334540 0.250360 -0.281859
O21   O     O_R   0.236990 0.958390 0.823710 -0.533404
O22   O     O_R   0.763010 0.958390 0.176290 -0.564463
O23   O     O_R   0.736990 0.458390 0.823710 -0.539391
O24   O     O_R   0.263010 0.458390 0.176290 -0.544619
O25   O     O_R   0.332380 0.074750 0.830850 -0.531125
O26   O     O_R   0.667620 0.074750 0.169150 -0.509089
O27   O     O_R   0.832380 0.574750 0.830850 -0.526127
O28   O     O_R   0.167620 0.574750 0.169150 -0.512171
O29   O     O_R   0.445800 0.917770 0.825070 -0.529746
O30   O     O_R   0.554200 0.917770 0.174930 -0.502033
O31   O     O_R   0.945800 0.417770 0.825070 -0.518381
O32   O     O_R   0.054200 0.417770 0.174930 -0.515316
O33   O     O_R   0.456410 0.716580 0.829970 -0.477477
O34   O     O_R   0.543590 0.716580 0.170030 -0.500951
O35   O     O_R   0.956410 0.216580 0.829970 -0.489591
O36   O     O_R   0.043590 0.216580 0.170030 -0.474291
O37   O     O_R   0.321080 0.625290 0.822650 -0.515865
O38   O     O_R   0.678920 0.625290 0.177350 -0.490036
O39   O     O_R   0.821080 0.125290 0.822650 -0.496103
O40   O     O_R   0.178920 0.125290 0.177350 -0.509252
O41   O     O_R   0.214930 0.711450 0.668160 -0.444096
O42   O     O_R   0.785070 0.711450 0.331840 -0.453110
O43   O     O_R   0.714930 0.211450 0.668160 -0.443400
O44   O     O_R   0.285070 0.211450 0.331840 -0.454761
O45   O     O_R   0.236850 0.959870 0.675420 -0.501216
O46   O     O_R   0.763150 0.959870 0.324580 -0.504590
O47   O     O_R   0.736850 0.459870 0.675420 -0.485223
O48   O     O_R   0.263150 0.459870 0.324580 -0.504889
O49   O     O_R   0.332230 0.076350 0.670880 -0.541223
O50   O     O_R   0.667770 0.076350 0.329120 -0.527368
O51   O     O_R   0.832230 0.576350 0.670880 -0.522104
O52   O     O_R   0.167770 0.576350 0.329120 -0.531286
O53   O     O_3   0.570573 0.664325 0.909137 -0.541683
C85   C     C_3   0.633939 0.714041 0.882638 0.011255
H41   H     H_    0.671215 0.638514 0.878761 0.173969
H42   H     H_    0.658691 0.782039 0.918996 0.105770
C86   C     C_3   0.624593 0.767447 0.807374 -0.263957
H43   H     H_    0.593125 0.704343 0.773965 0.198781
H44   H     H_    0.597247 0.855807 0.810509 0.147453
C87   C     C_3   0.694738 0.789739 0.771121 -0.479380
H45   H     H_    0.726266 0.855149 0.802614 0.137832
H46   H     H_    0.685812 0.828256 0.716999 0.149398
H47   H     H_    0.724047 0.703574 0.765708 0.186578
O54   O     O_3   0.564963 0.622439 0.052645 -0.528768
C88   C     C_3   0.509002 0.540925 0.066072 0.043500
H48   H     H_    0.499823 0.486035 0.017218 0.138234
H49   H     H_    0.458580 0.586990 0.079253 0.111267
C89   C     C_3   0.527330 0.457235 0.129351 -0.246113
H50   H     H_    0.578174 0.411694 0.120810 0.149105
H51   H     H_    0.532591 0.507766 0.179927 0.202947
C90   C     C_3   0.470192 0.363453 0.140102 -0.499051
H52   H     H_    0.488334 0.291567 0.177434 0.154046
H53   H     H_    0.457359 0.323235 0.087855 0.135184
H54   H     H_    0.422415 0.406662 0.161977 0.159315
O55   O     O_3   0.962574 0.104763 0.943039 -0.549291
C91   C     C_3   0.024948 0.036350 0.936257 0.021233
H55   H     H_    0.015094 0.946786 0.960737 0.140690
H56   H     H_    0.070708 0.075033 0.965404 0.110397
C92   C     C_3   0.044180 0.020327 0.857242 -0.267407
H57   H     H_    0.996308 0.014038 0.823823 0.202716
H58   H     H_    0.075303 0.100001 0.839451 0.156224
C93   C     C_3   0.085740 0.905724 0.843429 -0.460365
H59   H     H_    0.109739 0.910998 0.789690 0.179214
H60   H     H_    0.050230 0.826580 0.843343 0.118422
H61   H     H_    0.126867 0.893177 0.884677 0.174408
O56   O     O_3   0.944103 0.137923 0.086478 -0.545589
C94   C     C_3   0.875612 0.166814 0.109984 0.002057
H62   H     H_    0.852686 0.080535 0.127284 0.188902
H63   H     H_    0.842064 0.203076 0.065921 0.119583
C95   C     C_3   0.874031 0.251994 0.175147 -0.277962
H64   H     H_    0.912028 0.220206 0.216158 0.203543
H65   H     H_    0.887384 0.345799 0.158767 0.156392
C96   C     C_3   0.801767 0.257646 0.209071 -0.448697
H66   H     H_    0.761873 0.284580 0.168881 0.142807
H67   H     H_    0.802010 0.325794 0.252587 0.155679
H68   H     H_    0.787918 0.168631 0.232472 0.197760
O57   O     O_3   0.132448 0.655349 0.569754 -0.536686
C97   C     C_3   0.090410 0.707935 0.515451 0.021246
H69   H     H_    0.043287 0.745522 0.541635 0.130648
H70   H     H_    0.070257 0.638769 0.477614 0.117260
C98   C     C_3   0.128056 0.813535 0.477587 -0.258229
H71   H     H_    0.125939 0.895505 0.511864 0.148573
H72   H     H_    0.184095 0.792048 0.469186 0.178289
C99   C     C_3   0.095067 0.841928 0.404882 -0.477449
H73   H     H_    0.090529 0.758647 0.372164 0.178219
H74   H     H_    0.128089 0.907556 0.375375 0.161430
H75   H     H_    0.042492 0.882341 0.411159 0.137630
O58   O     O_3   0.873420 0.620882 0.419723 -0.537672
C100  C     C_3   0.911271 0.705050 0.461894 0.012608
H76   H     H_    0.962701 0.717229 0.435954 0.136776
H77   H     H_    0.922667 0.670965 0.516600 0.119680
C101  C     C_3   0.875488 0.829668 0.463601 -0.251620
H78   H     H_    0.875745 0.869367 0.409026 0.193268
H79   H     H_    0.820203 0.820305 0.480951 0.166166
C102  C     C_3   0.913110 0.916014 0.514673 -0.487173
H80   H     H_    0.905527 0.885870 0.570735 0.155756
H81   H     H_    0.891833 0.008944 0.508249 0.155771
H82   H     H_    0.969896 0.920002 0.503517 0.139207
O59   O     O_3   0.632396 0.154992 0.569865 -0.536368
C103  C     C_3   0.590341 0.207656 0.515609 0.021798
H83   H     H_    0.543238 0.245138 0.541863 0.131081
H84   H     H_    0.570191 0.138554 0.477728 0.116889
C104  C     C_3   0.627937 0.313366 0.477790 -0.258189
H85   H     H_    0.626024 0.395162 0.512224 0.149348
H86   H     H_    0.683922 0.291785 0.469116 0.177483
C105  C     C_3   0.594690 0.342224 0.405269 -0.478220
H87   H     H_    0.590001 0.259126 0.372399 0.179119
H88   H     H_    0.627637 0.407971 0.375765 0.162174
H89   H     H_    0.542163 0.382712 0.411843 0.136109
O60   O     O_3   0.373316 0.121619 0.419953 -0.537769
C106  C     C_3   0.411377 0.204902 0.462535 0.012113
H90   H     H_    0.462627 0.217737 0.436341 0.136725
H91   H     H_    0.423147 0.169567 0.516883 0.118790
C107  C     C_3   0.375563 0.329422 0.465475 -0.252895
H92   H     H_    0.375355 0.370277 0.411191 0.191698
H93   H     H_    0.320425 0.319613 0.483212 0.165138
C108  C     C_3   0.413576 0.414695 0.516892 -0.487578
H94   H     H_    0.406290 0.383536 0.572813 0.150750
H95   H     H_    0.392407 0.507822 0.511191 0.156915
H96   H     H_    0.470290 0.418771 0.505375 0.140114
O61   O     O_3   0.217828 0.702478 0.055310 -0.569992
C109  C     C_3   0.225253 0.800296 0.103883 0.034093
H97   H     H_    0.250700 0.874682 0.074650 0.142230
H98   H     H_    0.260527 0.781136 0.150323 0.089778
C110  C     C_3   0.153866 0.842957 0.132462 -0.229894
H99   H     H_    0.120961 0.765186 0.148209 0.191499
H100  H     H_    0.162299 0.897402 0.181466 0.145024
C111  C     C_3   0.112063 0.917638 0.078635 -0.429784
H101  H     H_    0.127621 0.012691 0.078947 0.180106
H102  H     H_    0.055970 0.918565 0.093873 0.148959
H103  H     H_    0.118664 0.881561 0.023870 0.148744
O62   O     O_3   0.841592 0.588976 0.969783 -0.565460
C112  C     C_3   0.845004 0.713705 0.950133 0.042263
H104  H     H_    0.850912 0.765492 0.000217 0.133823
H105  H     H_    0.796187 0.747744 0.923872 0.113683
C113  C     C_3   0.909937 0.742250 0.904671 -0.218761
H106  H     H_    0.949398 0.787976 0.938330 0.115168
H107  H     H_    0.934372 0.657709 0.885290 0.225171
C114  C     C_3   0.893484 0.823914 0.840491 -0.433167
H108  H     H_    0.845545 0.794737 0.811933 0.172084
H109  H     H_    0.936985 0.820550 0.801662 0.115589
H110  H     H_    0.886650 0.918621 0.857995 0.171783
O63   O     O_3   0.657794 0.070170 0.027333 -0.565545
C115  C     C_3   0.664777 0.197775 0.026664 0.021030
H111  H     H_    0.707823 0.226837 0.990915 0.133840
H112  H     H_    0.676378 0.234181 0.080628 0.124180
C116  C     C_3   0.595724 0.254657 0.002118 -0.256775
H113  H     H_    0.552388 0.215504 0.033939 0.196358
H114  H     H_    0.597992 0.353175 0.011802 0.127484
C117  C     C_3   0.580444 0.238268 0.922876 -0.397686
H115  H     H_    0.616605 0.294536 0.890918 0.185213
H116  H     H_    0.526713 0.270965 0.910951 0.108520
H117  H     H_    0.584595 0.141782 0.907168 0.175488
O64   O     O_3   0.241626 0.274924 0.881111 -0.592908
C118  C     C_3   0.269724 0.317445 0.815578 0.023763
H118  H     H_    0.243543 0.404346 0.802437 0.139833
H119  H     H_    0.257420 0.258646 0.768994 0.109301
C119  C     C_3   0.348872 0.342057 0.823033 -0.239304
H120  H     H_    0.357730 0.423230 0.856037 0.167478
H121  H     H_    0.376050 0.268454 0.851718 0.173350
C120  C     C_3   0.383889 0.358852 0.750720 -0.448039
H122  H     H_    0.353603 0.422467 0.716951 0.167546
H123  H     H_    0.387510 0.270673 0.722823 0.166193
H124  H     H_    0.437655 0.395146 0.758333 0.133054

loop_
_geom_bond_atom_site_label_1
_geom_bond_atom_site_label_2
_ccdc_geom_bond_type
C37   C69   S    
C94   H62   S    
C70   O14   A    
C67   O7    A    
C94   C95   S    
C116  H114  S    
C110  C111  S    
C31   C67   S    
C111  H101  S    
C47   C76   S    
C18   O62   S    
C103  C104  S    
Cr2   O42   S    
C108  H96   S    
O58   C100  S    
Cr11  O39   S    
C21   H21   S    
Cr12  O40   S    
C90   H54   S    
C11   H19   S    
C13   H29   S    
C15   H31   S    
C100  H76   S    
C58   O38   A    
C97   H70   S    
C76   C83   A    
C41   C49   D    
C101  H79   S    
C24   H24   S    
C63   O47   A    
C31   H40   S    
Cr6   O50   S    
C119  H120  S    
C17   C21   D    
C97   C98   S    
C120  H124  S    
C19   C23   D    
C92   H57   S    
C96   H66   S    
Cr8   O32   S    
C15   C27   D    
C116  H113  S    
C117  H115  S    
C14   C26   D    
C81   O53   S    
C57   O37   A    
C67   O11   A    
C60   O40   A    
C107  H93   S    
C74   C81   A    
C5    C77   A    
C115  H111  S    
C7    C79   A    
Cr1   O1    S    
C22   H22   S    
C1    C20   S    
C2    C19   S    
C111  H103  S    
C87   H45   S    
C104  H86   S    
C32   H39   S    
C47   O35   A    
Cr10  O14   S    
C14   H30   S    
C113  H107  S    
Cr2   O18   S    
Cr10  O34   S    
Cr12  O20   S    
C49   C53   S    
Cr9   O37   S    
Cr3   O23   S    
C51   C55   S    
Cr4   O24   S    
C66   O10   A    
C49   H1    S    
C91   H55   S    
C8    C10   A    
C86   H43   S    
C100  C101  S    
C73   C77   A    
C31   C36   D    
C25   H25   S    
Cr8   O52   S    
C85   H41   S    
C2    O26   A    
C114  H109  S    
C82   O54   S    
Cr6   O26   S    
Cr7   O31   S    
C96   H68   S    
C36   H36   S    
Cr3   O47   S    
C106  C107  S    
C75   C84   A    
Cr4   O48   S    
C13   C57   S    
Cr12  O16   S    
C16   C60   S    
Cr4   O4    S    
C41   H5    S    
C103  H84   S    
C56   O60   S    
O57   C97   S    
C68   O12   A    
C115  C116  S    
C62   O50   A    
C37   C53   D    
C44   C52   D    
O61   C109  S    
C3    O23   A    
C88   H49   S    
C87   H47   S    
C33   C34   S    
Cr7   O7    S    
C39   C55   D    
C50   H2    S    
Cr11  O11   S    
C92   C93   S    
C102  H82   S    
C40   C56   D    
Cr9   O17   S    
C52   H4    S    
C46   O34   A    
C45   C74   S    
C37   H9    S    
C65   O5    A    
C93   H60   S    
C83   C84   A    
C91   C92   S    
C86   C87   S    
C61   O49   A    
C112  H104  S    
C57   O1    A    
C64   O52   A    
C42   C50   D    
C29   C65   S    
C20   O64   S    
C60   O4    A    
C63   O51   A    
C118  H119  S    
C74   C78   A    
C72   O44   A    
C93   H61   S    
C21   C25   S    
Cr1   O45   S    
C40   C72   S    
C18   C22   D    
Cr5   O49   S    
C24   C28   S    
C45   O33   A    
C106  H90   S    
C94   H63   S    
C105  H87   S    
C44   C61   S    
C110  H100  S    
C9    H17   S    
C111  H102  S    
C35   H35   S    
C84   O56   S    
Cr11  O35   S    
C99   H73   S    
C108  H95   S    
C68   O8    A    
Cr3   O19   S    
C64   O48   A    
C89   H50   S    
C95   H64   S    
C98   C99   S    
C90   H53   S    
C109  H97   S    
C46   C73   S    
C17   O61   S    
C104  H85   S    
C12   H20   S    
Cr10  O10   S    
C38   C70   S    
Cr9   O13   S    
C35   C36   S    
C105  H89   S    
C102  H80   S    
C77   C78   A    
Cr9   O33   S    
C50   C54   S    
Cr4   O20   S    
C5    C11   A    
C8    H16   S    
C6    C12   A    
C119  H121  S    
C112  C113  S    
C120  H123  S    
Cr7   O51   S    
C85   C86   S    
C69   O41   A    
C71   O15   A    
C72   O16   A    
C109  C110  S    
C117  H116  S    
Cr6   O18   S    
C10   H18   S    
C3    O27   A    
C40   H12   S    
C119  C120  S    
C29   H38   S    
C1    O25   A    
Cr6   O30   S    
C107  C108  S    
Cr7   O27   S    
Cr1   O21   S    
Cr12  O12   S    
Cr5   O25   S    
C115  H112  S    
Cr4   O44   S    
C116  C117  S    
C14   C58   S    
C117  H117  S    
C90   H52   S    
C76   C80   A    
C87   H46   S    
C114  H108  S    
C29   C34   D    
C99   H75   S    
O63   C115  S    
C62   O46   A    
O55   C91   S    
C38   C54   D    
C89   C90   S    
C59   O3    A    
C2    O22   A    
C28   H28   S    
Cr6   O6    S    
C4    C17   S    
C91   H56   S    
C100  H77   S    
Cr11  O15   S    
C97   H69   S    
C53   O57   S    
C73   C82   A    
C101  H78   S    
C33   H33   S    
O64   C118  S    
C85   H42   S    
C46   O30   A    
C15   C59   S    
Cr3   O3    S    
C66   O6    A    
C61   O45   A    
C69   O13   A    
C96   H67   S    
C23   H23   S    
C106  H91   S    
C43   C51   D    
C5    H13   S    
C7    H15   S    
O53   C85   S    
C43   H7    S    
C6    C78   A    
Cr1   O41   S    
C22   C26   S    
Cr2   O46   S    
C107  H92   S    
C26   H26   S    
C41   C64   S    
C45   O29   A    
C42   C63   S    
C43   C62   S    
C16   C28   D    
C118  H118  S    
C88   H48   S    
C104  C105  S    
C81   C82   A    
C44   H8    S    
C39   H11   S    
C113  H106  S    
C59   O39   A    
C92   H58   S    
C102  H81   S    
C3    C18   S    
C71   O43   A    
C48   O36   A    
C20   C24   D    
O54   C88   S    
C86   H44   S    
C4    O28   A    
Cr9   O9    S    
C23   C27   S    
C101  C102  S    
C32   C68   S    
Cr8   O28   S    
C39   C71   S    
C6    H14   S    
C48   C75   S    
C13   C25   D    
C120  H122  S    
C42   H6    S    
C114  H110  S    
C51   H3    S    
C32   C35   D    
C27   H27   S    
C70   O42   A    
C105  H88   S    
C110  H99   S    
C55   O59   S    
C54   O58   S    
C38   H10   S    
Cr7   O19   S    
C47   O31   A    
Cr5   O17   S    
C48   O32   A    
Cr10  O18   S    
C30   H37   S    
C103  H83   S    
C99   H74   S    
C108  H94   S    
Cr8   O20   S    
Cr1   O17   S    
C16   H32   S    
Cr5   O29   S    
C30   C66   S    
Cr10  O38   S    
C89   H51   S    
C95   H65   S    
C98   H72   S    
C88   C89   S    
C109  H98   S    
C75   C79   A    
C65   O9    A    
O59   C103  S    
C9    C10   A    
C7    C9    A    
C30   C33   D    
C113  C114  S    
C11   C12   A    
Cr2   O22   S    
C95   C96   S    
O62   C112  S    
C1    O21   A    
C58   O2    A    
C93   H59   S    
C4    O24   A    
Cr5   O5    S    
C112  H105  S    
C19   O63   S    
Cr11  O19   S    
O56   C94   S    
Cr8   O8    S    
O60   C106  S    
Cr2   O2    S    
Cr3   O43   S    
C79   C80   A    
C34   H34   S    
Cr12  O36   S    
C118  C119  S    
C8    C80   A    
C98   H71   S    
C83   O55   S    
C52   C56   S    
