data_mof_unit_9237.cif
_audit_creation_date              2012-10-26T19:40:07-0400
_audit_creation_method            fapswitch 2.2
_symmetry_space_group_name_H-M    P1
_symmetry_Int_Tables_number       1
_space_group_crystal_system       triclinic
_cell_length_a                    15.017073
_cell_length_b                    8.73458
_cell_length_c                    7.508251
_cell_angle_alpha                 102.887902
_cell_angle_beta                  94.769069
_cell_angle_gamma                 93.757335
_cell_volume                      953.117618344

loop_
_atom_site_label
_atom_site_type_symbol
_atom_type_description
_atom_site_fract_x
_atom_site_fract_y
_atom_site_fract_z
_atom_type_partial_charge
Br1   Br    Br    0.880186 0.004893 0.268296 -0.443477
Br2   Br    Br    0.119814 0.995103 0.731731 -0.443474
Br3   Br    Br    0.383196 0.308476 0.903813 -0.346135
Br4   Br    Br    0.616804 0.691524 0.096187 -0.346135
C1    C     C_R   0.496191 0.200704 0.454586 0.573407
C2    C     C_R   0.179540 0.359693 0.435313 0.092502
C3    C     C_R   0.766594 0.499280 0.494754 0.022724
C4    C     C_R   0.233406 0.500719 0.505248 0.022725
C5    C     C_R   0.803578 0.357379 0.422857 0.085587
C6    C     C_R   0.196421 0.642621 0.577140 0.085589
C7    C     C_R   0.897726 0.354378 0.426525 0.067224
C8    C     C_R   0.102274 0.645621 0.573481 0.067225
C9    C     C_R   0.952747 0.498502 0.497888 -0.033777
C10   C     C_R   0.047253 0.501496 0.502121 -0.033778
C11   C     C_R   0.913534 0.640276 0.565248 0.037746
C12   C     C_R   0.503810 0.799296 0.545414 0.573408
C13   C     C_R   0.086466 0.359722 0.434763 0.037745
C14   C     C_R   0.939616 0.213763 0.362521 0.191789
C15   C     C_R   0.060384 0.786235 0.637492 0.191789
C16   C     C_R   0.032222 0.218979 0.367101 -0.039306
C17   C     C_R   0.967778 0.781018 0.632914 -0.039306
C18   C     C_2   0.482465 0.034530 0.433693 0.081162
C19   C     C_2   0.517536 0.965470 0.566307 0.081163
C20   C     C_R   0.329521 0.499930 0.501544 0.518419
C21   C     C_R   0.670479 0.500070 0.498456 0.518419
C22   C     C_R   0.820460 0.640305 0.564697 0.092499
Cu1   Cu    Cu3+1 0.510010 0.517380 0.684380 1.086771
Cu2   Cu    Cu3+1 0.489990 0.482620 0.315620 1.086772
H1    H     H_    0.061793 0.109706 0.316753 0.211663
H2    H     H_    0.295046 0.805269 0.552435 0.225753
H3    H     H_    0.459839 0.882375 0.180201 0.289109
H4    H     H_    0.372045 0.883872 0.314604 0.237049
H5    H     H_    0.540161 0.117625 0.819799 0.289108
H6    H     H_    0.627956 0.116129 0.685396 0.237051
H7    H     H_    0.938207 0.890290 0.683265 0.211663
H8    H     H_    0.745763 0.773307 0.743998 0.284618
H9    H     H_    0.735735 0.805850 0.528475 0.271684
H10   H     H_    0.254239 0.226681 0.256019 0.284615
H11   H     H_    0.264266 0.194151 0.471548 0.271685
H12   H     H_    0.703618 0.235222 0.235807 0.268120
H13   H     H_    0.704948 0.194727 0.447531 0.225757
H14   H     H_    0.296387 0.764791 0.764167 0.268120
N1    N     N_2   0.474890 0.456420 0.038520 0.009175
N2    N     N_2   0.525110 0.543580 0.961480 0.009174
N3    N     N_3   0.780820 0.785008 0.632547 -0.593867
N4    N     N_3   0.219181 0.214988 0.367473 -0.593868
N5    N     N_3   0.744859 0.217466 0.347284 -0.540342
N6    N     N_3   0.255140 0.782537 0.652693 -0.540346
N7    N     N_3   0.423494 0.951756 0.275255 -0.596465
N8    N     N_3   0.576507 0.048244 0.724745 -0.596464
O1    O     O_R   0.506510 0.286130 0.619770 -0.514755
O2    O     O_R   0.493490 0.713870 0.380230 -0.514755
O3    O     O_R   0.489600 0.256770 0.308360 -0.467899
O4    O     O_R   0.510400 0.743230 0.691640 -0.467900
O5    O     O_R   0.378710 0.514640 0.655720 -0.484135
O6    O     O_R   0.621290 0.485360 0.344280 -0.484135
O7    O     O_R   0.361800 0.485290 0.344300 -0.494343
O8    O     O_R   0.638200 0.514710 0.655700 -0.494346

loop_
_geom_bond_atom_site_label_1
_geom_bond_atom_site_label_2
_ccdc_geom_bond_type
H12   N5    S    
Cu2   O3    S    
C7    C14   A    
C17   H7    S    
C7    C9    A    
Cu2   N1    S    
C3    C21   S    
C21   O6    A    
Cu2   O2    S    
N1    N2    D    
C9    C11   A    
H13   N5    S    
Cu1   O4    S    
H8    N3    S    
H14   N6    S    
Cu2   O7    S    
C20   O5    A    
Cu1   O1    S    
C5    C7    A    
C10   C13   A    
Br3   N1    S    
Br1   C14   S    
C3    C22   A    
C6    C8    A    
H3    N7    S    
C18   N7    S    
C1    C18   S    
C8    C15   A    
C1    O3    A    
C15   C17   A    
C8    C10   A    
C5    N5    S    
C12   C19   S    
C14   C16   A    
C16   H1    S    
H11   N4    S    
C6    N6    S    
C12   O4    A    
H4    N7    S    
H10   N4    S    
H6    N8    S    
C21   O8    A    
Cu1   O5    S    
H9    N3    S    
H5    N8    S    
C11   C17   A    
C13   C16   A    
C4    C6    A    
H2    N6    S    
Cu1   Cu2   S    
C3    C5    A    
C2    C13   A    
C18   C19   D    
C1    O1    A    
C19   N8    S    
C2    C4    A    
C2    N4    S    
C22   N3    S    
C4    C20   S    
Br2   C15   S    
C9    C10   A    
Cu1   N2    S    
Cu2   O6    S    
C12   O2    A    
Br4   N2    S    
C20   O7    A    
C11   C22   A    
Cu1   O8    S    
