data_mof_unit_40292.cif
_audit_creation_date              2013-03-05T16:15:04-0500
_audit_creation_method            fapswitch 2.2
_symmetry_space_group_name_H-M    P1
_symmetry_Int_Tables_number       1
_space_group_crystal_system       triclinic
_cell_length_a                    8.466733
_cell_length_b                    17.508539
_cell_length_c                    18.84036
_cell_angle_alpha                 103.757224
_cell_angle_beta                  91.361994
_cell_angle_gamma                 98.802205
_cell_volume                      2675.55479573

loop_
_atom_site_label
_atom_site_type_symbol
_atom_site_description
_atom_site_fract_x
_atom_site_fract_y
_atom_site_fract_z
_atom_type_partial_charge
P1    P     P_3+3 0.038810 0.422920 0.331160 0.409579
O1    O     O_2   0.871520 0.445720 0.321500 -0.378723
O2    O     O_3   0.121030 0.451930 0.411150 -0.435833
O3    O     O_3   0.662190 0.593100 0.375060 -0.337871
O4    O     O_2   0.755326 0.527907 0.245135 -0.418217
O5    O     O_3   0.974707 0.318681 0.311392 -0.608209
O6    O     O_3   0.702573 0.671120 0.258808 -0.583788
C1    C     C_3   0.515055 0.744753 0.215095 -0.552797
H1    H     H_    0.451437 0.796409 0.232792 0.208224
P2    P     P_3+3 0.678260 0.686080 0.568600 0.480224
P3    P     P_3+3 0.147352 0.736705 0.422913 0.495603
O7    O     O_2   0.853880 0.696450 0.547730 -0.394788
O8    O     O_3   0.085100 0.636210 0.413950 -0.386342
O9    O     O_2   0.061442 0.783048 0.486833 -0.356864
O10   O     O_3   0.681190 0.725105 0.663775 -0.634131
O11   O     O_3   0.074040 0.757993 0.343389 -0.457002
C2    C     C_3   0.103585 0.697727 0.283182 0.535524
H2    H     H_    0.018660 0.641892 0.280324 0.151614
H3    H     H_    0.227816 0.685172 0.286580 -0.032824
C3    C     C_3   0.080631 0.723473 0.212593 -1.011896
H4    H     H_    0.955125 0.731545 0.204530 0.289632
H5    H     H_    0.160430 0.780598 0.214711 0.257508
C4    C     C_3   0.249045 0.710382 0.633444 0.392282
H6    H     H_    0.333737 0.673898 0.603311 0.079779
H7    H     H_    0.146087 0.708436 0.595315 0.118058
C5    C     C_3   0.338218 0.796330 0.660205 -0.481396
H8    H     H_    0.445499 0.795799 0.694930 0.218742
H9    H     H_    0.379847 0.818945 0.612670 0.165337
Ba1   Ba    Ba6+2 0.853800 0.535410 0.467450 1.586135
C6    C     C_3   0.100665 0.274836 0.311891 0.713635
H10   H     H_    0.210372 0.314526 0.339045 0.038624
C7    C     C_3   0.135085 0.235046 0.232586 -0.534791
H11   H     H_    0.261047 0.227571 0.232530 0.195954
H12   H     H_    0.118627 0.275508 0.196581 0.223029
C8    C     C_3   0.788523 0.695071 0.703377 0.835435
H13   H     H_    0.889666 0.675902 0.671247 0.018673
C9    C     C_3   0.857932 0.761311 0.770339 -1.022597
H14   H     H_    0.908697 0.815609 0.753078 0.240598
H15   H     H_    0.953198 0.741784 0.800038 0.241664
H16   H     H_    0.762693 0.777444 0.807984 0.276962
P4    P     P_3+3 0.150900 0.577150 0.668860 0.460429
O12   O     O_2   0.318180 0.554310 0.678550 -0.293678
O13   O     O_3   0.068680 0.548140 0.588860 -0.443766
O14   O     O_3   0.527520 0.406960 0.624950 -0.314451
O15   O     O_3   0.195674 0.681614 0.693601 -0.592577
P5    P     P_3+3 0.058628 0.260067 0.580812 0.539330
O16   O     O_3   0.608500 0.402060 0.457050 -0.419550
O17   O     O_3   0.104610 0.363860 0.586060 -0.440385
O18   O     O_2   0.176979 0.219066 0.529592 -0.268489
O19   O     O_3   0.106011 0.246753 0.667760 -0.492882
Ba2   Ba    Ba6+2 0.336030 0.464660 0.532560 1.605022
P6    P     P_3+3 0.633072 0.579940 0.280196 0.438723
C10   C     C_3   0.598755 0.726936 0.282061 0.909760
H17   H     H_    0.502413 0.704713 0.314414 -0.172530
H18   H     H_    0.419673 0.693452 0.191692 0.156081
O20   O     O_3   0.581210 0.598010 0.542960 -0.352174
C11   C     C_3   0.579273 0.281632 0.285642 0.386781
H19   H     H_    0.694623 0.308257 0.316454 0.129856
C12   C     C_3   0.600108 0.201050 0.233560 -0.037879
H20   H     H_    0.481468 0.162428 0.217913 0.120961
H21   H     H_    0.669873 0.169308 0.264312 0.105825
P7    P     P_3+3 0.512654 0.299258 0.427143 0.472832
O21   O     O_2   0.335820 0.303580 0.452320 -0.297971
O22   O     O_3   0.462645 0.262075 0.332904 -0.621488
H22   H     H_    0.108959 0.677080 0.165400 0.221934
C13   C     C_3   0.091081 0.317515 0.720179 0.542590
H23   H     H_    0.189011 0.366340 0.717094 0.134566
H24   H     H_    0.975695 0.337621 0.711134 0.040538
C14   C     C_3   0.097541 0.304130 0.797281 -0.857836
H25   H     H_    0.222277 0.309153 0.818582 0.242781
H26   H     H_    0.043767 0.350262 0.835247 0.233726
H27   H     H_    0.031098 0.244539 0.797920 0.303893
P8    P     P_3+3 0.563600 0.412585 0.718922 0.503627
C15   C     C_3   0.516417 0.255599 0.726690 1.013231
O23   O     O_2   0.462040 0.476073 0.754464 -0.334077
O24   O     O_3   0.459353 0.329886 0.746861 -0.630738
H28   H     H_    0.475729 0.144757 0.763593 0.250943
C16   C     C_3   0.425016 0.200793 0.770241 -0.883364
H29   H     H_    0.296808 0.184604 0.750700 0.253903
H30   H     H_    0.433634 0.230798 0.829543 0.239162
C17   C     C_R   0.993102 0.468398 0.047416 0.023234
C18   C     C_R   0.896898 0.430418 0.093224 -0.158505
C19   C     C_R   0.769791 0.450771 0.953704 -0.177936
C20   C     C_R   0.933473 0.473893 0.977464 0.051964
C21   C     C_R   0.715580 0.449178 0.883056 -0.048167
C22   C     C_R   0.821701 0.470351 0.832441 0.029510
C23   C     C_R   0.982200 0.504684 0.857500 -0.005804
C24   C     C_R   0.039054 0.505405 0.930110 0.031151
C25   C     C_R   0.771688 0.459054 0.757869 0.229560
C26   C     C_R   0.878068 0.489697 0.711606 -0.447982
C27   C     C_R   0.031016 0.531786 0.736294 0.193066
C28   C     C_R   0.085348 0.538303 0.810249 -0.066236
C29   C     C_R   0.155576 0.498622 0.071500 0.038020
C30   C     C_R   0.213103 0.496412 0.143286 0.011941
C31   C     C_R   0.109017 0.462923 0.190285 -0.083226
C32   C     C_R   0.954156 0.427357 0.162154 -0.015628
H31   H     H_    0.837033 0.486070 0.656197 0.175962
H32   H     H_    0.589434 0.428890 0.868268 0.161844
H33   H     H_    0.872435 0.398291 0.193696 0.206047
C33   C     C_R   0.238339 0.577802 0.839116 -0.043587
C34   C     C_R   0.296061 0.575779 0.908620 -0.187700
C35   C     C_R   0.201044 0.536867 0.954455 0.025668
C36   C     C_R   0.260954 0.530947 0.024438 0.067855
C37   C     C_R   0.424748 0.553319 0.048077 -0.226127
C38   C     C_R   0.375075 0.526962 0.167594 -0.009161
C39   C     C_R   0.480218 0.550654 0.117550 -0.187047
C40   C     C_R   0.427068 0.532871 0.241111 0.147360
C41   C     C_R   0.319453 0.504633 0.288061 -0.476586
C42   C     C_R   0.163250 0.466203 0.263574 0.201112
H34   H     H_    0.316902 0.610418 0.808368 0.194928
H35   H     H_    0.607069 0.568517 0.131717 0.176310
H36   H     H_    0.360731 0.509633 0.344044 0.180505
H37   H     H_    0.679166 0.433553 0.988640 0.129289
H38   H     H_    0.776048 0.400919 0.076831 0.132523
H39   H     H_    0.415644 0.607231 0.925741 0.143760
H40   H     H_    0.514498 0.572141 0.013419 0.134537
C43   C     C_2   0.447956 0.715313 0.478805 -0.441456
C44   C     C_3   0.369361 0.761646 0.433790 0.148149
C45   C     C_2   0.423468 0.849549 0.457199 -0.184452
C46   C     C_2   0.561723 0.879653 0.497955 0.130792
C47   C     C_2   0.646674 0.824564 0.529120 -0.197111
C48   C     C_1   0.582411 0.748214 0.519687 0.319129
C49   C     C_R   0.799969 0.132526 0.523353 -0.124423
C50   C     C_R   0.849818 0.214562 0.540838 0.257510
C51   C     C_R   0.610684 0.231098 0.472130 0.319315
C52   C     C_R   0.562685 0.148171 0.454548 -0.198413
C53   C     C_R   0.652962 0.098989 0.483056 0.128515
C54   C     C_2   0.629097 0.965939 0.512243 -0.093133
C55   C     C_2   0.593878 0.012394 0.467812 -0.055437
C56   C     C_R   0.747794 0.262708 0.520080 -0.103525
H41   H     H_    0.514797 0.987334 0.419058 0.142522
H42   H     H_    0.760023 0.848051 0.560708 0.143809
H43   H     H_    0.878199 0.095239 0.539232 0.136600
H44   H     H_    0.709638 0.991145 0.560587 0.130704
H45   H     H_    0.353174 0.887010 0.436127 0.145319
H46   H     H_    0.455686 0.122090 0.419209 0.163971
H47   H     H_    0.406582 0.651574 0.467169 0.163851
N1    N     N_R   0.690772 0.799124 0.330063 0.222528
O25   O     O_R   0.783491 0.792109 0.383257 -0.326769
O26   O     O_R   0.657887 0.869381 0.330203 -0.464194
C57   C     C_3   0.239953 0.855070 0.705302 -0.261489
C58   C     C_3   0.112468 0.876817 0.658367 -0.812487
H48   H     H_    0.167991 0.901073 0.613793 0.277624
H49   H     H_    0.020877 0.823977 0.634467 0.270545
H50   H     H_    0.052043 0.923070 0.692885 0.236308
H51   H     H_    0.185036 0.830843 0.749869 0.224907
H52   H     H_    0.322921 0.910799 0.731729 0.204940
N2    N     N_R   0.057076 0.213818 0.352764 0.217891
O27   O     O_R   0.909304 0.195511 0.368258 -0.490534
O28   O     O_R   0.160138 0.169329 0.364167 -0.389897
C59   C     C_3   0.041083 0.150641 0.200455 -0.132711
C60   C     C_3   0.056274 0.124336 0.117986 -0.815340
H53   H     H_    0.006646 0.165039 0.089596 0.300698
H54   H     H_    0.184031 0.124100 0.105911 0.249759
H55   H     H_    0.988792 0.063153 0.096576 0.247105
H56   H     H_    0.089476 0.107390 0.226117 0.208871
H57   H     H_    0.913440 0.147416 0.212107 0.238625
N3    N     N_R   0.700468 0.627413 0.725323 0.202734
O29   O     O_R   0.625351 0.569056 0.674377 -0.347457
O30   O     O_R   0.680256 0.627875 0.793750 -0.450439
C61   C     C_3   0.521778 0.344847 0.249183 -0.348665
C62   C     C_3   0.474200 0.322343 0.166718 -0.857576
H58   H     H_    0.581584 0.328927 0.134945 0.285408
H59   H     H_    0.407414 0.261089 0.147162 0.269936
H60   H     H_    0.396493 0.363595 0.154237 0.235341
H61   H     H_    0.418427 0.366014 0.277973 0.167478
H62   H     H_    0.614770 0.397953 0.259664 0.230730
N4    N     N_R   0.679788 0.208176 0.167081 0.242722
O31   O     O_R   0.622783 0.161608 0.104235 -0.399137
O32   O     O_R   0.812469 0.257187 0.170213 -0.443268
C63   C     C_3   0.623423 0.757201 0.152819 -0.268802
C64   C     C_3   0.730278 0.838712 0.169664 -0.733793
H63   H     H_    0.657271 0.887024 0.185080 0.267479
H64   H     H_    0.821788 0.844128 0.214401 0.282670
H65   H     H_    0.793724 0.846068 0.120211 0.218547
H66   H     H_    0.698068 0.709575 0.138492 0.207734
H67   H     H_    0.544883 0.752279 0.103254 0.198590
N5    N     N_R   0.687145 0.262884 0.746225 0.162405
O33   O     O_R   0.771905 0.218029 0.702967 -0.451911
O34   O     O_R   0.737981 0.289953 0.814560 -0.462135
N6    N     N_R   0.481371 0.217472 0.648622 0.211432
O35   O     O_R   0.441744 0.257709 0.603642 -0.353808
O36   O     O_R   0.485876 0.141851 0.623703 -0.419037
C65   C     C_3   0.804168 0.348124 0.540921 -0.454398
C66   C     C_3   0.911066 0.368731 0.482293 -0.422118
H68   H     H_    0.998449 0.327870 0.465833 0.227041
H69   H     H_    0.845350 0.365325 0.430645 0.223581
H70   H     H_    0.977149 0.427998 0.505971 0.288070
H71   H     H_    0.714973 0.384421 0.552001 0.255285
H72   H     H_    0.852067 0.364241 0.597942 0.146885

loop_
_geom_bond_atom_site_label_1
_geom_bond_atom_site_label_2
_geom_bond_distance
_ccdc_geom_bond_type
C13   H24   1.110509 S    
C23   C24   1.435948 A    
C30   C38   1.416213 A    
C33   H34   1.078689 S    
C52   C53   1.419896 A    
C4    O15   1.403091 S    
O7    Ba1   2.865086 S    
C35   C36   1.433792 A    
P4    O13   1.578647 S    
P4    O12   1.547567 D    
C19   H37   1.077248 S    
C31   C32   1.395688 A    
C63   C64   1.526994 S    
C54   C55   1.355501 D    
C29   C36   1.422773 A    
O16   P7    1.806819 S    
C37   C39   1.393735 A    
C61   C62   1.536855 S    
C11   H19   1.101427 S    
C49   C50   1.390145 A    
C15   N6    1.465834 S    
H28   C16   1.111599 S    
C65   C66   1.518731 S    
C38   C40   1.418398 A    
P5    O18   1.545089 D    
C5    H8    1.109234 S    
C34   C35   1.414991 A    
C15   O24   1.426721 S    
O3    P6    1.753280 S    
O1    Ba1   2.843868 S    
C59   H57   1.103558 S    
O8    Ba1   2.801432 S    
C8    C9    1.530456 S    
N2    O28   1.301169 A    
O6    P6    1.756975 S    
Ba2   O20   2.842276 S    
C9    H16   1.111155 S    
P2    O10   1.758621 S    
C6    H10   1.103723 S    
P3    O9    1.547667 D    
C16   H30   1.111241 S    
N5    O34   1.299383 A    
C11   C12   1.552559 S    
C13   C14   1.526473 S    
C32   H33   1.070753 S    
N6    O35   1.292220 A    
C2    C3    1.519639 S    
C41   C42   1.402020 A    
O2    Ba1   2.961324 S    
P1    O1    1.547260 D    
C4    C5    1.536897 S    
C14   H26   1.106594 S    
C44   C45   1.491582 S    
P7    O22   1.756599 S    
C21   H32   1.080369 S    
P1    C42   1.893192 S    
C37   H40   1.077816 S    
C51   C56   1.409177 A    
O17   Ba2   2.802052 S    
C8    H13   1.108326 S    
P6    C40   1.863869 S    
C1    H1    1.110612 S    
C40   C41   1.401968 A    
C60   H54   1.111054 S    
O4    P6    1.540323 D    
C5    C57   1.533523 S    
P2    O20   1.589121 S    
C26   H31   1.076577 S    
O3    Ba1   2.808114 S    
C26   C27   1.397370 A    
C1    C63   1.541941 S    
O12   Ba2   2.844444 S    
C46   C54   1.488539 S    
N4    O32   1.295977 A    
C13   H23   1.109341 S    
C59   C60   1.526452 S    
C52   H46   1.082894 S    
C12   H20   1.111938 S    
C23   C28   1.424949 A    
Ba1   O13   2.833278 S    
N3    O30   1.302807 A    
P8    O23   1.545736 D    
C58   H50   1.110221 S    
P5    C50   1.883561 S    
C30   C31   1.424925 A    
C1    H18   1.107283 S    
O10   C8    1.399900 S    
C64   H64   1.108224 S    
C17   C18   1.411064 A    
C62   H59   1.105544 S    
C39   H35   1.080016 S    
N6    O36   1.302122 A    
P5    O17   1.777638 S    
C12   H21   1.109416 S    
C18   C32   1.391241 A    
C10   N1    1.464173 S    
N5    O33   1.300726 A    
C3    H22   1.110914 S    
Ba2   O21   2.865287 S    
N2    O27   1.300937 A    
C18   H38   1.075382 S    
C31   C42   1.429948 A    
C27   C28   1.429642 A    
O2    Ba2   2.833899 S    
C22   C23   1.419644 A    
O11   C2    1.409842 S    
C66   H70   1.085870 S    
O16   Ba2   2.955564 S    
C21   C22   1.400361 A    
O5    C6    1.407209 S    
C45   H45   1.083557 S    
C41   H36   1.082345 S    
P1    O2    1.578485 S    
C7    H12   1.111630 S    
C14   H27   1.109894 S    
C43   C48   1.329518 D    
C53   C55   1.478313 S    
C9    H14   1.105852 S    
C54   H44   1.084684 S    
C62   H60   1.108457 S    
C17   C29   1.418309 A    
P3    O11   1.749620 S    
C49   C53   1.410586 A    
C19   C20   1.413323 A    
C15   N5    1.461911 S    
C60   H55   1.110360 S    
C4    H6    1.109760 S    
P7    O21   1.588624 D    
P1    Ba1   3.414120 S    
C2    H2    1.110676 S    
C50   C56   1.404738 A    
C29   C30   1.437790 A    
C59   H56   1.111194 S    
C60   H53   1.110294 S    
C63   H66   1.109038 S    
O19   C13   1.413577 S    
C47   C48   1.332074 D    
C61   H62   1.097584 S    
P2    O7    1.541962 D    
C57   H51   1.108503 S    
O14   Ba2   2.807591 S    
N4    O31   1.301115 A    
C19   C21   1.390131 A    
Ba1   O16   2.842890 S    
C51   C52   1.402572 A    
C34   H39   1.077849 S    
P8    O24   1.773719 S    
C65   H72   1.094675 S    
O6    C10   1.413211 S    
C47   H42   1.086262 S    
C10   H17   1.107977 S    
C64   H63   1.110688 S    
C36   C37   1.412947 A    
C17   C20   1.429886 A    
C46   C47   1.501333 S    
C28   C33   1.401925 A    
C11   O22   1.403032 S    
C62   H58   1.106743 S    
Ba1   Ba2   4.662823 S    
P4    C27   1.889382 S    
C16   H29   1.109685 S    
C43   H47   1.084661 S    
C20   C24   1.421463 A    
C3    H5    1.109666 S    
P2    C48   1.844647 S    
C22   C25   1.416427 A    
C1    C10   1.550377 S    
P7    C51   1.892678 S    
C24   C35   1.419016 A    
C45   C46   1.346702 D    
C64   H65   1.110370 S    
C6    N2    1.467884 S    
N1    O26   1.301533 A    
Ba1   O20   2.956425 S    
C38   C39   1.402293 A    
P5    O19   1.754355 S    
C5    H9    1.106353 S    
C7    H11   1.094181 S    
C8    N3    1.451675 S    
P8    C25   1.876253 S    
C9    H15   1.111078 S    
C56   C65   1.453232 S    
C57   C58   1.527247 S    
C6    C7    1.546114 S    
P3    O8    1.724192 S    
P2    Ba1   3.426845 S    
O13   Ba2   2.962184 S    
C66   H68   1.105772 S    
N3    O29   1.294366 A    
C7    C59   1.541253 S    
C33   C34   1.397057 A    
C2    H3    1.110408 S    
P4    Ba2   3.414810 S    
C58   H49   1.107118 S    
C4    H7    1.107506 S    
O14   P8    1.766268 S    
C14   H25   1.103988 S    
C66   H69   1.093855 S    
N1    O25   1.298608 A    
C57   H52   1.111738 S    
C61   H61   1.106106 S    
C11   C61   1.563457 S    
C3    H4    1.104873 S    
C49   H43   1.081776 S    
C15   C16   1.539571 S    
P1    O5    1.768644 S    
P4    O15   1.755046 S    
C58   H48   1.110824 S    
C63   H67   1.111897 S    
C25   C26   1.403794 A    
C43   C44   1.511889 S    
P3    C44   1.858447 S    
C65   H71   1.053107 S    
C12   N4    1.458827 S    
C55   H41   1.083384 S    
