data_mof_unit_32028.cif
_audit_creation_date              2012-12-11T14:40:06-0500
_audit_creation_method            fapswitch 2.2
_symmetry_space_group_name_H-M    P1
_symmetry_Int_Tables_number       1
_space_group_crystal_system       triclinic
_cell_length_a                    19.604297
_cell_length_b                    10.878342
_cell_length_c                    19.451352
_cell_angle_alpha                 89.907583
_cell_angle_beta                  97.336529
_cell_angle_gamma                 89.772808
_cell_volume                      4114.23662977

loop_
_atom_site_label
_atom_site_type_symbol
_atom_type_description
_atom_site_fract_x
_atom_site_fract_y
_atom_site_fract_z
_atom_type_partial_charge
C1    C     C_R   0.726050 0.950219 0.360221 0.541527
C2    C     C_R   0.292891 0.001054 0.633474 0.540154
C3    C     C_R   0.206329 0.502797 0.365737 0.555383
C4    C     C_R   0.789823 0.492667 0.632327 0.526344
C5    C     C_3   0.687477 0.369192 0.492058 -0.136932
C6    C     C_3   0.301603 0.416007 0.518167 -0.122289
C7    C     C_3   0.229884 0.842907 0.487117 -0.120789
C8    C     C_3   0.777629 0.802982 0.516369 -0.115769
C9    C     C_3   0.737956 0.365028 0.438254 0.053344
C10   C     C_3   0.247662 0.414700 0.568720 0.057298
C11   C     C_3   0.252903 0.920921 0.428644 0.056345
C12   C     C_3   0.753363 0.898155 0.566538 0.059186
C13   C     C_3   0.761580 0.496842 0.454788 -0.110849
C14   C     C_3   0.220238 0.541047 0.544257 -0.143006
C15   C     C_3   0.226767 0.038061 0.459979 -0.131481
C16   C     C_3   0.786502 0.002235 0.530276 -0.131371
C17   C     C_3   0.818987 0.444768 0.508733 -0.130930
C18   C     C_3   0.167904 0.476569 0.489545 -0.132253
C19   C     C_3   0.299341 0.054270 0.501481 -0.150894
C20   C     C_3   0.717161 0.018675 0.483343 -0.115591
C21   C     C_3   0.795149 0.312583 0.491431 -0.112863
C22   C     C_3   0.195669 0.349652 0.514831 -0.100841
C23   C     C_3   0.324918 0.936187 0.468635 -0.112135
C24   C     C_3   0.684508 0.913653 0.520777 -0.110953
C25   C     C_3   0.745039 0.317516 0.546331 -0.110863
C26   C     C_3   0.249591 0.352062 0.463948 -0.113961
C27   C     C_3   0.302225 0.857617 0.527560 -0.110261
C28   C     C_3   0.708356 0.819165 0.469778 -0.118313
C29   C     C_3   0.768976 0.449139 0.562790 0.056817
C30   C     C_3   0.221704 0.477664 0.439200 0.049477
C31   C     C_3   0.277005 0.974811 0.559703 0.051859
C32   C     C_3   0.741066 0.923271 0.433072 0.058263
C33   C     C_3   0.531597 0.263755 0.977533 -0.026325
C34   C     C_3   0.473509 0.277445 0.022780 -0.007864
C35   C     C_3   0.031594 0.763760 0.977534 -0.026126
C36   C     C_3   0.973506 0.777442 0.022780 -0.007828
C37   C     C_3   0.563777 0.157120 0.023285 -0.129725
C38   C     C_3   0.429337 0.183368 0.977849 -0.147261
C39   C     C_3   0.063777 0.657126 0.023285 -0.129691
C40   C     C_3   0.929337 0.683362 0.977849 -0.147381
C41   C     C_3   0.504661 0.171691 0.068874 0.059760
C42   C     C_3   0.488702 0.169882 0.932778 0.013909
C43   C     C_3   0.004661 0.671689 0.068874 0.059622
C44   C     C_3   0.988702 0.669884 0.932778 0.014075
C45   C     C_R   0.533944 0.180010 0.337129 0.544575
C46   C     C_R   0.436386 0.183733 0.651665 0.532272
C47   C     C_R   0.033744 0.680057 0.337056 0.544826
C48   C     C_R   0.935350 0.683921 0.651657 0.538481
C49   C     C_3   0.461463 0.077475 0.024400 -0.017548
C50   C     C_3   0.519044 0.063332 0.978244 -0.022088
C51   C     C_3   0.961466 0.577470 0.024399 -0.017838
C52   C     C_3   0.019048 0.563336 0.978243 -0.022160
C53   C     C_1   0.758197 0.409008 0.899992 0.030135
C54   C     C_1   0.238661 0.423443 0.096642 0.054306
C55   C     C_1   0.258199 0.909017 0.899995 0.030338
C56   C     C_1   0.738660 0.923447 0.096640 0.056264
C57   C     C_1   0.735173 0.358723 0.026029 -0.015755
C58   C     C_1   0.254597 0.405531 0.966331 0.008903
C59   C     C_1   0.235175 0.858737 0.026032 -0.015733
C60   C     C_1   0.754597 0.905532 0.966330 0.008664
C61   C     C_1   0.746039 0.382945 0.957238 0.001682
C62   C     C_1   0.248100 0.412844 0.037207 0.037322
C63   C     C_1   0.246041 0.882958 0.957241 0.001561
C64   C     C_1   0.748100 0.912846 0.037205 0.037702
C65   C     C_1   0.728024 0.338769 0.085480 0.012386
C66   C     C_1   0.258345 0.392890 0.905669 0.016483
C67   C     C_1   0.228026 0.838780 0.085482 0.014015
C68   C     C_1   0.758345 0.892890 0.905669 0.016550
C69   C     C_R   0.726315 0.316193 0.368728 0.545737
C70   C     C_R   0.260014 0.365101 0.638560 0.535959
C71   C     C_R   0.240809 0.868942 0.359610 0.550717
C72   C     C_R   0.760156 0.865162 0.638737 0.532450
C73   C     C_R   0.722286 0.952058 0.164039 0.544627
C74   C     C_R   0.277550 0.950677 0.835585 0.560418
C75   C     C_R   0.222288 0.452051 0.164044 0.553115
C76   C     C_R   0.777548 0.450672 0.835582 0.559160
C77   C     C_R   0.528117 0.178846 0.142065 0.595202
C78   C     C_R   0.470010 0.178287 0.859020 0.597414
C79   C     C_R   0.028117 0.678846 0.142065 0.596187
C80   C     C_R   0.970010 0.678288 0.859020 0.597347
C81   C     C_R   0.722298 0.310340 0.156244 0.554467
C82   C     C_R   0.264252 0.359856 0.835881 0.545641
C83   C     C_R   0.222300 0.810344 0.156244 0.552218
C84   C     C_R   0.764252 0.859854 0.835881 0.544361
C85   C     C_1   0.456158 0.176029 0.583690 -0.022250
C86   C     C_1   0.505135 0.172038 0.400707 -0.008147
C87   C     C_1   0.953446 0.676783 0.582853 -0.023158
C88   C     C_1   0.003693 0.672402 0.400101 -0.010199
C89   C     C_1   0.487239 0.169767 0.457469 -0.054868
C90   C     C_1   0.470484 0.171611 0.525518 -0.060396
C91   C     C_1   0.984724 0.670657 0.456485 -0.055863
C92   C     C_1   0.967298 0.672760 0.524421 -0.062575
C93   C     C_3   0.711488 0.501991 0.510115 -0.121885
C94   C     C_3   0.273984 0.543020 0.492052 -0.126147
C95   C     C_3   0.204629 0.960369 0.519871 -0.101789
C96   C     C_3   0.810219 0.908077 0.478494 -0.122640
Cr1   Cr    Cr6+3 0.765830 0.160660 0.268180 1.048779
Cr2   Cr    Cr6+3 0.234170 0.160660 0.731820 1.049416
Cr3   Cr    Cr6+3 0.265830 0.660660 0.268180 1.049962
Cr4   Cr    Cr6+3 0.734170 0.660660 0.731820 1.051664
Cr5   Cr    Cr6+3 0.612110 0.009150 0.248770 1.048520
Cr6   Cr    Cr6+3 0.387890 0.009150 0.751230 1.022893
Cr7   Cr    Cr6+3 0.112110 0.509150 0.248770 1.048310
Cr8   Cr    Cr6+3 0.887890 0.509150 0.751230 1.023416
Cr9   Cr    Cr6+3 0.615930 0.324050 0.248450 1.062909
Cr10  Cr    Cr6+3 0.384070 0.324050 0.751550 1.046452
Cr11  Cr    Cr6+3 0.115930 0.824050 0.248450 1.057774
Cr12  Cr    Cr6+3 0.884070 0.824050 0.751550 1.046934
H1    H     H_    0.633400 0.337022 0.483178 0.119716
H2    H     H_    0.356642 0.390851 0.531462 0.121796
H3    H     H_    0.198232 0.759078 0.477837 0.105541
H4    H     H_    0.803488 0.715009 0.532760 0.090161
H5    H     H_    0.677249 0.578943 0.521059 0.129161
H6    H     H_    0.306927 0.619535 0.478568 0.130462
H7    H     H_    0.155552 0.969865 0.542263 0.133927
H8    H     H_    0.861078 0.904317 0.459189 0.125949
H9    H     H_    0.767881 0.568859 0.415608 0.131497
H10   H     H_    0.209033 0.616928 0.579277 0.125312
H11   H     H_    0.194114 0.107753 0.429748 0.121138
H12   H     H_    0.818581 0.073982 0.558785 0.115806
H13   H     H_    0.327619 0.141847 0.509634 0.097319
H14   H     H_    0.691014 0.106446 0.466963 0.098861
H15   H     H_    0.873304 0.475015 0.517070 0.119459
H16   H     H_    0.112903 0.501593 0.475985 0.122048
H17   H     H_    0.829878 0.235791 0.481323 0.129394
H18   H     H_    0.163413 0.269220 0.524339 0.134478
H19   H     H_    0.373995 0.926929 0.446205 0.134258
H20   H     H_    0.633454 0.917528 0.539695 0.128874
H21   H     H_    0.738526 0.246145 0.585795 0.129559
H22   H     H_    0.262483 0.280046 0.427466 0.129307
H23   H     H_    0.333293 0.784273 0.556518 0.133775
H24   H     H_    0.676747 0.745601 0.442319 0.121743
H25   H     H_    0.619256 0.145557 0.042638 0.116257
H26   H     H_    0.373925 0.193542 0.957824 0.122747
H27   H     H_    0.119256 0.645569 0.042638 0.116123
H28   H     H_    0.873924 0.693530 0.957824 0.122785
O1    O     O_R   0.783230 0.287800 0.346510 -0.501056
O2    O     O_R   0.216770 0.287800 0.653490 -0.525732
O3    O     O_R   0.283230 0.787800 0.346510 -0.524135
O4    O     O_R   0.716770 0.787800 0.653490 -0.522993
O5    O     O_R   0.554500 0.081650 0.170370 -0.498074
O6    O     O_R   0.445500 0.081650 0.829630 -0.520061
O7    O     O_R   0.054500 0.581650 0.170370 -0.498339
O8    O     O_R   0.945500 0.581650 0.829630 -0.519801
O9    O     O_R   0.545430 0.285140 0.163100 -0.481454
O10   O     O_R   0.454570 0.285140 0.836900 -0.462375
O11   O     O_R   0.045430 0.785140 0.163100 -0.480716
O12   O     O_R   0.954570 0.785140 0.836900 -0.463039
O13   O     O_R   0.677850 0.374730 0.185500 -0.481927
O14   O     O_R   0.322150 0.374730 0.814500 -0.507033
O15   O     O_R   0.177850 0.874730 0.185500 -0.487688
O16   O     O_R   0.822150 0.874730 0.814500 -0.508220
O17   O     O_3   0.664630 0.164620 0.255130 -0.315756
O18   O     O_3   0.335370 0.164620 0.744870 -0.305049
O19   O     O_3   0.164630 0.664620 0.255130 -0.319540
O20   O     O_3   0.835370 0.664620 0.744870 -0.301843
O21   O     O_R   0.760130 0.037060 0.338610 -0.517680
O22   O     O_R   0.239870 0.037060 0.661390 -0.497617
O23   O     O_R   0.260130 0.537060 0.338610 -0.494557
O24   O     O_R   0.739870 0.537060 0.661390 -0.492866
O25   O     O_R   0.666620 0.921370 0.332440 -0.510895
O26   O     O_R   0.333380 0.921370 0.667560 -0.514826
O27   O     O_R   0.166620 0.421370 0.332440 -0.508210
O28   O     O_R   0.833380 0.421370 0.667560 -0.512413
O29   O     O_R   0.557170 0.082420 0.312350 -0.492686
O30   O     O_R   0.442830 0.082420 0.687650 -0.497089
O31   O     O_R   0.057170 0.582420 0.312350 -0.509887
O32   O     O_R   0.942830 0.582420 0.687650 -0.496704
O33   O     O_R   0.548310 0.285980 0.316250 -0.506415
O34   O     O_R   0.451690 0.285980 0.683750 -0.485138
O35   O     O_R   0.048310 0.785980 0.316250 -0.497462
O36   O     O_R   0.951690 0.785980 0.683750 -0.482270
O37   O     O_R   0.680520 0.375500 0.327470 -0.488619
O38   O     O_R   0.319480 0.375500 0.672530 -0.518029
O39   O     O_R   0.180520 0.875500 0.327470 -0.497576
O40   O     O_R   0.819480 0.875500 0.672530 -0.517090
O41   O     O_R   0.780350 0.286970 0.193350 -0.459822
O42   O     O_R   0.219650 0.286970 0.806650 -0.484950
O43   O     O_R   0.280350 0.786970 0.193350 -0.467394
O44   O     O_R   0.719650 0.786970 0.806650 -0.485612
O45   O     O_R   0.757460 0.036290 0.196640 -0.508264
O46   O     O_R   0.242540 0.036290 0.803360 -0.469607
O47   O     O_R   0.257460 0.536290 0.196640 -0.502525
O48   O     O_R   0.742540 0.536290 0.803360 -0.469345
O49   O     O_R   0.663740 0.920540 0.179290 -0.492317
O50   O     O_R   0.336260 0.920540 0.820710 -0.520157
O51   O     O_R   0.163740 0.420540 0.179290 -0.489780
O52   O     O_R   0.836260 0.420540 0.820710 -0.520611
C97   C     C_2   0.572239 0.369077 0.954559 0.226295
H29   H     H_    0.593038 0.436990 0.992182 0.114924
O53   O     O_2   0.582285 0.379271 0.894213 -0.475921
C98   C     C_2   0.443216 0.396941 0.042857 0.235737
H30   H     H_    0.429681 0.466880 0.003631 0.102805
O54   O     O_2   0.432321 0.415499 0.102317 -0.471323
C99   C     C_2   0.072235 0.869087 0.954564 0.226349
H31   H     H_    0.093034 0.936995 0.992189 0.114956
O55   O     O_2   0.082279 0.879288 0.894218 -0.475963
C100  C     C_2   0.943208 0.896932 0.042861 0.235669
H32   H     H_    0.929672 0.966874 0.003635 0.102883
O56   O     O_2   0.932310 0.915482 0.102320 -0.472417
C101  C     C_2   0.421211 0.976162 0.051896 0.240907
H33   H     H_    0.427319 0.882351 0.034869 0.105100
O57   O     O_2   0.380580 0.999088 0.092728 -0.477460
C102  C     C_2   0.541404 0.943215 0.951109 0.234771
H34   H     H_    0.505196 0.888823 0.917108 0.119689
O58   O     O_2   0.599763 0.905385 0.967447 -0.506100
C103  C     C_2   0.921219 0.476147 0.051890 0.241274
H35   H     H_    0.927314 0.382344 0.034844 0.104960
O59   O     O_2   0.880607 0.499051 0.092741 -0.476093
C104  C     C_2   0.041410 0.443223 0.951105 0.234898
H36   H     H_    0.005201 0.388825 0.917109 0.119726
O60   O     O_2   0.099772 0.405403 0.967435 -0.506167

loop_
_geom_bond_atom_site_label_1
_geom_bond_atom_site_label_2
_ccdc_geom_bond_type
C58   C62   S    
Cr9   O17   S    
Cr2   O18   S    
C67   C83   S    
Cr10  O14   S    
Cr3   O23   S    
C17   C29   S    
C101  H33   S    
C14   C18   S    
C19   C23   S    
C35   C36   S    
C8    C96   S    
C44   C80   S    
C75   O47   A    
C2    O26   A    
C94   H6    S    
C9    C21   S    
C38   C49   S    
Cr11  O35   S    
C10   C22   S    
C15   C19   S    
C40   H28   S    
Cr6   O50   S    
Cr9   O33   S    
Cr2   O2    S    
C33   C42   S    
C23   H19   S    
C16   C20   S    
C9    C69   S    
C38   C42   S    
C78   O6    A    
C15   C95   S    
C11   C71   S    
C13   H9    S    
C22   H18   S    
C66   C82   S    
Cr12  O12   S    
C43   C79   S    
C71   O39   A    
C7    C27   S    
C33   C97   S    
C41   C49   S    
C97   O53   D    
C9    C13   S    
C39   H27   S    
Cr7   O27   S    
Cr4   O4    S    
C59   C67   T    
C48   O36   A    
C55   C74   S    
C53   C61   T    
C17   H15   S    
C79   O7    A    
C24   H20   S    
C12   C16   S    
C95   H7    S    
C6    C94   S    
C55   C63   T    
Cr4   O48   S    
C102  H34   S    
C56   C64   T    
C100  H32   S    
C18   C30   S    
C80   O8    A    
C23   C27   S    
Cr2   O42   S    
C18   C22   S    
C24   C28   S    
C73   O45   A    
Cr6   O18   S    
C20   H14   S    
C4    C29   S    
C76   O52   A    
Cr6   O6    S    
C35   C99   S    
C46   C85   S    
Cr11  O15   S    
C44   C52   S    
C72   O40   A    
C39   C52   S    
C12   C72   S    
C19   C31   S    
Cr5   O25   S    
Cr6   O30   S    
Cr9   O37   S    
C87   C92   T    
C25   C29   S    
C47   O35   A    
C6    H2    S    
Cr3   O3    S    
C34   C41   S    
C11   C15   S    
C101  O57   D    
Cr5   O49   S    
Cr1   O1    S    
C73   O49   A    
C29   C93   S    
C58   C66   T    
C7    C11   S    
C83   O15   A    
C69   O1    A    
Cr8   O52   S    
C49   C101  S    
C16   C96   S    
C52   C104  S    
C27   C31   S    
C103  H35   S    
C68   C84   S    
C20   C24   S    
C36   C40   S    
Cr7   O51   S    
C10   C14   S    
C91   C92   S    
Cr12  O16   S    
C79   O11   A    
C54   C62   T    
Cr10  O18   S    
Cr11  O11   S    
C69   O37   A    
C33   C37   S    
C27   H23   S    
C46   O34   A    
Cr3   O19   S    
C2    C31   S    
C28   H24   S    
C98   O54   D    
Cr3   O43   S    
Cr2   O46   S    
C3    C30   S    
C35   C39   S    
C5    C9    S    
Cr8   O32   S    
C47   O31   A    
C84   O44   A    
Cr4   O24   S    
Cr1   O41   S    
Cr12  O20   S    
C88   C91   T    
C28   C32   S    
C8    C12   S    
Cr9   O9    S    
C82   O42   A    
C4    O28   A    
C33   C34   S    
Cr10  O38   S    
C48   C87   S    
C1    O21   A    
C3    O23   A    
C93   H5    S    
Cr7   O31   S    
Cr8   O20   S    
Cr1   O45   S    
C35   C44   S    
C70   O38   A    
C60   C68   T    
C82   O14   A    
C42   C50   S    
C5    C25   S    
C10   C70   S    
Cr7   O19   S    
C32   C96   S    
C102  O58   D    
C80   O12   A    
C70   O2    A    
Cr1   O17   S    
Cr12  O36   S    
C22   C26   S    
Cr5   O29   S    
C8    C28   S    
C49   C50   S    
C37   H25   S    
C59   C63   S    
C53   C76   S    
C1    C32   S    
Cr5   O17   S    
C21   H17   S    
Cr4   O44   S    
C71   O3    A    
C7    C95   S    
Cr6   O26   S    
C42   C78   S    
C14   H10   S    
C20   C32   S    
Cr7   O7    S    
C21   C25   S    
C19   H13   S    
C56   C73   S    
C46   O30   A    
Cr5   O5    S    
C34   C38   S    
Cr3   O47   S    
C84   O16   A    
C75   O51   A    
C72   O4    A    
C57   C65   T    
C86   C89   T    
C26   H22   S    
C6    C10   S    
C5    C93   S    
C85   C90   T    
C57   C61   S    
C6    C26   S    
C74   O46   A    
C3    O27   A    
C50   C102  S    
C7    H3    S    
C40   C51   S    
Cr9   O13   S    
C12   C24   S    
C104  O60   D    
C83   O43   A    
Cr10  O10   S    
C13   C17   S    
C60   C64   S    
C98   H30   S    
C16   H12   S    
C45   C86   S    
C81   O41   A    
C51   C52   S    
C30   C94   S    
C47   C88   S    
C41   C77   S    
C37   C50   S    
Cr4   O20   S    
Cr8   O28   S    
C4    O24   A    
C77   O9    A    
Cr11  O39   S    
C34   C98   S    
C43   C51   S    
C81   O13   A    
Cr12  O40   S    
C11   C23   S    
C8    H4    S    
C15   H11   S    
C51   C103  S    
C38   H26   S    
C37   C41   S    
C97   H29   S    
C36   C100  S    
C77   O5    A    
C31   C95   S    
C78   O10   A    
C1    O25   A    
C99   H31   S    
Cr2   O22   S    
C40   C44   S    
C2    O22   A    
C39   C43   S    
C18   H16   S    
C104  H36   S    
Cr10  O34   S    
C13   C93   S    
C103  O59   D    
C65   C81   S    
C96   H8    S    
C36   C43   S    
C100  O56   D    
C25   H21   S    
C5    H1    S    
C99   O55   D    
C89   C90   S    
C76   O48   A    
Cr8   O8    S    
C45   O29   A    
C48   O32   A    
C14   C94   S    
Cr11  O19   S    
C45   O33   A    
Cr1   O21   S    
C54   C75   S    
C74   O50   A    
C26   C30   S    
C17   C21   S    
