data_mof_unit_56661.cif
_audit_creation_date              2012-12-10T18:57:50-0500
_audit_creation_method            fapswitch 2.2
_symmetry_space_group_name_H-M    P1
_symmetry_Int_Tables_number       1
_space_group_crystal_system       triclinic
_cell_length_a                    10.716154
_cell_length_b                    9.933894
_cell_length_c                    8.898771
_cell_angle_alpha                 90.576882
_cell_angle_beta                  90.942
_cell_angle_gamma                 90.432996
_cell_volume                      947.097805313

loop_
_atom_site_label
_atom_site_type_symbol
_atom_type_description
_atom_site_fract_x
_atom_site_fract_y
_atom_site_fract_z
_atom_type_partial_charge
C1    C     C_R   0.260137 0.499697 0.499517 0.855624
C2    C     C_R   0.064476 0.620966 0.478774 -0.185309
C3    C     C_R   0.872472 0.500406 0.500714 -0.009825
C4    C     C_R   0.127528 0.499594 0.499285 -0.009825
C5    C     C_R   0.571279 0.075008 0.601487 0.168289
C6    C     C_R   0.428720 0.924992 0.398513 0.168288
C7    C     C_R   0.429327 0.068368 0.396947 0.056749
C8    C     C_R   0.570676 0.931632 0.603050 0.056751
C9    C     C_R   0.739862 0.500303 0.500482 0.855625
C10   C     C_R   0.499784 0.499574 0.218931 0.937991
C11   C     C_R   0.500216 0.500426 0.781069 0.937992
C12   C     C_1   0.499916 0.499388 0.065458 -0.210173
C13   C     C_1   0.500084 0.500612 0.934542 -0.210173
C14   C     C_R   0.063327 0.378624 0.520402 -0.206175
C15   C     C_R   0.936673 0.621376 0.479597 -0.206177
C16   C     C_R   0.935524 0.379033 0.521225 -0.185310
H1    H     H_    0.111372 0.284220 0.537096 0.155969
H2    H     H_    0.298233 0.203335 0.329706 0.228599
H3    H     H_    0.701794 0.796684 0.670264 0.228586
H4    H     H_    0.583386 0.823795 0.794538 0.219435
H5    H     H_    0.888628 0.715780 0.462903 0.155965
H6    H     H_    0.886607 0.284732 0.538343 0.157131
H7    H     H_    0.113393 0.715268 0.461656 0.157133
H8    H     H_    0.619570 0.124685 0.815470 0.182366
H9    H     H_    0.739685 0.121524 0.694065 0.168358
H10   H     H_    0.260315 0.878484 0.305925 0.168357
H11   H     H_    0.380438 0.875308 0.184529 0.182367
H12   H     H_    0.416644 0.176187 0.205446 0.219424
N1    N     N_R   0.500000 0.857200 0.500000 -0.110499
N2    N     N_R   0.500000 0.142800 0.500000 -0.110500
N3    N     N_3   0.646791 0.150198 0.707060 -0.389945
N4    N     N_3   0.353209 0.849802 0.292939 -0.389944
N5    N     N_3   0.356769 0.132204 0.282229 -0.486581
N6    N     N_3   0.643248 0.867796 0.717755 -0.486585
O1    O     O_R   0.316770 0.614620 0.499990 -0.606963
O2    O     O_R   0.683230 0.385380 0.500010 -0.606964
O3    O     O_R   0.683230 0.614620 0.500010 -0.644178
O4    O     O_R   0.316770 0.385380 0.499990 -0.644180
O5    O     O_R   0.500010 0.614640 0.285340 -0.591902
O6    O     O_R   0.499990 0.385360 0.714660 -0.591901
O7    O     O_R   0.499990 0.614640 0.714660 -0.633986
O8    O     O_R   0.500010 0.385360 0.285340 -0.633988
Zn1   Zn    Zn3+2 0.500000 0.653120 0.500000 0.945044
Zn2   Zn    Zn3+2 0.500000 0.346880 0.500000 0.945042

loop_
_geom_bond_atom_site_label_1
_geom_bond_atom_site_label_2
_ccdc_geom_bond_type
O3    Zn1   S    
C9    O2    A    
C6    N4    S    
O4    Zn2   S    
C6    C7    A    
C3    C9    S    
C10   O8    A    
C7    N5    S    
O7    Zn1   S    
C2    C4    A    
C15   H5    S    
C1    C4    S    
H4    N6    S    
O1    Zn1   S    
C9    O3    A    
H8    N3    S    
C7    N2    A    
C8    N6    S    
N1    Zn1   S    
H10   N4    S    
C2    C15   A    
C11   C13   S    
C14   H1    S    
N2    Zn2   S    
O8    Zn2   S    
C1    O4    A    
C8    N1    A    
C10   C12   S    
H12   N5    S    
C11   O7    A    
C4    C14   A    
C11   O6    A    
H2    N5    S    
C14   C16   A    
O2    Zn2   S    
C5    C8    A    
O6    Zn2   S    
C6    N1    A    
C3    C15   A    
C12   C13   T    
C1    O1    A    
C5    N2    A    
C2    H7    S    
O5    Zn1   S    
H11   N4    S    
H9    N3    S    
C3    C16   A    
C16   H6    S    
C10   O5    A    
C5    N3    S    
H3    N6    S    
