data_mof_unit_18368.cif
_audit_creation_date              2012-12-10T17:47:47-0500
_audit_creation_method            fapswitch 2.2
_symmetry_space_group_name_H-M    P1
_symmetry_Int_Tables_number       1
_space_group_crystal_system       triclinic
_cell_length_a                    10.650622
_cell_length_b                    10.655161
_cell_length_c                    9.9416
_cell_angle_alpha                 90.52378
_cell_angle_beta                  90.734531
_cell_angle_gamma                 92.702573
_cell_volume                      1126.81235017

loop_
_atom_site_label
_atom_site_type_symbol
_atom_type_description
_atom_site_fract_x
_atom_site_fract_y
_atom_site_fract_z
_atom_type_partial_charge
C1    C     C_R   0.507546 0.259960 0.500140 0.889956
C2    C     C_R   0.520652 0.060297 0.624169 0.031155
C3    C     C_R   0.506892 0.125139 0.501581 -0.189836
C4    C     C_R   0.257977 0.500150 0.499840 0.882308
C5    C     C_R   0.463904 0.061978 0.384608 -0.252726
C6    C     C_R   0.438492 0.934551 0.385890 0.440399
C7    C     C_R   0.454836 0.869647 0.506428 -0.230574
C8    C     C_R   0.342399 0.326537 0.135616 -0.259809
C9    C     C_R   0.267857 0.237401 0.063802 0.351753
C10   C     C_R   0.267838 0.237462 0.924125 0.366080
C11   C     C_R   0.342760 0.326075 0.856478 -0.252493
C12   C     C_3   0.878873 0.497448 0.501189 -0.058035
C13   C     C_R   0.424080 0.413037 0.926026 0.032575
C14   C     C_R   0.423607 0.413517 0.070151 0.075096
C15   C     C_R   0.570630 0.586157 0.073317 0.346537
C16   C     C_R   0.481540 0.737656 0.501090 0.934513
C17   C     C_R   0.569062 0.587897 0.928764 0.461118
C18   C     C_R   0.742159 0.499571 0.500634 0.933915
C19   C     C_3   0.073618 0.520586 0.647812 0.269402
C20   C     C_3   0.930986 0.505262 0.647594 -0.402509
C21   C     C_3   0.075215 0.604837 0.409129 -0.440565
C22   C     C_3   0.066831 0.369048 0.448214 0.244530
C23   C     C_3   0.932585 0.612665 0.422134 -0.477695
C24   C     C_3   0.121449 0.499175 0.501224 -0.072465
C25   C     C_3   0.749344 0.706987 0.874250 -0.137060
C26   C     C_3   0.160951 0.177103 0.480066 -0.107703
C27   C     C_3   0.816540 0.180507 0.392879 -0.195333
C28   C     C_3   0.921590 0.374612 0.432821 0.349482
C29   C     C_R   0.576895 0.114625 0.742491 -0.172008
C30   C     C_R   0.558872 0.057769 0.867121 0.399673
C31   C     C_R   0.486849 0.945857 0.874637 -0.079483
C32   C     C_R   0.443925 0.885126 0.756895 -0.054983
C33   C     C_R   0.471951 0.936783 0.629464 0.015941
Cl1   Cl    Cl    0.124560 0.672000 0.716703 -0.626434
Cl2   Cl    Cl    0.621662 0.129656 0.014300 -0.620313
Cl3   Cl    Cl    0.375522 0.862835 0.237531 -0.531850
Cl4   Cl    Cl    0.661112 0.700272 0.165181 -0.578296
Cl5   Cl    Cl    0.172491 0.126957 0.150071 -0.586030
Cl6   Cl    Cl    0.171592 0.128451 0.831678 -0.504193
H1    H     H_    0.898640 0.382283 0.322937 0.058832
H2    H     H_    0.332612 0.325676 0.749853 0.239185
H3    H     H_    0.901178 0.419219 0.703883 0.219983
H4    H     H_    0.892800 0.585821 0.700269 0.197207
H5    H     H_    0.122538 0.697253 0.435691 0.255941
H6    H     H_    0.910777 0.701198 0.475497 0.236630
H7    H     H_    0.104671 0.352374 0.345356 0.066361
H8    H     H_    0.787383 0.740876 0.777286 0.180521
H9    H     H_    0.796484 0.620000 0.903945 0.135589
H10   H     H_    0.773106 0.784214 0.946886 0.237088
H11   H     H_    0.095501 0.120681 0.413522 0.210134
H12   H     H_    0.098170 0.584245 0.302450 0.209725
H13   H     H_    0.195480 0.113128 0.557787 0.220844
H14   H     H_    0.244550 0.213765 0.424910 0.119490
H15   H     H_    0.893329 0.154150 0.324945 0.191327
H16   H     H_    0.738381 0.218689 0.333073 0.187751
H17   H     H_    0.780069 0.093921 0.443035 0.199034
H18   H     H_    0.889936 0.616124 0.319575 0.239374
H19   H     H_    0.447014 0.111721 0.292072 0.234787
H20   H     H_    0.635006 0.200547 0.739757 0.207157
H21   H     H_    0.467679 0.903474 0.970991 0.237851
H22   H     H_    0.387739 0.798586 0.766792 0.224358
H23   H     H_    0.110521 0.449274 0.717320 0.181030
H24   H     H_    0.333072 0.326867 0.242021 0.213239
N1    N     N_R   0.498810 0.498800 0.142780 -0.140643
N2    N     N_R   0.498760 0.498720 0.857170 -0.152589
O1    O     O_R   0.500000 0.316780 0.614690 -0.645077
O2    O     O_3   0.097809 0.274794 0.542321 -0.572365
O3    O     O_3   0.859918 0.267966 0.492419 -0.586837
O4    O     O_R   0.499990 0.316750 0.385360 -0.642735
O5    O     O_R   0.314800 0.499990 0.614670 -0.615200
O6    O     O_R   0.314790 0.499970 0.385330 -0.649754
O7    O     O_R   0.500010 0.683250 0.614640 -0.586973
O8    O     O_R   0.500000 0.683220 0.385310 -0.511635
O9    O     O_R   0.685210 0.500030 0.614670 -0.612490
O10   O     O_R   0.685200 0.500010 0.385330 -0.596381
O11   O     O_3   0.617967 0.690445 0.858729 -0.603849
Zn1   Zn    Zn3+2 0.500010 0.500020 0.653130 0.996286
Zn2   Zn    Zn3+2 0.499990 0.499980 0.346870 1.022765

loop_
_geom_bond_atom_site_label_1
_geom_bond_atom_site_label_2
_ccdc_geom_bond_type
C18   O10   A    
C23   H6    S    
C19   C20   S    
C16   O7    A    
C4    O5    A    
C27   H15   S    
C13   N2    A    
C12   C23   S    
O7    Zn1   S    
C30   Cl2   S    
C12   C28   S    
C2    C29   A    
C26   O2    S    
C28   O3    S    
C32   H22   S    
C26   H11   S    
C30   C31   A    
C4    C24   S    
C27   H16   S    
C28   H1    S    
C19   H23   S    
C15   C17   A    
C15   Cl4   S    
C27   O3    S    
C29   H20   S    
C8    C9    A    
O9    Zn1   S    
C17   O11   S    
O8    Zn2   S    
C9    C10   A    
C25   H8    S    
C18   O9    A    
C22   C28   S    
C13   C14   A    
O5    Zn1   S    
C7    C33   A    
O4    Zn2   S    
C19   C24   S    
N2    Zn1   S    
C16   O8    A    
C27   H17   S    
C1    O4    A    
C10   Cl6   S    
C1    C3    S    
C31   H21   S    
C29   C30   A    
C26   H13   S    
C21   H5    S    
C31   C32   A    
C15   N1    A    
C14   N1    A    
C12   C20   S    
C1    O1    A    
C25   H9    S    
C5    H19   S    
C2    C33   A    
C7    C16   S    
C22   H7    S    
C21   C23   S    
C22   C24   S    
C26   H14   S    
C21   H12   S    
C20   H4    S    
C23   H18   S    
O1    Zn1   S    
C8    C14   A    
N1    Zn2   S    
C3    C5    A    
C19   Cl1   S    
C20   H3    S    
C6    C7    A    
C17   N2    A    
C25   O11   S    
C32   C33   A    
C2    C3    A    
C11   C13   A    
C5    C6    A    
C9    Cl5   S    
C6    Cl3   S    
C11   H2    S    
O6    Zn2   S    
O10   Zn2   S    
C25   H10   S    
C22   O2    S    
C10   C11   A    
C8    H24   S    
C21   C24   S    
C12   C18   S    
C4    O6    A    
