data_mof_unit_39208.cif
_audit_creation_date              2012-12-11T15:39:35-0500
_audit_creation_method            fapswitch 2.2
_symmetry_space_group_name_H-M    P1
_symmetry_Int_Tables_number       1
_space_group_crystal_system       triclinic
_cell_length_a                    17.357906
_cell_length_b                    24.272237
_cell_length_c                    14.942556
_cell_angle_alpha                 89.902456
_cell_angle_beta                  125.293298
_cell_angle_gamma                 90.059798
_cell_volume                      5138.43353259

loop_
_atom_site_label
_atom_site_type_symbol
_atom_type_description
_atom_site_fract_x
_atom_site_fract_y
_atom_site_fract_z
_atom_type_partial_charge
C1    C     C_R   0.354217 0.347389 0.909312 -0.140972
C2    C     C_R   0.437046 0.499631 0.633842 0.064284
C3    C     C_R   0.188716 0.863799 0.999674 0.053807
C4    C     C_R   0.976465 0.999108 0.303886 0.063977
C5    C     C_R   0.924937 0.998747 0.629453 0.076596
C6    C     C_R   0.174998 0.501037 0.720602 0.068527
C7    C     C_R   0.803883 0.501303 0.364476 0.064642
C8    C     C_R   0.674412 0.001384 0.684682 0.077748
C9    C     C_R   0.297830 0.002034 0.367748 0.080776
C10   C     C_R   0.025719 0.553364 0.609771 0.082164
C11   C     C_R   0.931445 0.553819 0.523887 0.103463
C12   C     C_R   0.526136 0.053801 0.591455 0.079899
C13   C     C_R   0.645024 0.347554 0.091239 -0.126382
C14   C     C_R   0.429495 0.055230 0.519640 0.105285
C15   C     C_R   0.072767 0.503744 0.658866 0.046123
C16   C     C_R   0.883826 0.503887 0.479211 0.033800
C17   C     C_R   0.573537 0.003498 0.628776 0.052062
C18   C     C_R   0.379490 0.005451 0.480146 0.032660
C19   C     C_R   0.018400 0.455688 0.632800 -0.198384
C20   C     C_R   0.923869 0.455611 0.542115 -0.193497
C21   C     C_R   0.521348 0.955842 0.614009 -0.197907
C22   C     C_R   0.423455 0.956857 0.539342 -0.197808
C23   C     C_3   0.943314 0.602816 0.471077 -0.244545
C24   C     C_R   0.815213 0.869597 0.908785 -0.131946
C25   C     C_3   0.047816 0.601264 0.563693 -0.240894
C26   C     C_3   0.433392 0.105341 0.462206 -0.242913
C27   C     C_3   0.540073 0.103106 0.541384 -0.245155
C28   C     C_R   0.301074 0.771461 0.906344 -0.228815
C29   C     C_R   0.698870 0.769894 0.094398 -0.228254
C30   C     C_R   0.662382 0.187998 0.907167 -0.228610
C31   C     C_R   0.345248 0.180455 0.092466 -0.227828
C32   C     C_R   0.603454 0.227128 0.906190 0.036539
C33   C     C_R   0.397604 0.224747 0.094528 0.039071
C34   C     C_R   0.254360 0.818545 0.905096 0.035065
C35   C     C_R   0.190330 0.877100 0.091470 -0.137151
C36   C     C_R   0.750983 0.813891 0.096011 0.035094
C37   C     C_R   0.637079 0.257003 0.003073 0.127104
C38   C     C_R   0.360204 0.256358 0.998083 0.121592
C39   C     C_R   0.263703 0.833961 0.002037 0.124357
C40   C     C_R   0.742614 0.827082 0.998715 0.128107
C41   C     C_R   0.443019 0.651677 0.091826 -0.137683
C42   C     C_R   0.556514 0.651525 0.907818 -0.128497
C43   C     C_R   0.910894 0.133993 0.092424 -0.123568
C44   C     C_R   0.097152 0.124040 0.907040 -0.130476
C45   C     C_R   0.713742 0.236249 0.103301 -0.206331
C46   C     C_R   0.381928 0.683908 0.001413 0.062094
C47   C     C_R   0.285045 0.234581 0.897779 -0.202336
C48   C     C_R   0.337276 0.810932 0.102077 -0.198643
C49   C     C_R   0.664167 0.807799 0.898257 -0.199912
C50   C     C_R   0.383690 0.764661 0.102858 -0.174643
C51   C     C_R   0.611932 0.764822 0.897060 -0.172931
C52   C     C_R   0.771780 0.197654 0.103813 -0.182729
C53   C     C_R   0.234976 0.189978 0.896186 -0.168972
C54   C     C_R   0.358413 0.741446 0.003726 0.136277
C55   C     C_R   0.638074 0.741291 0.996348 0.136409
C56   C     C_R   0.751477 0.178286 0.004320 0.146940
C57   C     C_R   0.616310 0.683775 0.998538 0.054118
C58   C     C_R   0.258630 0.167023 0.995024 0.137244
C59   C     C_R   0.370495 0.543710 0.449182 -0.013242
C60   C     C_R   0.371840 0.543166 0.355664 -0.016512
C61   C     C_R   0.869107 0.043279 0.450445 -0.016977
C62   C     C_R   0.888020 0.044042 0.370802 -0.012995
C63   C     C_R   0.407081 0.496215 0.335181 0.114386
C64   C     C_R   0.405443 0.497394 0.519455 0.112754
C65   C     C_R   0.930592 0.997282 0.360289 0.122131
C66   C     C_R   0.893061 0.995815 0.515582 0.114414
C67   C     C_R   0.419258 0.447194 0.391371 -0.199577
C68   C     C_R   0.823829 0.149963 0.002030 0.054401
C69   C     C_R   0.419900 0.447987 0.483338 -0.204308
C70   C     C_R   0.929682 0.947179 0.405870 -0.209478
C71   C     C_R   0.909090 0.946253 0.481345 -0.209085
C72   C     C_R   0.478225 0.453458 0.244981 -0.140380
C73   C     C_R   0.451934 0.454013 0.697623 -0.139039
C74   C     C_R   0.001543 0.953725 0.270616 -0.131506
C75   C     C_R   0.945048 0.953728 0.695405 -0.145227
C76   C     C_R   0.233198 0.546484 0.753092 -0.103817
C77   C     C_R   0.754041 0.546447 0.301350 -0.154757
C78   C     C_R   0.732494 0.046609 0.724699 -0.118431
C79   C     C_R   0.186710 0.137382 0.997900 0.051050
C80   C     C_R   0.249310 0.046588 0.303668 -0.174304
C81   C     C_R   0.480471 0.545556 0.249358 -0.119544
C82   C     C_R   0.454161 0.545733 0.697652 -0.120499
C83   C     C_R   0.001283 0.045308 0.271561 -0.119783
C84   C     C_R   0.946259 0.045023 0.693931 -0.135769
C85   C     C_R   0.230766 0.454271 0.747057 -0.135407
C86   C     C_R   0.756765 0.454730 0.302603 -0.121049
C87   C     C_R   0.730587 0.954865 0.721753 -0.141504
C88   C     C_R   0.253763 0.955300 0.305380 -0.137127
C89   C     C_R   0.352143 0.652373 0.909659 -0.149281
C90   C     C_R   0.447945 0.498925 0.272724 0.067627
C91   C     C_R   0.648150 0.651975 0.090691 -0.130274
C92   C     C_R   0.818232 0.133885 0.909701 -0.134933
C93   C     C_R   0.189736 0.124464 0.090860 -0.128686
C94   C     C_R   0.444347 0.347390 0.091102 -0.138896
C95   C     C_R   0.555531 0.347716 0.908797 -0.122730
C96   C     C_R   0.907643 0.867459 0.091018 -0.118887
C97   C     C_R   0.097994 0.875689 0.907929 -0.122401
C98   C     C_R   0.385313 0.314617 0.000323 0.061667
C99   C     C_R   0.612550 0.314842 0.000207 0.054599
C100  C     C_R   0.818198 0.854624 0.000114 0.053090
H1    H     H_    0.318162 0.333963 0.825349 0.085036
H2    H     H_    0.712176 0.755886 0.170911 0.109906
H3    H     H_    0.640322 0.168002 0.831138 0.108830
H4    H     H_    0.369488 0.159467 0.168436 0.107949
H5    H     H_    0.737247 0.254321 0.181153 0.113181
H6    H     H_    0.257557 0.254833 0.820479 0.113839
H7    H     H_    0.352947 0.824187 0.179864 0.114009
H8    H     H_    0.647993 0.821293 0.820281 0.110727
H9    H     H_    0.432082 0.744599 0.180766 0.107503
H10   H     H_    0.559299 0.746625 0.818651 0.107103
H11   H     H_    0.836211 0.187487 0.181796 0.110498
H12   H     H_    0.681393 0.334550 0.175555 0.083845
H13   H     H_    0.172146 0.178104 0.817975 0.108934
H14   H     H_    0.440199 0.409025 0.374336 0.118022
H15   H     H_    0.441849 0.410578 0.531354 0.119585
H16   H     H_    0.953036 0.908936 0.392381 0.118260
H17   H     H_    0.919638 0.907548 0.522705 0.116918
H18   H     H_    0.490162 0.665208 0.175797 0.080937
H19   H     H_    0.509838 0.664620 0.823434 0.081660
H20   H     H_    0.943515 0.145980 0.175986 0.084894
H21   H     H_    0.069498 0.128166 0.821625 0.091402
H22   H     H_    0.465446 0.410614 0.250466 0.094438
H23   H     H_    0.761928 0.859251 0.825217 0.084785
H24   H     H_    0.432854 0.411789 0.670900 0.086759
H25   H     H_    0.006186 0.911742 0.295397 0.083196
H26   H     H_    0.924578 0.911485 0.669972 0.083807
H27   H     H_    0.214607 0.589117 0.749308 0.106286
H28   H     H_    0.760009 0.588339 0.328517 0.120003
H29   H     H_    0.713427 0.088834 0.703104 0.102018
H30   H     H_    0.252163 0.088255 0.330518 0.121043
H31   H     H_    0.473156 0.588113 0.263700 0.105768
H32   H     H_    0.442388 0.588416 0.672986 0.102674
H33   H     H_    0.006973 0.086728 0.299946 0.096513
H34   H     H_    0.248411 0.873646 0.176629 0.095216
H35   H     H_    0.931172 0.087408 0.667582 0.101757
H36   H     H_    0.208734 0.411683 0.733859 0.095789
H37   H     H_    0.768824 0.412542 0.330920 0.084657
H38   H     H_    0.707775 0.913367 0.693353 0.084699
H39   H     H_    0.265615 0.913246 0.334382 0.083424
H40   H     H_    0.314283 0.666696 0.825922 0.084345
H41   H     H_    0.687288 0.665596 0.174903 0.088073
H42   H     H_    0.765530 0.146552 0.827026 0.082855
H43   H     H_    0.248123 0.129802 0.175653 0.094004
H44   H     H_    0.489900 0.334801 0.175563 0.103244
H45   H     H_    0.926211 0.594648 0.388140 0.155970
H46   H     H_    0.511546 0.335664 0.823896 0.103103
H47   H     H_    0.940245 0.852785 0.173059 0.097807
H48   H     H_    0.069062 0.869512 0.822705 0.109783
H49   H     H_    0.050812 0.416987 0.673288 0.125732
H50   H     H_    0.886681 0.416725 0.515102 0.121992
H51   H     H_    0.555660 0.916922 0.650913 0.122160
H52   H     H_    0.385344 0.918309 0.517710 0.121770
H53   H     H_    0.914588 0.658528 0.553534 0.119821
H54   H     H_    0.919152 0.685822 0.452904 0.108296
H55   H     H_    0.077890 0.551319 0.474695 0.132865
H56   H     H_    0.074827 0.638118 0.617850 0.139604
H57   H     H_    0.103949 0.618583 0.478282 0.109567
H58   H     H_    0.421045 0.159401 0.560785 0.115596
H59   H     H_    0.410897 0.188445 0.451923 0.110092
H60   H     H_    0.552970 0.056045 0.434609 0.130656
H61   H     H_    0.578272 0.123470 0.439143 0.107883
H62   H     H_    0.473814 0.200551 0.784081 0.108786
H63   H     H_    0.521282 0.247440 0.745572 0.084765
H64   H     H_    0.530271 0.203468 0.218329 0.103251
H65   H     H_    0.474637 0.244725 0.255142 0.088808
H66   H     H_    0.145676 0.822243 0.744869 0.085335
H67   H     H_    0.406770 0.098929 0.375099 0.148757
H68   H     H_    0.238681 0.862664 0.781055 0.113318
H69   H     H_    0.860513 0.815141 0.256150 0.081083
H70   H     H_    0.773106 0.860159 0.220944 0.120729
H71   H     H_    0.264131 0.596508 0.407153 0.101548
H72   H     H_    0.373457 0.625243 0.480660 0.088317
H73   H     H_    0.378064 0.624316 0.327529 0.089166
H74   H     H_    0.268160 0.596538 0.251087 0.108273
H75   H     H_    0.761159 0.097219 0.393126 0.103627
H76   H     H_    0.869910 0.124326 0.484062 0.087602
H77   H     H_    0.900291 0.125540 0.351221 0.081925
H78   H     H_    0.572747 0.138836 0.598120 0.136322
H79   H     H_    0.792057 0.098305 0.257696 0.116528
H80   H     H_    0.287377 0.757002 0.829975 0.108028
N1    N     N_R   0.394180 0.396910 0.943210 -0.036185
N2    N     N_R   0.474350 0.471570 0.793850 -0.039868
N3    N     N_R   0.025650 0.971570 0.206150 -0.038138
N4    N     N_R   0.974350 0.971570 0.793850 -0.037912
N5    N     N_R   0.319480 0.528420 0.793810 -0.044297
N6    N     N_R   0.680520 0.528420 0.206190 -0.040467
N7    N     N_R   0.819480 0.028420 0.793810 -0.040710
N8    N     N_R   0.180520 0.028420 0.206190 -0.038136
N9    N     N_R   0.525640 0.528390 0.206120 -0.043735
N10   N     N_R   0.474360 0.528390 0.793880 -0.042945
N11   N     N_R   0.025640 0.028390 0.206120 -0.040221
N12   N     N_R   0.605820 0.396910 0.056790 -0.039199
N13   N     N_R   0.974360 0.028390 0.793880 -0.041202
N14   N     N_R   0.319490 0.471590 0.793840 -0.041327
N15   N     N_R   0.680510 0.471590 0.206160 -0.040048
N16   N     N_R   0.819490 0.971590 0.793840 -0.036615
N17   N     N_R   0.180510 0.971590 0.206160 -0.037802
N18   N     N_R   0.394130 0.603080 0.943110 -0.037919
N19   N     N_R   0.605870 0.603080 0.056890 -0.038626
N20   N     N_R   0.894130 0.103080 0.943110 -0.039958
N21   N     N_R   0.105870 0.103080 0.056890 -0.041320
N22   N     N_R   0.450990 0.396900 0.056840 -0.039209
N23   N     N_R   0.894180 0.896910 0.943210 -0.040077
N24   N     N_R   0.549010 0.396900 0.943160 -0.041411
N25   N     N_R   0.950990 0.896900 0.056840 -0.043108
N26   N     N_R   0.049010 0.896900 0.943160 -0.045127
N27   N     N_3   0.895613 0.651845 0.473974 -0.221300
N28   N     N_3   0.106044 0.586000 0.525495 -0.204861
N29   N     N_3   0.392257 0.153961 0.477542 -0.217787
N30   N     N_3   0.586308 0.089674 0.487342 -0.206745
N31   N     N_3   0.512319 0.237263 0.807076 -0.230903
N32   N     N_3   0.486192 0.237818 0.194696 -0.232711
N33   N     N_3   0.196182 0.849061 0.805331 -0.224733
N34   N     N_R   0.105820 0.896910 0.056790 -0.042333
N35   N     N_3   0.813339 0.843331 0.196095 -0.226341
N36   N     N_3   0.334542 0.590404 0.472751 -0.227543
N37   N     N_3   0.339033 0.589593 0.282946 -0.220664
N38   N     N_3   0.827260 0.089799 0.466110 -0.225356
N39   N     N_3   0.864668 0.091279 0.301846 -0.224301
N40   N     N_R   0.450950 0.603070 0.056740 -0.036037
N41   N     N_R   0.549050 0.603070 0.943260 -0.038718
N42   N     N_R   0.950950 0.103070 0.056740 -0.040051
N43   N     N_R   0.049050 0.103070 0.943260 -0.041912
N44   N     N_R   0.525650 0.471570 0.206150 -0.041039
Ni1   Ni    Ni4+2 0.434860 0.434850 0.869700 0.207394
Ni2   Ni    Ni4+2 0.565140 0.434850 0.130300 0.206029
Ni3   Ni    Ni4+2 0.934860 0.934850 0.869700 0.210653
Ni4   Ni    Ni4+2 0.065140 0.934850 0.130300 0.209209
Ni5   Ni    Ni4+2 0.565130 0.565140 0.130240 0.206278
Ni6   Ni    Ni4+2 0.434870 0.565140 0.869760 0.207845
Ni7   Ni    Ni4+2 0.065130 0.065140 0.130240 0.212760
Ni8   Ni    Ni4+2 0.934870 0.065140 0.869760 0.213716

loop_
_geom_bond_atom_site_label_1
_geom_bond_atom_site_label_2
_ccdc_geom_bond_type
C88   N17   A    
C72   H22   S    
C84   H35   S    
C13   C99   A    
N7    N16   A    
C14   C18   A    
C19   C20   A    
C27   H78   S    
N5    N14   A    
C38   C98   S    
N23   Ni3   S    
C48   H7    S    
N9    N44   A    
C24   N23   A    
N6    Ni5   S    
C62   C65   A    
C15   C19   A    
N5    Ni6   S    
N23   N25   A    
C29   C36   A    
C26   C27   S    
C50   C54   A    
C13   N12   A    
N40   Ni5   S    
C60   C63   A    
N14   Ni1   S    
C83   N11   A    
H73   N37   S    
C67   H14   S    
C87   N16   A    
C79   C93   A    
C13   H12   S    
C10   C15   A    
C9    C88   A    
C4    C65   S    
C33   N32   S    
C95   C99   A    
C85   N14   A    
C81   H31   S    
C7    C86   A    
H62   N31   S    
C94   C98   A    
N4    N13   A    
C72   N44   A    
C44   H21   S    
C72   C90   A    
C42   C57   A    
N25   Ni4   S    
C32   C37   A    
C86   H37   S    
C19   H49   S    
C6    C15   S    
H53   N27   S    
H74   N37   S    
C61   C66   A    
N1    N22   A    
C47   H6    S    
C45   H5    S    
C43   C68   A    
C49   C51   A    
N8    Ni7   S    
N41   Ni6   S    
C41   C46   A    
C31   C33   A    
C70   C71   A    
C94   N22   A    
C97   N26   A    
C25   N28   S    
N34   Ni4   S    
C4    C74   A    
H54   N27   S    
C93   H43   S    
C43   H20   S    
C47   C53   A    
H79   N39   S    
H75   N38   S    
N26   N34   A    
H58   N29   S    
N12   Ni2   S    
C65   C70   A    
N16   Ni3   S    
C28   C34   A    
C59   C60   A    
H76   N38   S    
C21   C22   A    
C82   N10   A    
C30   H3    S    
C8    C78   A    
C77   N6    A    
H57   N28   S    
H77   N39   S    
C75   N4    A    
C35   H34   S    
C53   H13   S    
C49   H8    S    
C63   C67   A    
C2    C73   A    
N12   N24   A    
C40   C49   A    
H69   N35   S    
C22   H52   S    
C26   H67   S    
C80   H30   S    
C71   H17   S    
C12   C27   S    
C34   C39   A    
N6    N15   A    
C36   C40   A    
C43   N42   A    
C61   N38   S    
C2    C64   S    
N22   Ni2   S    
H55   N28   S    
C46   C89   A    
C32   N31   S    
H63   N31   S    
C59   N36   S    
H70   N35   S    
C29   C55   A    
C52   H11   S    
C70   H16   S    
C95   N24   A    
C56   C68   S    
C28   C54   A    
C30   C56   A    
C27   N30   S    
C17   C21   A    
N44   Ni2   S    
C67   C69   A    
C9    C80   A    
H68   N33   S    
C5    C75   A    
N9    Ni5   S    
C88   H39   S    
H59   N29   S    
C89   N18   A    
C86   N15   A    
C23   H45   S    
C11   C16   A    
C3    C97   A    
C66   C71   A    
C3    C35   A    
C84   N13   A    
C16   C20   A    
C73   H24   S    
C46   C54   S    
C59   C64   A    
N2    Ni1   S    
C44   N43   A    
C64   C69   A    
C14   C26   S    
C48   C50   A    
C28   H80   S    
C81   N9    A    
C38   C47   A    
C24   H23   S    
C77   H28   S    
C58   C79   S    
N19   N41   A    
C81   C90   A    
C10   C25   S    
C7    C16   S    
C12   C14   A    
N42   Ni7   S    
C50   H9    S    
C51   H10   S    
C55   C57   S    
C25   H56   S    
C41   H18   S    
C97   H48   S    
C2    C82   A    
H71   N36   S    
C87   H38   S    
C37   C45   A    
C42   N41   A    
C1    H1    S    
C37   C99   S    
C41   N40   A    
C93   N21   A    
N43   Ni8   S    
C31   C58   A    
C91   N19   A    
C5    C84   A    
C96   H47   S    
C69   H15   S    
C1    N1    A    
C57   C91   A    
N15   Ni2   S    
C23   N27   S    
C24   C100  A    
H66   N33   S    
C78   H29   S    
C44   C79   A    
N18   N40   A    
C33   C38   A    
C5    C66   S    
C34   N33   S    
N3    N11   A    
N3    Ni4   S    
C40   C100  S    
C53   C58   A    
N18   Ni6   S    
H65   N32   S    
C6    C76   A    
C74   N3    A    
C91   H41   S    
H60   N30   S    
H61   N30   S    
C8    C17   S    
C45   C52   A    
C7    C77   A    
C75   H26   S    
N1    Ni1   S    
C62   N39   S    
C8    C87   A    
N21   N43   A    
C18   C22   A    
N19   Ni5   S    
C1    C98   A    
N20   N42   A    
C36   N35   S    
H72   N36   S    
C60   N37   S    
C31   H4    S    
C12   C17   A    
C30   C32   A    
C73   N2    A    
C96   N25   A    
C4    C83   A    
N8    N17   A    
H64   N32   S    
C96   C100  A    
C63   C90   S    
C11   C23   S    
C92   H42   S    
C68   C92   A    
C20   H50   S    
C29   H2    S    
C26   N29   S    
C51   C55   A    
C21   H51   S    
C61   C62   A    
C42   H19   S    
C35   N34   A    
C83   H33   S    
C94   H44   S    
C10   C11   A    
C85   H36   S    
C3    C39   S    
C74   H25   S    
N17   Ni4   S    
C9    C18   S    
N21   Ni7   S    
C23   C25   S    
N20   Ni8   S    
N11   Ni7   S    
C6    C85   A    
N26   Ni3   S    
C76   H27   S    
C95   H46   S    
C39   C48   A    
C89   H40   S    
C78   N7    A    
N2    N10   A    
N4    Ni3   S    
N10   Ni6   S    
N24   Ni1   S    
C92   N20   A    
C82   H32   S    
C76   N5    A    
C52   C56   A    
N13   Ni8   S    
C80   N8    A    
N7    Ni8   S    
