data_mof_unit_14416.cif
_audit_creation_date              2012-12-11T16:35:19-0500
_audit_creation_method            fapswitch 2.2
_symmetry_space_group_name_H-M    P1
_symmetry_Int_Tables_number       1
_space_group_crystal_system       triclinic
_cell_length_a                    6.935687
_cell_length_b                    17.658285
_cell_length_c                    19.490919
_cell_angle_alpha                 108.980647
_cell_angle_beta                  90.367767
_cell_angle_gamma                 91.220865
_cell_volume                      2256.57087525

loop_
_atom_site_label
_atom_site_type_symbol
_atom_type_description
_atom_site_fract_x
_atom_site_fract_y
_atom_site_fract_z
_atom_type_partial_charge
O1    O     O_R   0.505700 0.440210 0.561730 -0.548393
O2    O     O_R   0.169350 0.406300 0.412660 -0.524294
O3    O     O_R   0.005650 0.559790 0.438270 -0.548346
C1    C     C_R   0.336874 0.378835 0.387834 0.731319
O4    O     O_R   0.175560 0.430650 0.559600 -0.494803
O5    O     O_R   0.011900 0.584320 0.586250 -0.541152
C2    C     C_R   0.343938 0.415656 0.581581 0.746843
O6    O     O_R   0.499450 0.415680 0.413750 -0.534115
O7    O     O_3   0.341370 0.550390 0.508570 -0.382012
V1    V     V_3+5 0.063940 0.490650 0.498410 1.497710
O8    O     O_R   0.682570 0.593700 0.587340 -0.543388
C3    C     C_R   0.853233 0.616715 0.614960 0.687877
O9    O     O_R   0.676370 0.569350 0.440400 -0.545808
C4    C     C_R   0.845659 0.584140 0.418646 0.701180
V2    V     V_3+5 0.564750 0.509350 0.501590 1.438813
O10   O     O_3   0.837190 0.449610 0.491430 -0.341594
C5    C     C_R   0.036830 0.674797 0.279312 0.470145
C6    C     C_R   0.025033 0.631511 0.328197 -0.232905
H1    H     H_    0.146132 0.595621 0.332828 0.135879
C7    C     C_R   0.857794 0.632258 0.368756 -0.120357
C8    C     C_R   0.702267 0.678244 0.360238 -0.155838
H2    H     H_    0.571175 0.680054 0.390575 0.137769
C9    C     C_R   0.715302 0.723871 0.313569 -0.187890
H3    H     H_    0.594552 0.760348 0.309964 0.148451
C10   C     C_R   0.882744 0.723671 0.273029 -0.024174
C11   C     C_R   0.733982 0.778533 0.181173 -0.171450
H4    H     H_    0.601266 0.745579 0.182414 0.134815
C12   C     C_R   0.744302 0.824885 0.135038 -0.177991
H5    H     H_    0.618774 0.827033 0.102427 0.122022
C13   C     C_R   0.915692 0.866670 0.130044 -0.041283
C14   C     C_R   0.075366 0.862206 0.173220 -0.180821
H6    H     H_    0.208436 0.894782 0.171540 0.117355
C15   C     C_R   0.063858 0.817096 0.220355 -0.090245
H7    H     H_    0.187817 0.816927 0.254330 0.135610
C16   C     C_R   0.893917 0.773701 0.224243 0.105543
H8    H     H_    0.568655 0.661871 0.925892 0.106651
C17   C     C_R   0.042661 0.900845 0.741794 0.048807
C18   C     C_R   0.140948 0.902239 0.679325 0.503102
C19   C     C_R   0.158367 0.831782 0.621122 -0.245422
C20   C     C_R   0.065456 0.761909 0.621908 -0.224573
C21   C     C_R   0.970169 0.757396 0.684452 0.054798
C22   C     C_R   0.971640 0.826475 0.748110 -0.029778
C23   C     C_R   0.868023 0.686268 0.683157 -0.160633
C24   C     C_R   0.778718 0.681927 0.747039 0.074885
C25   C     C_R   0.802733 0.746319 0.813172 0.063822
C26   C     C_R   0.899018 0.818538 0.814027 -0.159916
C27   C     C_R   0.670420 0.613023 0.747199 -0.166810
C28   C     C_R   0.594173 0.606453 0.810967 -0.140890
C29   C     C_R   0.625263 0.667697 0.876163 -0.114109
C30   C     C_R   0.728675 0.736680 0.877662 -0.135907
H9    H     H_    0.236874 0.831909 0.573327 0.135374
H10   H     H_    0.070537 0.711798 0.572321 0.148167
H11   H     H_    0.644178 0.562883 0.698458 0.115268
H12   H     H_    0.512899 0.553001 0.809856 0.107834
H13   H     H_    0.749621 0.781937 0.930168 0.098590
H14   H     H_    0.451015 0.487954 0.191405 0.125268
C31   C     C_R   0.268701 0.202001 0.372812 0.114453
C32   C     C_R   0.300113 0.123716 0.371951 -0.104107
C33   C     C_R   0.378679 0.067857 0.312059 -0.152314
C34   C     C_R   0.418376 0.088263 0.250658 -0.136022
C35   C     C_R   0.393711 0.167258 0.249869 0.059438
C36   C     C_R   0.334125 0.228132 0.314521 0.033872
C37   C     C_R   0.426484 0.184934 0.185095 -0.168703
C38   C     C_R   0.426495 0.265579 0.186866 0.068783
C39   C     C_R   0.390300 0.328299 0.253068 0.069459
C40   C     C_R   0.343777 0.310480 0.317443 -0.171803
C41   C     C_R   0.466049 0.285377 0.123598 -0.133282
C42   C     C_R   0.474668 0.364932 0.125569 -0.116167
C43   C     C_R   0.442539 0.426234 0.190062 -0.134910
C44   C     C_R   0.398976 0.408514 0.252939 -0.131267
H15   H     H_    0.253165 0.104383 0.416624 0.135288
H16   H     H_    0.399077 0.007108 0.311724 0.120452
H17   H     H_    0.471278 0.041535 0.203975 0.103703
H18   H     H_    0.493926 0.239718 0.072307 0.088564
H19   H     H_    0.507590 0.379117 0.076876 0.106818
H20   H     H_    0.371171 0.458531 0.301173 0.100403
C45   C     C_R   0.543532 0.285831 0.686871 -0.156679
H21   H     H_    0.681895 0.261882 0.694043 0.145527
C46   C     C_R   0.528844 0.331257 0.640043 -0.217659
H22   H     H_    0.655846 0.339548 0.611100 0.210255
C47   C     C_R   0.353183 0.365417 0.630372 -0.156050
C48   C     C_R   0.190268 0.351744 0.668630 0.465546
C49   C     C_R   0.205258 0.303726 0.713589 -0.162185
H23   H     H_    0.077375 0.291231 0.740093 0.148369
C50   C     C_R   0.382131 0.272346 0.724801 0.031033
C51   C     C_R   0.322334 0.255110 0.847258 0.498074
C52   C     C_R   0.330797 0.208222 0.893328 -0.224742
H24   H     H_    0.270080 0.230619 0.947072 0.127426
C53   C     C_R   0.419651 0.133731 0.870851 -0.098958
C54   C     C_R   0.494991 0.105254 0.800815 -0.058233
H25   H     H_    0.555547 0.046297 0.781282 0.157561
C55   C     C_R   0.485285 0.150925 0.754167 -0.167074
H26   H     H_    0.541945 0.126665 0.699936 0.141519
C56   C     C_R   0.397401 0.225859 0.776233 -0.010509
O11   O     O_R   0.273230 0.084330 0.086440 -0.535910
O12   O     O_R   0.596660 0.069390 0.940470 -0.532533
O13   O     O_R   0.760270 0.915710 0.913690 -0.533119
C57   C     C_R   0.428186 0.084546 0.919321 0.739767
O14   O     O_R   0.603330 0.093680 0.087390 -0.539885
O15   O     O_R   0.766990 0.940160 0.061660 -0.547144
C58   C     C_R   0.435851 0.117790 0.114600 0.682731
O16   O     O_R   0.266510 0.059870 0.938470 -0.518488
O17   O     O_3   0.431050 0.949630 0.991510 -0.375531
V3    V     V_3+5 0.708490 0.009340 0.001580 1.457576
O18   O     O_R   0.096270 0.930570 0.059390 -0.545457
C59   C     C_R   0.927040 0.915626 0.080998 0.674663
O19   O     O_R   0.089600 0.906290 0.912460 -0.532242
C60   C     C_R   0.918685 0.884708 0.884020 0.751339
V4    V     V_3+5 0.207670 0.990600 0.998190 1.458088
O20   O     O_3   0.935250 0.050360 0.008480 -0.354413
O21   O     O_3   0.202150 0.669700 0.239031 -0.569390
C61   C     C_3   0.172376 0.609119 0.171582 -0.294934
H27   H     H_    0.058019 0.625440 0.138996 0.150800
H28   H     H_    0.135744 0.550320 0.178463 0.142779
H29   H     H_    0.308038 0.602225 0.140530 0.159577
I1    I     I_    0.962939 0.017096 0.809745 -0.388707
O22   O     O_3   0.226836 0.973018 0.677215 -0.547715
C62   C     C_3   0.134038 0.998301 0.624032 -0.219140
H30   H     H_    0.974296 0.998651 0.629881 0.144190
H31   H     H_    0.174231 0.960701 0.568505 0.123677
H32   H     H_    0.182933 0.060663 0.631146 0.171220
I2    I     I_    0.061290 0.258175 0.451114 -0.388190
O23   O     O_3   0.012893 0.381229 0.659209 -0.549255
C63   C     C_3   0.970907 0.445583 0.721977 -0.270819
H33   H     H_    0.819026 0.461427 0.717893 0.160305
H34   H     H_    0.064262 0.498801 0.725592 0.135722
H35   H     H_    0.983718 0.429909 0.772690 0.143871
O24   O     O_3   0.234056 0.328311 0.871473 -0.559599
C64   C     C_3   0.376582 0.388111 0.902179 -0.288100
H36   H     H_    0.483185 0.392226 0.861011 0.144451
H37   H     H_    0.451404 0.377706 0.948886 0.133214
H38   H     H_    0.305664 0.446788 0.922845 0.161720

loop_
_geom_bond_atom_site_label_1
_geom_bond_atom_site_label_2
_ccdc_geom_bond_type
C19   H9    S    
C52   H24   S    
C21   C23   A    
C21   C22   A    
O21   C61   S    
C1    O6    A    
O24   C64   S    
C61   H28   S    
C47   C48   A    
C54   H25   S    
C31   C36   A    
C17   I1    S    
C45   H21   S    
C42   H19   S    
C28   H12   S    
C11   H4    S    
C12   H5    S    
C3    C23   S    
O5    C3    A    
C13   C14   A    
C32   H15   S    
C39   C44   A    
C34   H17   S    
O15   V3    S    
C6    H1    S    
C22   C26   A    
C17   C22   A    
C35   C37   A    
C62   H30   S    
C51   C56   A    
C31   I2    S    
O13   C60   A    
O8    V2    S    
C18   O22   S    
C49   H23   S    
C42   C43   A    
C26   C60   S    
O11   C58   A    
O19   C60   A    
C14   C15   A    
O1    V2    S    
O7    V1    S    
C24   C27   A    
C37   C58   S    
C33   H16   S    
C27   H11   S    
C64   H38   S    
O14   V3    S    
C45   C50   A    
C33   C34   A    
O9    C4    A    
C13   C59   S    
O19   V4    S    
C35   C36   A    
C5    O21   S    
C61   H27   S    
C5    C6    A    
C45   C46   A    
C36   C40   A    
C51   O24   S    
C41   C42   A    
C38   C41   A    
C4    C7    S    
O23   C63   S    
O11   V4    S    
C19   C20   A    
O4    C2    A    
C51   C52   A    
C32   C33   A    
C20   H10   S    
C48   C49   A    
C46   H22   S    
O12   C57   A    
C34   C35   A    
C62   H32   S    
O2    C1    A    
C23   C24   A    
C17   C18   A    
C50   C56   S    
C54   C55   A    
C27   C28   A    
C9    H3    S    
C55   C56   A    
C15   H7    S    
C41   H18   S    
O3    C4    A    
C10   C16   S    
C63   H35   S    
C28   C29   A    
C49   C50   A    
C29   C30   A    
O6    V2    S    
O9    V2    S    
C44   H20   S    
O2    V1    S    
C48   O23   S    
C24   C25   A    
C63   H34   S    
C64   H36   S    
O12   V3    S    
O18   V4    S    
C20   C21   A    
C2    C47   S    
O1    C2    A    
C11   C12   A    
C14   H6    S    
O5    V1    S    
O8    C3    A    
C46   C47   A    
O18   C59   A    
O15   C59   A    
C30   H13   S    
C53   C57   S    
O17   V4    S    
C5    C10   A    
C38   C39   A    
C8    C9    A    
O7    V2    S    
O4    V1    S    
C39   C40   A    
O3    V1    S    
C57   O16   A    
O22   C62   S    
V3    O20   S    
C31   C32   A    
C18   C19   A    
C25   C30   A    
C12   C13   A    
C55   H26   S    
C15   C16   A    
C6    C7    A    
C9    C10   A    
C43   C44   A    
C62   H31   S    
O13   V3    S    
C37   C38   A    
C25   C26   A    
C11   C16   A    
C7    C8    A    
C1    C40   S    
H14   C43   S    
V4    O20   S    
O17   V3    S    
C52   C53   A    
O16   V4    S    
V1    O10   S    
C53   C54   A    
C8    H2    S    
O14   C58   A    
C61   H29   S    
H8    C29   S    
V2    O10   S    
C63   H33   S    
C64   H37   S    
