data_mof_unit_56938.cif
_audit_creation_date              2012-12-11T14:33:04-0500
_audit_creation_method            fapswitch 2.2
_symmetry_space_group_name_H-M    P1
_symmetry_Int_Tables_number       1
_space_group_crystal_system       triclinic
_cell_length_a                    6.942939
_cell_length_b                    13.789082
_cell_length_c                    17.909478
_cell_angle_alpha                 112.582185
_cell_angle_beta                  95.645562
_cell_angle_gamma                 90.47363
_cell_volume                      1573.47850987

loop_
_atom_site_label
_atom_site_type_symbol
_atom_type_description
_atom_site_fract_x
_atom_site_fract_y
_atom_site_fract_z
_atom_type_partial_charge
O1    O     O_R   0.484560 0.544530 0.414330 -0.541072
O2    O     O_R   0.197040 0.638810 0.585080 -0.535230
O3    O     O_R   0.026800 0.455470 0.585670 -0.525173
C1    C     C_R   0.374919 0.679398 0.610343 0.745404
O4    O     O_R   0.155000 0.556150 0.414940 -0.547279
O5    O     O_R   0.984450 0.372220 0.414320 -0.536412
C2    C     C_R   0.317635 0.565044 0.386562 0.741646
O6    O     O_R   0.526900 0.627780 0.585680 -0.532608
O7    O     O_3   0.339170 0.439750 0.499990 -0.366872
V1    V     V_3+5 0.064350 0.511180 0.500000 1.408794
O8    O     O_R   0.654880 0.361190 0.414920 -0.546094
C3    C     C_R   0.816627 0.324339 0.386415 0.756988
O9    O     O_R   0.696930 0.443850 0.585060 -0.537044
C4    C     C_R   0.873158 0.432845 0.612011 0.709558
V2    V     V_3+5 0.564340 0.488820 0.500000 1.408621
O10   O     O_3   0.839390 0.560250 0.500010 -0.382386
C5    C     C_R   0.043042 0.861141 0.822492 -0.053188
C6    C     C_R   0.905988 0.396133 0.679252 -0.058991
C7    C     C_R   0.926621 0.820925 0.681622 -0.130376
C8    C     C_R   0.977517 0.788000 0.744903 -0.143453
C9    C     C_R   0.055257 0.968794 0.836654 -0.210886
C10   C     C_R   0.002848 0.004758 0.772931 0.098239
C11   C     C_R   0.938968 0.927862 0.694712 0.118610
C12   C     C_R   0.009315 0.113662 0.783950 0.068463
C13   C     C_R   0.953277 0.143059 0.716361 0.054448
C14   C     C_R   0.894105 0.062553 0.639956 -0.170730
C15   C     C_R   0.886842 0.957590 0.629692 -0.217358
C16   C     C_R   0.069090 0.194144 0.860300 -0.178012
C17   C     C_R   0.073093 0.299221 0.870895 -0.214486
C18   C     C_R   0.017638 0.329073 0.806217 0.124872
C19   C     C_R   0.956820 0.252070 0.727683 0.093856
C20   C     C_R   0.022732 0.436297 0.820066 -0.150359
C21   C     C_R   0.966993 0.469401 0.757292 -0.127602
C22   C     C_R   0.902224 0.288154 0.664203 -0.214470
H1    H     H_    0.838455 0.898753 0.569891 0.121895
H2    H     H_    0.858916 0.235062 0.602423 0.104364
H3    H     H_    0.974760 0.552589 0.769427 0.097944
H4    H     H_    0.120341 0.358103 0.930812 0.117762
H5    H     H_    0.875443 0.762450 0.622129 0.135938
H6    H     H_    0.963065 0.705147 0.733455 0.099396
H7    H     H_    0.102287 0.021840 0.898077 0.092273
H8    H     H_    0.850122 0.077911 0.586401 0.137492
H9    H     H_    0.114526 0.178760 0.913717 0.122159
H10   H     H_    0.071054 0.494934 0.879853 0.139837
H11   H     H_    0.114059 0.224239 0.309320 0.155846
H12   H     H_    0.834533 0.033958 0.193428 0.154773
C23   C     C_2   0.136331 0.037792 0.184309 -0.347805
C24   C     C_2   0.973031 0.077669 0.217101 -0.127565
H13   H     H_    0.673908 0.176751 0.294133 0.125636
C25   C     C_2   0.812167 0.220542 0.318278 -0.343326
C26   C     C_2   0.975533 0.180571 0.285597 -0.116423
H14   H     H_    0.274564 0.081627 0.208407 0.125904
C27   C     C_R   0.413651 0.786706 0.677026 -0.070320
C28   C     C_R   0.532792 0.473555 0.821982 -0.143201
C29   C     C_R   0.545296 0.891383 0.816323 -0.142431
C30   C     C_R   0.498361 0.794310 0.753317 -0.141945
C31   C     C_R   0.394534 0.880943 0.663012 -0.221826
C32   C     C_R   0.454437 0.982189 0.725826 0.120759
C33   C     C_R   0.523757 0.984795 0.803639 0.129553
C34   C     C_R   0.450570 0.080562 0.714742 -0.015410
C35   C     C_R   0.507968 0.178708 0.781971 0.076325
C36   C     C_R   0.567340 0.175110 0.858271 -0.160095
C37   C     C_R   0.576521 0.080297 0.868432 -0.220907
C38   C     C_R   0.397015 0.083360 0.638020 -0.178037
C39   C     C_R   0.395903 0.176863 0.625721 0.317604
C40   C     C_R   0.438600 0.274176 0.692190 -0.054679
C41   C     C_R   0.502196 0.277064 0.770828 0.062017
C42   C     C_R   0.409655 0.368653 0.681388 -0.118593
C43   C     C_R   0.446576 0.466192 0.744949 0.333527
C44   C     C_R   0.555881 0.378490 0.834595 -0.226896
H15   H     H_    0.627791 0.081732 0.928036 0.117222
H16   H     H_    0.612328 0.386500 0.894990 0.107451
H17   H     H_    0.605312 0.893263 0.875029 0.141191
H18   H     H_    0.534848 0.725119 0.764383 0.139579
H19   H     H_    0.335425 0.872447 0.602795 0.094047
H20   H     H_    0.610518 0.244653 0.911670 0.119599
H21   H     H_    0.360130 0.012722 0.584703 0.146135
H22   H     H_    0.345157 0.368293 0.623879 0.168560
H23   H     H_    0.334216 0.667440 0.194565 0.154821
H24   H     H_    0.614978 0.590872 0.308147 0.152932
C45   C     C_2   0.314163 0.602328 0.318896 -0.343643
C46   C     C_2   0.476536 0.611009 0.285392 -0.128678
H25   H     H_    0.773149 0.636103 0.206954 0.125815
C47   C     C_2   0.634993 0.655974 0.183754 -0.349057
C48   C     C_2   0.472683 0.647302 0.217300 -0.126585
H26   H     H_    0.176052 0.622210 0.295666 0.126445
O11   O     O_R   0.421600 0.630430 0.917010 -0.547467
O12   O     O_R   0.793840 0.702190 0.087630 -0.542420
O13   O     O_R   0.964010 0.886170 0.088190 -0.535735
C49   C     C_R   0.631314 0.693242 0.116070 0.762017
O14   O     O_R   0.751460 0.619510 0.917500 -0.535989
O15   O     O_R   0.921330 0.802900 0.916840 -0.542577
C50   C     C_R   0.573192 0.579690 0.890791 0.687978
O16   O     O_R   0.464290 0.713700 0.088350 -0.536319
O17   O     O_3   0.609200 0.818520 0.002630 -0.372968
V3    V     V_3+5 0.884140 0.747190 0.002530 1.373206
O18   O     O_R   0.251150 0.814630 0.917340 -0.542315
C51   C     C_R   0.074976 0.825080 0.890142 0.685214
O19   O     O_R   0.293530 0.897310 0.087470 -0.541789
C52   C     C_R   0.131832 0.934060 0.116089 0.764485
V4    V     V_3+5 0.384070 0.769710 0.002370 1.370510
O20   O     O_3   0.109180 0.698190 0.002460 -0.374930
O21   O     O_3   0.390982 0.552079 0.728661 -0.662778
H27   H     H_    0.343291 0.603978 0.777837 0.268379
O22   O     O_3   0.350544 0.169278 0.546848 -0.650373
H28   H     H_    0.433692 0.221857 0.538135 0.277072

loop_
_geom_bond_atom_site_label_1
_geom_bond_atom_site_label_2
_ccdc_geom_bond_type
C13   C19   A    
C40   C42   A    
C29   C30   A    
O12   V3    S    
V4    O20   S    
V3    O20   S    
C1    C27   S    
C38   H21   S    
C4    C6    S    
O2    C1    A    
O17   V3    S    
C1    O6    A    
C45   C46   D    
O15   C51   A    
C14   C15   A    
C36   C37   A    
C16   C17   A    
C29   C33   A    
O5    C3    A    
C18   C19   A    
C8    H6    S    
H11   C26   S    
C32   C34   A    
V2    O10   S    
O18   C51   A    
O15   V3    S    
C5    C8    A    
C28   C50   S    
O14   V3    S    
O11   V4    S    
O8    V2    S    
C24   C26   S    
C23   C24   D    
O16   V4    S    
C42   C43   A    
C17   H4    S    
O1    V2    S    
C11   C15   A    
O7    V1    S    
C45   H26   S    
C40   C41   A    
O9    C4    A    
C36   H20   S    
C47   C49   S    
C39   O22   S    
C49   O16   A    
C43   O21   S    
C42   H22   S    
H12   C24   S    
C30   H18   S    
O13   C52   A    
C47   C48   D    
H24   C46   S    
O4    C2    A    
C27   C31   A    
C15   H1    S    
C13   C14   A    
C21   H3    S    
C23   C52   S    
C34   C35   A    
C7    C11   A    
C17   C18   A    
O14   C50   A    
C35   C41   A    
H25   C47   S    
C28   C44   A    
C25   C26   D    
C20   H10   S    
C19   C22   A    
C12   C13   A    
C6    C22   A    
O3    C4    A    
C7    H5    S    
C9    H7    S    
O19   V4    S    
O12   C49   A    
H13   C25   S    
O6    V2    S    
O9    V2    S    
C10   C12   A    
O2    V1    S    
H23   C48   S    
C14   H8    S    
C5    C51   S    
C27   C30   A    
C2    C45   S    
O1    C2    A    
C12   C16   A    
C37   H15   S    
O5    V1    S    
C3    C25   S    
O8    C3    A    
C23   H14   S    
C46   C48   S    
O22   H28   S    
C16   H9    S    
C33   C37   A    
O19   C52   A    
C34   C38   A    
C41   C44   A    
C20   C21   A    
C31   H19   S    
C7    C8    A    
C32   C33   A    
O4    V1    S    
O3    V1    S    
V1    O10   S    
C38   C39   A    
C18   C20   A    
C31   C32   A    
C28   C43   A    
O13   V3    S    
O11   C50   A    
C22   H2    S    
O7    V2    S    
C35   C36   A    
C6    C21   A    
C5    C9    A    
C29   H17   S    
C39   C40   A    
O21   H27   S    
C10   C11   A    
C44   H16   S    
C9    C10   A    
O18   V4    S    
O17   V4    S    
