data_mof_unit_58037.cif
_audit_creation_date              2012-12-10T17:02:15-0500
_audit_creation_method            fapswitch 2.2
_symmetry_space_group_name_H-M    P1
_symmetry_Int_Tables_number       1
_space_group_crystal_system       triclinic
_cell_length_a                    10.738519
_cell_length_b                    10.799919
_cell_length_c                    10.135505
_cell_angle_alpha                 93.497049
_cell_angle_beta                  92.195545
_cell_angle_gamma                 93.291377
_cell_volume                      1170.31083644

loop_
_atom_site_label
_atom_site_type_symbol
_atom_type_description
_atom_site_fract_x
_atom_site_fract_y
_atom_site_fract_z
_atom_type_partial_charge
C1    C     C_R   0.490622 0.263643 0.495053 0.939697
C2    C     C_R   0.072472 0.574134 0.599540 0.098436
C3    C     C_R   0.129409 0.514215 0.493396 -0.163917
C4    C     C_R   0.060429 0.440451 0.396307 -0.198909
C5    C     C_R   0.932609 0.428002 0.400679 0.079794
C6    C     C_R   0.874034 0.482264 0.510865 -0.171705
C7    C     C_2   0.511209 0.929585 0.397313 -0.276669
C8    C     C_2   0.517655 0.872932 0.512489 -0.176247
C9    C     C_2   0.519780 0.063161 0.390107 0.114146
C10   C     C_2   0.462812 0.133249 0.479790 -0.298524
C11   C     C_2   0.570322 0.571254 0.939724 0.008004
C12   C     C_R   0.261312 0.505976 0.497837 0.871229
C13   C     C_2   0.591983 0.527308 0.073686 -0.216383
C14   C     C_R   0.503366 0.738268 0.504056 0.866019
C15   C     C_R   0.739946 0.493153 0.502866 0.866033
C16   C     C_R   0.138701 0.661660 0.689585 -0.139485
C17   C     C_R   0.088260 0.697440 0.809193 -0.134983
C18   C     C_R   0.974853 0.641838 0.842273 -0.156058
C19   C     C_R   0.905584 0.562386 0.749561 -0.196384
C20   C     C_R   0.947836 0.539823 0.620137 0.074994
H1    H     H_    0.106267 0.390191 0.318022 0.185219
H2    H     H_    0.399713 0.093132 0.548890 0.132619
H3    H     H_    0.477584 0.413077 0.879427 0.180844
H4    H     H_    0.684588 0.544446 0.120063 0.157659
H5    H     H_    0.230193 0.700716 0.668620 0.132464
H6    H     H_    0.140188 0.762794 0.878848 0.123921
H7    H     H_    0.939303 0.661407 0.939378 0.140457
H8    H     H_    0.822709 0.516118 0.784144 0.169670
H9    H     H_    0.501064 0.877114 0.302540 0.167353
N1    N     N_2   0.501340 0.501330 0.852150 -0.215289
N2    N     N_2   0.501380 0.501360 0.147810 -0.145773
O1    O     O_R   0.499980 0.319060 0.613040 -0.620706
O2    O     O_R   0.500020 0.319100 0.386900 -0.589379
O3    O     O_R   0.316750 0.499980 0.613090 -0.605309
O4    O     O_R   0.316790 0.500020 0.386950 -0.616796
O5    O     O_R   0.499980 0.680900 0.613100 -0.634556
O6    O     O_R   0.500020 0.680940 0.386960 -0.625038
O7    O     O_R   0.683210 0.499980 0.613050 -0.656929
O8    O     O_R   0.683250 0.500020 0.386910 -0.616836
Zn1   Zn    Zn3+2 0.499970 0.499970 0.650990 0.924043
Zn2   Zn    Zn3+2 0.500030 0.500030 0.349010 0.936111
C21   C     C_R   0.624607 0.701447 0.925261 0.140108
C22   C     C_R   0.631021 0.785219 0.038662 -0.186987
C23   C     C_R   0.714319 0.889761 0.048866 -0.147333
C24   C     C_R   0.788794 0.916920 0.944054 -0.094642
C25   C     C_R   0.776192 0.841903 0.827316 -0.150333
C26   C     C_R   0.694003 0.736274 0.817870 -0.118164
H10   H     H_    0.578056 0.764813 0.124019 0.139556
H11   H     H_    0.724185 0.947325 0.139640 0.121683
H12   H     H_    0.854511 0.997098 0.952369 0.117078
H13   H     H_    0.832741 0.863583 0.744644 0.134644
H14   H     H_    0.693110 0.680305 0.729119 0.194866
C27   C     C_R   0.375356 0.492774 0.098681 0.292203
C28   C     C_R   0.316043 0.375326 0.064660 -0.194018
C29   C     C_R   0.187052 0.362990 0.038691 -0.161764
C30   C     C_R   0.115958 0.466965 0.052419 -0.086548
C31   C     C_R   0.174117 0.583585 0.090300 -0.160862
C32   C     C_R   0.303574 0.596859 0.111892 -0.113180
H15   H     H_    0.369782 0.293419 0.060549 0.118351
H16   H     H_    0.141774 0.272365 0.011810 0.131931
H17   H     H_    0.015593 0.456632 0.036341 0.127505
H18   H     H_    0.118770 0.663506 0.104892 0.122791
H19   H     H_    0.347348 0.686861 0.144577 0.113569
N3    N     N_3   0.866296 0.351116 0.297604 -0.472512
H20   H     H_    0.821390 0.407375 0.232957 0.205269
H21   H     H_    0.800597 0.291962 0.339567 0.198295
C33   C     C_R   0.543007 0.942075 0.644519 0.143204
C34   C     C_R   0.456541 0.931012 0.744597 -0.123672
C35   C     C_R   0.468152 0.010623 0.859114 -0.140506
C36   C     C_R   0.565409 0.102625 0.874531 -0.095827
C37   C     C_R   0.653652 0.112645 0.777401 -0.106850
C38   C     C_R   0.644170 0.031324 0.664164 -0.147106
H22   H     H_    0.377146 0.864696 0.731617 0.116859
H23   H     H_    0.400261 0.002550 0.934820 0.115893
H24   H     H_    0.573090 0.165440 0.962227 0.110991
H25   H     H_    0.729586 0.183261 0.789916 0.120172
H26   H     H_    0.712437 0.041401 0.589027 0.122245
N4    N     N_3   0.596065 0.116769 0.292687 -0.437833
H27   H     H_    0.686649 0.088653 0.308182 0.162563
H28   H     H_    0.561739 0.081022 0.199351 0.175521

loop_
_geom_bond_atom_site_label_1
_geom_bond_atom_site_label_2
_ccdc_geom_bond_type
C23   H11   S    
C29   C30   A    
C7    H9    S    
C19   C20   A    
C1    O2    A    
C7    C8    D    
O8    Zn2   S    
C27   C28   A    
C10   H2    S    
O3    Zn1   S    
C17   H6    S    
C18   C19   A    
C14   O5    A    
C5    C6    A    
N4    H28   S    
C32   H19   S    
C30   C31   A    
C11   C21   S    
C33   C38   A    
C3    C12   S    
C6    C15   S    
C25   C26   A    
C11   N1    D    
C16   C17   A    
C36   C37   A    
C2    C16   A    
C9    C10   D    
C21   C26   A    
C29   H16   S    
C28   H15   S    
C18   H7    S    
C2    C20   A    
C33   C34   A    
H3    N1    S    
O5    Zn1   S    
N4    H27   S    
C34   C35   A    
C31   H18   S    
C34   H22   S    
C24   C25   A    
C25   H13   S    
C1    O1    A    
C13   H4    S    
N3    H21   S    
C22   C23   A    
C15   O7    A    
C38   H26   S    
C17   C18   A    
N1    Zn1   S    
C35   H23   S    
N2    C27   S    
C12   O4    A    
C19   H8    S    
C15   O8    A    
C21   C22   A    
C12   O3    A    
C3    C4    A    
C23   C24   A    
C22   H10   S    
C16   H5    S    
C7    C9    S    
C28   C29   A    
C8    C14   S    
N2    Zn2   S    
C13   N2    D    
C1    C10   S    
C4    C5    A    
C27   C32   A    
C26   H14   S    
C6    C20   A    
O2    Zn2   S    
N3    H20   S    
C2    C3    A    
C37   C38   A    
C14   O6    A    
O7    Zn1   S    
C4    H1    S    
C11   C13   S    
C31   C32   A    
C37   H25   S    
C24   H12   S    
C9    N4    S    
O1    Zn1   S    
O6    Zn2   S    
C35   C36   A    
O4    Zn2   S    
C5    N3    S    
C8    C33   S    
C36   H24   S    
C30   H17   S    
