data_mof_unit_67337.cif
_audit_creation_date              2013-03-05T16:05:43-0500
_audit_creation_method            fapswitch 2.2
_symmetry_space_group_name_H-M    P1
_symmetry_Int_Tables_number       1
_space_group_crystal_system       triclinic
_cell_length_a                    9.061476
_cell_length_b                    15.5851
_cell_length_c                    16.810144
_cell_angle_alpha                 111.94195
_cell_angle_beta                  98.185121
_cell_angle_gamma                 79.686878
_cell_volume                      2159.03251124

loop_
_atom_site_label
_atom_site_type_symbol
_atom_site_description
_atom_site_fract_x
_atom_site_fract_y
_atom_site_fract_z
_atom_type_partial_charge
P1    P     P_3+3 0.592580 0.619730 0.703530 0.666187
O1    O     O_2   0.428380 0.595290 0.716080 -0.224297
O2    O     O_3   0.649320 0.571640 0.606850 -0.322566
O3    O     O_3   0.202060 0.415890 0.655600 -0.276119
O4    O     O_2   0.308178 0.527028 0.805976 -0.286080
O5    O     O_3   0.582809 0.743210 0.753028 -0.581015
O6    O     O_3   0.313623 0.363264 0.801628 -0.431655
C1    C     C_3   0.297837 0.241534 0.860123 -0.567941
P2    P     P_3+3 0.156500 0.273340 0.422460 0.563284
P3    P     P_3+3 0.671359 0.239894 0.590118 0.581659
O7    O     O_2   0.338780 0.265250 0.448290 -0.298323
O8    O     O_3   0.612600 0.359160 0.609560 -0.273088
O9    O     O_2   0.545315 0.194212 0.525961 -0.369965
O10   O     O_3   0.187878 0.202935 0.312431 -0.598000
O11   O     O_3   0.647278 0.223002 0.686751 -0.480259
C2    C     C_3   0.723388 0.286088 0.759395 0.714729
C3    C     C_3   0.732627 0.266782 0.843375 -0.792771
H1    H     H_    0.621575 0.282136 0.867024 0.284556
C4    C     C_3   0.651940 0.206657 0.308843 0.252665
H2    H     H_    0.570265 0.231964 0.358748 0.157421
C5    C     C_3   0.652381 0.096812 0.258992 -0.188030
Ba1   Ba    Ba6+2 0.364200 0.465260 0.540910 1.799518
C6    C     C_3   0.513346 0.800487 0.707961 0.362189
C7    C     C_3   0.498478 0.904322 0.769400 0.331884
C8    C     C_3   0.116223 0.211786 0.234182 0.457200
C9    C     C_3   0.024491 0.129506 0.184774 0.008436
H3    H     H_    0.920938 0.142643 0.215403 -0.117865
P4    P     P_3+3 0.597130 0.380190 0.296460 0.659772
O12   O     O_2   0.761310 0.404670 0.283870 -0.331734
O13   O     O_3   0.540390 0.428280 0.393140 -0.330426
O14   O     O_3   0.987650 0.584030 0.344390 -0.430235
O15   O     O_3   0.612248 0.255568 0.251249 -0.489736
P5    P     P_3+3 0.513305 0.758457 0.401677 0.529368
O16   O     O_3   0.122140 0.620560 0.549160 -0.315521
O17   O     O_3   0.577110 0.640760 0.390430 -0.418472
O18   O     O_2   0.641024 0.814250 0.455270 -0.306469
O19   O     O_3   0.508179 0.772962 0.302335 -0.466255
Ba2   Ba    Ba6+2 0.825640 0.534660 0.459080 1.740177
P6    P     P_3+3 0.202193 0.451389 0.768956 0.613352
C10   C     C_3   0.230070 0.293212 0.796074 0.276326
H4    H     H_    0.120266 0.327750 0.820109 0.038177
O20   O     O_3   0.067570 0.379360 0.450830 -0.339027
C11   C     C_3   0.020538 0.764960 0.751318 0.501630
C12   C     C_3   0.044957 0.832487 0.848194 0.354450
H5    H     H_    0.949352 0.840279 0.885965 0.054466
P7    P     P_3+3 0.026052 0.741105 0.576413 0.593746
O21   O     O_2   0.850910 0.734710 0.551660 -0.316940
O22   O     O_3   0.031697 0.807450 0.691011 -0.547640
H6    H     H_    0.802277 0.315416 0.894617 0.224195
C13   C     C_3   0.533258 0.686547 0.234246 0.606637
H7    H     H_    0.655450 0.670264 0.227341 0.165542
H8    H     H_    0.498532 0.628240 0.246679 -0.029554
C14   C     C_3   0.443363 0.688626 0.148523 -0.682796
H9    H     H_    0.334288 0.665712 0.146012 0.103978
P8    P     P_3+3 0.987451 0.546926 0.232861 0.466205
C15   C     C_3   0.979621 0.723884 0.237472 0.558099
O23   O     O_2   0.859750 0.486401 0.197187 -0.265565
O24   O     O_3   0.923490 0.637808 0.191626 -0.565072
H10   H     H_    0.984127 0.855228 0.217967 0.140327
C16   C     C_3   0.944689 0.786532 0.181294 -0.047069
C17   C     C_2   0.283493 0.454119 0.247379 -0.432555
C18   C     C_R   0.893429 0.534395 0.756183 -0.326760
C19   C     C_2   0.475916 0.430703 0.150141 0.224778
C20   C     C_2   0.446334 0.427494 0.225345 0.163405
C21   C     C_2   0.169786 0.479086 0.192530 0.132084
C22   C     C_3   0.203739 0.463853 0.101260 0.008852
C23   C     C_3   0.362525 0.485495 0.105131 -0.093438
C24   C     C_2   0.080562 0.495762 0.039079 -0.111645
C25   C     C_2   0.107078 0.507349 0.965612 -0.210976
C26   C     C_R   0.846981 0.582398 0.927239 0.177592
C27   C     C_R   0.986627 0.530476 0.900574 -0.118347
C28   C     C_R   0.732905 0.608406 0.870310 0.196098
C29   C     C_R   0.747058 0.578443 0.780932 0.188500
C30   C     C_R   0.013117 0.509478 0.813156 0.219601
H11   H     H_    0.918920 0.526123 0.693347 0.218612
H12   H     H_    0.964110 0.498239 0.049070 0.231538
H13   H     H_    0.222722 0.500094 0.952369 0.211369
C31   C     C_R   0.860378 0.182900 0.541208 -0.034023
C32   C     C_R   0.080364 0.203227 0.479784 0.140149
C33   C     C_R   0.246601 0.765533 0.479760 -0.419912
C34   C     C_R   0.330160 0.814891 0.451885 0.237256
C35   C     C_R   0.267005 0.903493 0.450763 -0.050476
C36   C     C_R   0.132082 0.952875 0.489335 0.088762
C37   C     C_R   0.059780 0.904636 0.527573 0.047336
C38   C     C_R   0.067479 0.049102 0.494151 0.104657
C39   C     C_R   0.921146 0.086090 0.525269 -0.036732
C40   C     C_R   0.850032 0.027559 0.550231 -0.243016
C41   C     C_R   0.931744 0.952374 0.568358 -0.122341
C42   C     C_R   0.142788 0.109991 0.471161 -0.344723
C43   C     C_R   0.948547 0.240269 0.524573 0.147840
C44   C     C_R   0.112833 0.809083 0.521851 0.173900
H14   H     H_    0.321303 0.927401 0.411754 0.153081
C45   C     C_2   0.219409 0.225527 0.703688 0.714532
H15   H     H_    0.170417 0.161795 0.686263 -0.026464
O25   O     O_2   0.275403 0.238852 0.648312 -0.470213
C46   C     C_2   0.680119 0.064945 0.164729 0.799153
H16   H     H_    0.773195 0.011346 0.138709 -0.022062
O26   O     O_2   0.596745 0.096410 0.115470 -0.433230
C47   C     C_2   0.766589 0.037207 0.299180 0.530905
H17   H     H_    0.881207 0.018175 0.280865 -0.073945
O27   O     O_2   0.733682 0.010898 0.353307 -0.534233
Br1   Br    Br    0.460629 0.059685 0.259773 -0.369418
Br2   Br    Br    0.329364 0.769471 0.675490 -0.387232
C48   C     C_2   0.580187 0.785415 0.626591 0.484781
H18   H     H_    0.593104 0.717155 0.576720 0.152752
O28   O     O_2   0.614397 0.850820 0.613644 -0.549550
Br3   Br    Br    0.428343 0.924269 0.879144 -0.266436
Br4   Br    Br    0.357899 0.979610 0.712589 -0.395066
C49   C     C_2   0.648331 0.937918 0.795236 0.558520
H19   H     H_    0.732761 0.907274 0.832522 0.000882
O29   O     O_2   0.674474 0.002136 0.777892 -0.550039
Br5   Br    Br    0.274503 0.202255 0.162024 -0.277821
C50   C     C_2   0.025148 0.302437 0.242653 0.558492
H20   H     H_    0.012017 0.356456 0.304352 0.069614
O30   O     O_2   0.972829 0.318408 0.177928 -0.476254
C51   C     C_2   0.433043 0.170518 0.831821 0.602257
H21   H     H_    0.486549 0.132354 0.873129 0.094041
O31   O     O_2   0.485654 0.155116 0.764244 -0.458785
C52   C     C_2   0.106322 0.037201 0.186776 0.709562
H22   H     H_    0.131136 0.026430 0.247730 -0.006374
O32   O     O_2   0.144705 0.973797 0.120989 -0.444824
Br6   Br    Br    0.951750 0.119649 0.067141 -0.186642
C53   C     C_2   0.178199 0.191457 0.872102 0.399715
H23   H     H_    0.142517 0.131909 0.819177 0.144514
O33   O     O_2   0.118574 0.217293 0.939527 -0.470552
C54   C     C_2   0.876310 0.734458 0.739782 0.240749
H24   H     H_    0.823910 0.741248 0.795825 0.025369
O34   O     O_2   0.834068 0.683573 0.669273 -0.524340
Br7   Br    Br    0.136802 0.648188 0.729281 -0.347101
Br8   Br    Br    0.052566 0.960466 0.865162 -0.242011
Br9   Br    Br    0.207823 0.792078 0.919450 -0.298627
C55   C     C_2   0.351497 0.308425 0.945042 0.637614
H25   H     H_    0.341022 0.297559 0.003974 0.093590
O35   O     O_2   0.422606 0.369122 0.948168 -0.554884
C56   C     C_2   0.516180 0.618893 0.069964 0.558035
H26   H     H_    0.447558 0.596027 0.009309 0.097660
O36   O     O_2   0.649383 0.586730 0.072704 -0.508715
C57   C     C_2   0.404470 0.783078 0.139392 0.862661
H27   H     H_    0.419211 0.790924 0.079770 0.090044
O37   O     O_2   0.349394 0.851240 0.196603 -0.476899
C58   C     C_2   0.145812 0.714844 0.261741 0.242120
H28   H     H_    0.213181 0.650461 0.261186 0.008278
O38   O     O_2   0.208345 0.783691 0.283444 -0.586373
Br10  Br    Br    0.880834 0.789095 0.342169 -0.433997
Br11  Br    Br    0.733467 0.815849 0.153150 -0.444072
Br12  Br    Br    0.615477 0.410987 0.790798 -0.358032
C59   C     C_2   0.019516 0.745054 0.098559 0.667693
H29   H     H_    0.095427 0.680513 0.084192 -0.061614
O39   O     O_2   0.997360 0.785345 0.047292 -0.520380
Br13  Br    Br    0.649636 0.358340 0.092054 -0.286009
Br14  Br    Br    0.568119 0.695399 0.920628 -0.374329
C60   C     C_2   0.248850 0.439453 0.324273 0.561528
H30   H     H_    0.183896 0.489852 0.373775 0.081143
O40   O     O_2   0.297047 0.365740 0.333710 -0.548526
Br15  Br    Br    0.890846 0.372399 0.566510 -0.347040
C61   C     C_2   0.688044 0.028903 0.544180 0.823453
H31   H     H_    0.623832 0.027847 0.484763 0.087466
O41   O     O_2   0.627387 0.024946 0.602831 -0.458099
C62   C     C_2   0.303444 0.091546 0.468689 0.662943
H32   H     H_    0.357789 0.092403 0.416108 0.085508
O42   O     O_2   0.377063 0.075904 0.529209 -0.512848
C63   C     C_2   0.880130 0.280130 0.742037 0.345612
H33   H     H_    0.955693 0.217523 0.738883 -0.135596
O43   O     O_2   0.918780 0.340626 0.724310 -0.640274
C64   C     C_2   0.291040 0.664584 0.452025 0.742314
H34   H     H_    0.253569 0.622695 0.388053 -0.159226
O44   O     O_2   0.380878 0.629262 0.495906 -0.559331
C65   C     C_2   0.927411 0.959708 0.655792 0.678798
H35   H     H_    0.842812 0.930745 0.672393 0.128413
O45   O     O_2   0.020504 0.999680 0.709930 -0.569471
C66   C     C_2   0.797636 0.170256 0.836292 0.819786
H36   H     H_    0.823169 0.118977 0.774537 0.068878
O46   O     O_2   0.816850 0.148675 0.899909 -0.436408
C67   C     C_2   0.802299 0.227597 0.352309 0.388007
H37   H     H_    0.896147 0.173985 0.349511 -0.143755
O47   O     O_2   0.822890 0.307736 0.390155 -0.526436

loop_
_geom_bond_atom_site_label_1
_geom_bond_atom_site_label_2
_geom_bond_distance
_ccdc_geom_bond_type
C22   C24   1.563095 S    
C40   C41   1.380599 A    
C45   H15   1.082994 S    
C25   H13   1.079644 S    
C4    H2    1.109983 S    
C14   C56   1.509717 S    
C10   C45   1.517695 S    
C66   H36   1.073336 S    
C48   O28   1.216819 D    
C34   C35   1.402894 A    
P3    C31   1.925908 S    
C53   H23   1.079738 S    
C38   C39   1.436200 A    
C31   C43   1.422025 A    
C12   Br9   1.933135 S    
C66   O46   1.217333 D    
C9    H3    1.085128 S    
C64   H34   1.071753 S    
C36   C37   1.437041 A    
P4    O12   1.660383 D    
C59   O39   1.219575 D    
Ba2   O20   2.935848 S    
P3    O11   1.787945 S    
C49   O29   1.210554 D    
C62   H32   1.076600 S    
C5    C47   1.521868 S    
P2    Ba1   3.598774 S    
C53   O33   1.222339 D    
C12   Br8   1.919083 S    
O11   C2    1.428025 S    
Ba1   Ba2   4.991451 S    
O8    Ba1   2.913123 S    
P5    O18   1.544389 D    
C35   H14   1.072860 S    
C51   H21   1.086543 S    
O13   Ba2   3.162871 S    
C2    Br12  1.929107 S    
P1    O1    1.660053 D    
P2    C32   1.960800 S    
P6    C30   1.900393 S    
C25   C27   1.526566 S    
C67   H37   1.072907 S    
C32   C43   1.418176 A    
C8    Br5   1.958293 S    
C61   O41   1.220604 D    
C6    Br2   1.772918 S    
C59   H29   1.077624 S    
O2    Ba2   2.964080 S    
C15   O24   1.418561 S    
C2    C3    1.537936 S    
C41   C65   1.436711 S    
C46   O26   1.220491 D    
O12   Ba2   2.931487 S    
C1    C55   1.494218 S    
C13   H8    1.109746 S    
C6    C7    1.554391 S    
C62   O42   1.213801 D    
C18   C29   1.421684 A    
C26   C27   1.407401 A    
C7    Br4   1.966570 S    
C16   C59   1.500529 S    
P4    Ba2   3.579246 S    
C56   H26   1.086520 S    
C11   O22   1.425258 S    
C36   C38   1.485512 A    
C28   C29   1.414549 A    
C31   C39   1.447022 A    
C65   O45   1.213988 D    
C22   C23   1.522807 S    
H10   C16   1.111316 S    
C45   O25   1.218107 D    
C4    O15   1.414924 S    
C11   C54   1.432830 S    
C48   H18   1.079405 S    
P8    C21   1.861491 S    
C42   C62   1.436011 S    
C63   O43   1.207595 D    
C52   O32   1.220735 D    
Ba1   O16   2.936560 S    
C19   C23   1.518137 S    
C13   C14   1.559597 S    
C14   C57   1.510754 S    
P4    O15   1.788827 S    
O17   Ba2   2.913847 S    
C9    C52   1.505869 S    
C3    H6    1.115067 S    
C38   C42   1.447967 A    
C39   C40   1.413139 A    
C24   C25   1.371939 D    
P7    C44   1.952424 S    
C2    C63   1.470234 S    
C8    C9    1.553792 S    
C14   H9    1.099748 S    
P5    O19   1.760195 S    
C15   C16   1.561616 S    
C6    C48   1.495953 S    
P1    O2    1.630038 S    
C61   H31   1.078005 S    
C17   C20   1.519290 S    
P2    O10   1.796436 S    
C19   Br13  1.918945 S    
O1    Ba1   2.930979 S    
C8    C50   1.470720 S    
O3    Ba1   2.964392 S    
C47   H17   1.083498 S    
O3    P6    1.774503 S    
C11   Br7   1.865471 S    
O6    C10   1.404838 S    
C28   Br14  1.887063 S    
C46   H16   1.086355 S    
C13   H7    1.103555 S    
P2    O20   1.628125 S    
C7    Br3   1.933488 S    
P2    O7    1.641573 D    
Ba2   O21   2.953484 S    
P3    O8    1.756858 S    
O16   P7    1.839070 S    
C5    Br1   1.930347 S    
P4    C20   1.916401 S    
C55   O35   1.218299 D    
C65   H35   1.071574 S    
C37   C44   1.451848 A    
C60   O40   1.213476 D    
C21   C22   1.530034 S    
P8    O23   1.535886 D    
C11   C12   1.583835 S    
C18   H11   1.068993 S    
C24   H12   1.083612 S    
C16   Br11  1.920028 S    
C15   C58   1.498724 S    
C33   C64   1.460551 S    
C12   H5    1.108939 S    
C50   H20   1.070215 S    
C56   O36   1.222724 D    
O4    P6    1.544746 D    
P7    O21   1.593546 D    
C10   H4    1.096880 S    
C54   O34   1.207203 D    
Ba1   O13   2.963347 S    
C4    C5    1.599817 S    
O16   Ba2   3.149314 S    
C7    C49   1.491089 S    
C37   C41   1.380531 A    
C33   C34   1.401281 A    
P3    O9    1.530066 D    
C27   C30   1.427261 A    
C52   H22   1.085379 S    
C3    C66   1.480923 S    
C1    C53   1.519046 S    
C57   O37   1.218941 D    
C5    C46   1.516987 S    
C63   H33   1.075246 S    
C9    Br6   1.951006 S    
O7    Ba1   2.953283 S    
C3    H1    1.088364 S    
P1    C29   1.962408 S    
O14   Ba2   2.963647 S    
C58   O38   1.213173 D    
C4    C67   1.481302 S    
C58   H28   1.074664 S    
O19   C13   1.409956 S    
Ba1   O20   3.150326 S    
C33   C44   1.421728 A    
C54   H24   1.076608 S    
O5    C6    1.391189 S    
P4    O13   1.630035 S    
P5    O17   1.768320 S    
C51   O31   1.218531 D    
C55   H25   1.084893 S    
O10   C8    1.425193 S    
C17   C60   1.477715 S    
C67   O47   1.206370 D    
C32   C42   1.422700 A    
C57   H27   1.082981 S    
C1    C51   1.496423 S    
C19   C20   1.349476 D    
C15   Br10  1.928156 S    
P7    O22   1.812474 S    
C17   C21   1.384637 D    
P1    Ba1   3.578552 S    
C60   H30   1.068329 S    
C64   O44   1.217340 D    
C35   C36   1.422456 A    
P8    O24   1.774272 S    
P1    O5    1.779601 S    
O6    P6    1.765437 S    
C40   C61   1.453774 S    
C18   C30   1.440722 A    
O2    Ba1   3.161856 S    
C26   C28   1.416633 A    
C1    C10   1.570891 S    
O14   P8    1.743129 S    
C43   Br15  1.909307 S    
C49   H19   1.078242 S    
P5    C34   1.887194 S    
C47   O27   1.218512 D    
C50   O30   1.218117 D    
