data_mof_unit_5090.cif
_audit_creation_date              2012-10-26T20:06:12-0400
_audit_creation_method            fapswitch 2.2
_symmetry_space_group_name_H-M    P1
_symmetry_Int_Tables_number       1
_space_group_crystal_system       triclinic
_cell_length_a                    9.573985
_cell_length_b                    10.781508
_cell_length_c                    13.509054
_cell_angle_alpha                 91.343177
_cell_angle_beta                  73.798521
_cell_angle_gamma                 91.038264
_cell_volume                      1338.58841622

loop_
_atom_site_label
_atom_site_type_symbol
_atom_type_description
_atom_site_fract_x
_atom_site_fract_y
_atom_site_fract_z
_atom_type_partial_charge
C1    C     C_R   0.501274 0.737694 0.499786 0.587616
C2    C     C_R   0.388244 0.457144 0.809459 -0.049315
C3    C     C_R   0.628116 0.936933 0.443638 0.226876
C4    C     C_R   0.424656 0.486902 0.698547 0.534953
C5    C     C_R   0.624887 0.066359 0.444387 -0.127460
C6    C     C_R   0.499873 0.128771 0.500358 0.001877
C7    C     C_R   0.378684 0.063496 0.558288 -0.145666
C8    C     C_R   0.379859 0.935124 0.557100 -0.190538
C9    C     C_R   0.503699 0.871820 0.499933 0.058006
C10   C     C_R   0.910107 0.595127 0.545393 0.012729
C11   C     C_R   0.058654 0.595427 0.544944 -0.001929
C12   C     C_R   0.450668 0.459747 0.973478 0.001010
C13   C     C_R   0.085957 0.402595 0.456616 0.094797
C14   C     C_R   0.938950 0.405134 0.455520 0.003894
C15   C     C_R   0.499208 0.262439 0.500284 0.551780
C16   C     C_R   0.577218 0.505600 0.300922 0.556996
C17   C     C_R   0.809226 0.519766 0.026539 -0.096970
C18   C     C_R   0.621826 0.512274 0.188427 -0.001633
C19   C     C_R   0.243564 0.427957 0.862001 -0.083674
C20   C     C_R   0.203892 0.404738 0.967233 0.227702
C21   C     C_R   0.304497 0.428490 0.023598 -0.115687
C22   C     C_R   0.162991 0.288385 0.411878 0.065533
C23   C     C_R   0.496205 0.455873 0.864423 0.015552
C24   C     C_R   0.256233 0.287317 0.311716 -0.067804
C25   C     C_R   0.315234 0.176314 0.263888 -0.120186
C26   C     C_R   0.275375 0.064073 0.314325 -0.095995
C27   C     C_R   0.175771 0.063092 0.412096 -0.111967
C28   C     C_R   0.120394 0.174728 0.461100 -0.113278
C29   C     C_R   0.555438 0.485797 0.028102 0.030609
C30   C     C_R   0.705023 0.493735 0.973974 0.053633
C31   C     C_R   0.749722 0.469894 0.868705 -0.139000
C32   C     C_R   0.647588 0.446404 0.815539 -0.111022
C33   C     C_R   0.516192 0.505189 0.135007 -0.142636
C34   C     C_R   0.768805 0.523914 0.133623 -0.112387
Cu1   Cu    Cu3+1 0.359340 0.499980 0.500000 0.941698
Cu2   Cu    Cu3+1 0.640660 0.500020 0.500000 0.956833
H1    H     H_    0.852233 0.536107 0.173239 0.143653
H2    H     H_    0.404148 0.516587 0.177521 0.114266
H3    H     H_    0.161786 0.418455 0.820637 0.143005
H4    H     H_    0.268305 0.414383 0.105415 0.075979
H5    H     H_    0.692178 0.412704 0.737723 0.161821
H6    H     H_    0.277890 0.371760 0.269779 0.105052
H7    H     H_    0.388592 0.177084 0.186718 0.117888
H8    H     H_    0.319462 0.977802 0.276975 0.123411
H9    H     H_    0.142134 0.975926 0.450258 0.118914
H10   H     H_    0.042302 0.172579 0.536547 0.096113
H11   H     H_    0.055453 0.345502 0.087161 0.320049
H12   H     H_    0.718756 0.118338 0.400267 0.103804
H13   H     H_    0.826040 0.932946 0.352959 0.316373
H14   H     H_    0.283412 0.111799 0.604134 0.133163
H15   H     H_    0.284625 0.885139 0.601624 0.118724
H16   H     H_    0.841877 0.671364 0.582315 0.126691
H17   H     H_    0.100996 0.671878 0.581557 0.110805
H18   H     H_    0.893765 0.329645 0.419488 0.115846
H19   H     H_    0.864437 0.465911 0.827578 0.110556
H20   H     H_    0.922321 0.533105 0.984585 0.158522
N1    N     N_R   0.147940 0.499970 0.499970 -0.230427
N2    N     N_R   0.852060 0.500060 0.499990 -0.240619
O1    O     O_R   0.381250 0.680340 0.500010 -0.525609
O2    O     O_3   0.748798 0.872793 0.386826 -0.691024
O3    O     O_R   0.618820 0.680370 0.500010 -0.449087
O4    O     O_R   0.323240 0.499950 0.650980 -0.510747
O5    O     O_R   0.560810 0.499980 0.650980 -0.518636
O6    O     O_R   0.381180 0.319630 0.499990 -0.490218
O7    O     O_R   0.618750 0.319660 0.499990 -0.524349
O8    O     O_R   0.439190 0.500020 0.349020 -0.511309
O9    O     O_R   0.676760 0.500050 0.349020 -0.493696
O10   O     O_3   0.066717 0.357637 0.012778 -0.723863

loop_
_geom_bond_atom_site_label_1
_geom_bond_atom_site_label_2
_ccdc_geom_bond_type
C1    O3    A    
C2    C4    S    
C15   O6    A    
C24   C25   A    
C6    C7    A    
C3    C9    A    
C4    O4    A    
C12   C29   A    
C34   H1    S    
C24   H6    S    
C19   C20   A    
C31   C32   A    
C8    H15   S    
C30   C31   A    
Cu1   N1    S    
C25   C26   A    
C10   H16   S    
C23   C32   A    
C27   H9    S    
C15   O7    A    
C1    O1    A    
C6    C15   S    
Cu2   O9    S    
C26   H8    S    
C7    C8    A    
C16   O9    A    
C22   C28   A    
C13   C14   A    
C3    O2    S    
C17   C30   A    
H13   O2    S    
C17   H20   S    
C28   H10   S    
C26   C27   A    
Cu1   O6    S    
C21   H4    S    
C19   H3    S    
C4    O5    A    
C25   H7    S    
C14   H18   S    
C13   C22   S    
Cu1   O4    S    
Cu2   N2    S    
C18   C34   A    
C5    C6    A    
C14   N2    A    
C18   C33   A    
C22   C24   A    
C16   O8    A    
C10   C11   A    
C32   H5    S    
C29   C30   A    
Cu2   O3    S    
Cu2   O5    S    
C1    C9    S    
C29   C33   A    
H11   O10   S    
C27   C28   A    
C13   N1    A    
C20   C21   A    
Cu1   O1    S    
C17   C34   A    
C2    C23   A    
Cu2   O7    S    
C12   C23   A    
C3    C5    A    
Cu1   O8    S    
C31   H19   S    
C2    C19   A    
C11   N1    A    
C12   C21   A    
C20   O10   S    
C16   C18   S    
C33   H2    S    
C7    H14   S    
C5    H12   S    
C8    C9    A    
C10   N2    A    
Cu1   Cu2   S    
C11   H17   S    
