data_mof_unit_31256.cif
_audit_creation_date              2012-12-10T17:51:22-0500
_audit_creation_method            fapswitch 2.2
_symmetry_space_group_name_H-M    P1
_symmetry_Int_Tables_number       1
_space_group_crystal_system       triclinic
_cell_length_a                    14.736255
_cell_length_b                    14.6539
_cell_length_c                    17.321808
_cell_angle_alpha                 105.6404
_cell_angle_beta                  73.714938
_cell_angle_gamma                 115.034494
_cell_volume                      3203.77917707

loop_
_atom_site_label
_atom_site_type_symbol
_atom_type_description
_atom_site_fract_x
_atom_site_fract_y
_atom_site_fract_z
_atom_type_partial_charge
C1    C     C_R   0.119235 0.688619 0.512036 0.854685
C2    C     C_R   0.881179 0.311738 0.484480 0.865754
C3    C     C_R   0.187669 0.798075 0.517925 -0.155762
C4    C     C_R   0.812402 0.203557 0.479028 -0.148943
C5    C     C_R   0.213640 0.977560 0.535256 0.458826
C6    C     C_R   0.779492 0.026496 0.477266 0.462951
C7    C     C_R   0.148367 0.874593 0.533852 -0.287719
C8    C     C_R   0.847953 0.127202 0.474057 -0.289641
C9    C     C_R   0.294053 0.825980 0.499802 0.370022
C10   C     C_R   0.709271 0.176174 0.477808 0.380035
C11   C     C_R   0.358342 0.929526 0.520026 -0.090459
C12   C     C_R   0.637197 0.081202 0.498872 -0.088349
C13   C     C_R   0.317663 0.007258 0.539170 -0.147247
C14   C     C_R   0.673513 0.006506 0.502178 -0.136541
C15   C     C_R   0.462801 0.957053 0.520094 0.040456
C16   C     C_R   0.530403 0.058672 0.517374 0.023582
C17   C     C_R   0.488917 0.135039 0.543535 -0.240731
C18   C     C_R   0.499020 0.889023 0.533466 -0.247936
C19   C     C_R   0.383468 0.110292 0.561156 0.445764
C20   C     C_R   0.602238 0.916407 0.531786 0.426157
C21   C     C_R   0.316928 0.363237 0.342756 -0.221934
C22   C     C_R   0.675722 0.621742 0.661853 -0.180525
C23   C     C_R   0.991123 0.504369 0.652444 0.862605
C24   C     C_R   0.008388 0.494877 0.347571 0.868862
C25   C     C_R   0.225785 0.378598 0.370964 0.597116
C26   C     C_R   0.771737 0.617789 0.630250 0.600691
C27   C     C_R   0.279056 0.477540 0.495158 0.024167
C28   C     C_R   0.718568 0.515469 0.506817 0.023213
C29   C     C_R   0.371537 0.458622 0.470552 -0.000782
C30   C     C_R   0.620538 0.522616 0.534841 -0.003785
C31   C     C_R   0.389864 0.402679 0.391572 0.074011
C32   C     C_R   0.600047 0.574547 0.615162 0.095886
C33   C     C_R   0.447153 0.494665 0.520032 0.138227
C34   C     C_R   0.542380 0.480447 0.487015 0.118526
C35   C     C_R   0.556374 0.425411 0.407266 -0.162233
C36   C     C_R   0.429748 0.542234 0.601895 -0.181988
C37   C     C_R   0.480888 0.386200 0.361122 -0.136144
C38   C     C_R   0.504616 0.580650 0.648559 -0.136494
C39   C     C_R   0.987797 0.501441 0.737036 -0.112145
C40   C     C_R   0.009601 0.494963 0.262882 -0.112527
C41   C     C_R   0.078403 0.520349 0.762028 0.350496
C42   C     C_R   0.917279 0.471341 0.238559 0.346657
C43   C     C_R   0.072626 0.496106 0.837199 0.346639
C44   C     C_R   0.919892 0.493573 0.163448 0.340500
C45   C     C_R   0.977327 0.468548 0.891325 -0.048011
C46   C     C_R   0.014496 0.523920 0.108700 -0.042941
C47   C     C_R   0.888969 0.455820 0.867467 -0.135829
C48   C     C_R   0.104733 0.540790 0.131859 -0.140894
C49   C     C_R   0.893816 0.470633 0.790345 -0.240962
C50   C     C_R   0.102610 0.527918 0.208932 -0.242172
C51   C     C_2   0.967696 0.457600 0.974907 -0.024816
C52   C     C_2   0.022267 0.534895 0.025471 -0.035405
Cu1   Cu    Cu3+1 0.916740 0.524770 0.521640 1.013903
Cu2   Cu    Cu3+1 0.083260 0.475230 0.478360 1.017133
H1    H     H_    0.537818 0.214120 0.559251 0.225789
H2    H     H_    0.445498 0.818042 0.553277 0.189005
H3    H     H_    0.494585 0.343492 0.300240 0.162565
H4    H     H_    0.488371 0.617966 0.711106 0.172288
H5    H     H_    0.737535 0.470983 0.448899 0.200619
H6    H     H_    0.263425 0.526066 0.551796 0.180560
H7    H     H_    0.329750 0.318698 0.282519 0.177909
H8    H     H_    0.661090 0.663550 0.722978 0.184783
H9    H     H_    0.624790 0.410484 0.378668 0.175613
H10   H     H_    0.358287 0.550255 0.631946 0.178678
H11   H     H_    0.173739 0.545654 0.227002 0.199816
H12   H     H_    0.823938 0.456385 0.771841 0.199102
H13   H     H_    0.078666 0.604145 0.003620 0.181576
H14   H     H_    0.911599 0.388009 0.996327 0.189021
H15   H     H_    0.815843 0.433927 0.908777 0.211708
H16   H     H_    0.177294 0.564806 0.090123 0.210854
H17   H     H_    0.929218 0.144706 0.462892 0.217533
H18   H     H_    0.067695 0.853187 0.536699 0.232612
N1    N     N_R   0.208390 0.438070 0.445820 -0.237132
N2    N     N_R   0.791610 0.561930 0.554180 -0.247613
O1    O     O_R   0.020090 0.662480 0.528530 -0.624926
O2    O     O_R   0.979910 0.337520 0.471470 -0.628259
O3    O     O_R   0.160710 0.620650 0.491980 -0.517275
O4    O     O_R   0.839290 0.379350 0.508020 -0.530174
O5    O     O_R   0.921540 0.523360 0.633990 -0.590823
O6    O     O_R   0.078460 0.476640 0.366010 -0.582767
O7    O     O_R   0.062170 0.481520 0.597440 -0.537147
O8    O     O_R   0.937830 0.518480 0.402560 -0.536575
O9    O     O_3   0.170818 0.562169 0.711574 -0.720341
H19   H     H_    0.223924 0.601588 0.745309 0.359795
O10   O     O_3   0.826335 0.427375 0.289813 -0.705686
H20   H     H_    0.773013 0.385384 0.256644 0.363550
O11   O     O_3   0.842519 0.668292 0.680023 -0.704406
H21   H     H_    0.910405 0.689353 0.645105 0.363719
O12   O     O_3   0.156956 0.334091 0.319456 -0.707434
H22   H     H_    0.088329 0.311882 0.353198 0.360767
S1    S     S_3+6 0.808070 0.496052 0.144544 -0.003473
O13   O     O_2   0.835074 0.569957 0.088483 -0.259418
O14   O     O_2   0.745514 0.390618 0.106388 -0.326560
O15   O     O_3   0.738467 0.532407 0.233234 -0.493494
H23   H     H_    0.671759 0.517422 0.220159 0.380877
S2    S     S_3+6 0.181215 0.488456 0.857417 0.005168
O16   O     O_2   0.246510 0.592673 0.895337 -0.330823
O17   O     O_2   0.149894 0.414285 0.914218 -0.248297
O18   O     O_3   0.249499 0.448733 0.769431 -0.483670
H24   H     H_    0.315587 0.462277 0.782877 0.368182
S3    S     S_3+6 0.340546 0.204521 0.630047 0.073937
O19   O     O_2   0.330785 0.272525 0.584196 -0.232499
O20   O     O_2   0.239928 0.154860 0.683178 -0.200888
O21   O     O_3   0.426567 0.277355 0.690307 -0.537653
H25   H     H_    0.406343 0.336160 0.718855 0.377346
S4    S     S_3+6 0.632765 0.852910 0.588861 0.062759
O22   O     O_2   0.646216 0.757810 0.536522 -0.252684
O23   O     O_2   0.728719 0.921903 0.620879 -0.195189
O24   O     O_3   0.537928 0.820724 0.669605 -0.508405
H26   H     H_    0.482466 0.760552 0.647292 0.332505
O25   O     O_3   0.683240 0.240393 0.450267 -0.725972
H27   H     H_    0.627492 0.197590 0.419436 0.331731
O26   O     O_3   0.333534 0.752535 0.456238 -0.715627
H28   H     H_    0.396911 0.785290 0.418172 0.338093
S5    S     S_3+6 0.169929 0.055075 0.504009 0.072397
O27   O     O_2   0.114851 0.107579 0.576253 -0.173291
O28   O     O_2   0.257871 0.132913 0.458608 -0.285497
O29   O     O_3   0.088581 0.980282 0.440612 -0.500884
H29   H     H_    0.083786 0.028229 0.412555 0.396139
S6    S     S_3+6 0.827141 0.928627 0.427065 0.079127
O30   O     O_2   0.869108 0.903109 0.484555 -0.177592
O31   O     O_2   0.744370 0.834497 0.394047 -0.239718
O32   O     O_3   0.921458 0.970391 0.348458 -0.541268
H30   H     H_    0.941383 0.911231 0.320536 0.393388

loop_
_geom_bond_atom_site_label_1
_geom_bond_atom_site_label_2
_ccdc_geom_bond_type
C15   C18   A    
O11   H21   S    
S3    O19   D    
C19   S3    S    
C29   C33   A    
C27   C29   A    
C1    O3    A    
O25   H27   S    
C4    C8    A    
C28   N2    A    
O32   H30   S    
C39   C41   A    
Cu1   Cu2   S    
C21   C31   A    
C22   C32   A    
O9    H19   S    
C3    C9    A    
C35   C37   A    
C3    C7    A    
C27   H6    S    
C23   C39   S    
C6    C14   A    
S4    O22   D    
C45   C51   S    
S5    O27   D    
C41   O9    S    
S2    O18   S    
C46   C52   S    
C33   C36   A    
C18   C20   A    
C34   C35   A    
C24   O8    A    
O29   H29   S    
C47   H15   S    
C24   C40   S    
C38   H4    S    
C11   C15   A    
C24   O6    A    
C12   C16   A    
C44   C46   A    
C26   O11   S    
S5    O28   D    
S2    O17   D    
C32   C38   A    
C17   H1    S    
C5    C13   A    
S6    O32   S    
C18   H2    S    
Cu2   O3    S    
C40   C42   A    
S3    O20   D    
C5    S5    S    
C41   C43   A    
Cu1   O1    S    
C42   C44   A    
C6    S6    S    
O21   H25   S    
S6    O31   D    
C43   S2    S    
C20   S4    S    
C45   C47   A    
C46   C48   A    
C49   H12   S    
C30   C34   A    
C51   C52   D    
C1    O1    A    
C14   C20   A    
C47   C49   A    
C7    H18   S    
C5    C7    A    
C13   C19   A    
C16   C17   A    
C6    C8    A    
O10   H20   S    
S1    O14   D    
C31   C37   A    
Cu1   O8    S    
C1    C3    S    
C2    C4    S    
C2    O4    A    
C22   H8    S    
Cu2   N1    S    
C43   C45   A    
O18   H24   S    
S5    O29   S    
S2    O16   D    
C33   C34   A    
C10   O25   S    
C42   O10   S    
C48   C50   A    
C9    C11   A    
C44   S1    S    
C10   C12   A    
Cu2   O2    S    
C39   C49   A    
C12   C14   A    
S3    O21   S    
Cu2   O6    S    
C4    C10   A    
S1    O13   D    
C2    O2    A    
S6    O30   D    
O26   H28   S    
C28   H5    S    
C21   C25   A    
C8    H17   S    
C23   O7    A    
Cu1   O5    S    
C21   H7    S    
C48   H16   S    
C25   O12   S    
C9    O26   S    
C36   C38   A    
Cu1   O4    S    
C29   C31   A    
C36   H10   S    
O24   H26   S    
S1    O15   S    
C30   C32   A    
C11   C13   A    
S4    O23   D    
C52   H13   S    
C40   C50   A    
C28   C30   A    
C26   N2    A    
C25   N1    A    
C51   H14   S    
O15   H23   S    
C50   H11   S    
C17   C19   A    
C22   C26   A    
C35   H9    S    
C23   O5    A    
O12   H22   S    
C27   N1    A    
S4    O24   S    
Cu2   O7    S    
C37   H3    S    
C15   C16   A    
Cu1   N2    S    
