data_mof_unit_28229.cif
_audit_creation_date              2012-12-10T16:50:56-0500
_audit_creation_method            fapswitch 2.2
_symmetry_space_group_name_H-M    P1
_symmetry_Int_Tables_number       1
_space_group_crystal_system       triclinic
_cell_length_a                    8.106672
_cell_length_b                    8.554522
_cell_length_c                    10.619371
_cell_angle_alpha                 93.984131
_cell_angle_beta                  87.781731
_cell_angle_gamma                 92.341309
_cell_volume                      733.571174507

loop_
_atom_site_label
_atom_site_type_symbol
_atom_type_description
_atom_site_fract_x
_atom_site_fract_y
_atom_site_fract_z
_atom_type_partial_charge
C1    C     C_R   0.543456 0.792834 0.497194 0.920127
C2    C     C_R   0.937618 0.588669 0.105540 -0.060547
C3    C     C_R   0.074090 0.686540 0.076175 -0.169953
C4    C     C_R   0.939012 0.493234 0.991196 -0.136473
C5    C     C_R   0.218112 0.679340 0.143033 -0.195660
C6    C     C_R   0.803405 0.478986 0.911916 -0.249987
C7    C     C_R   0.358813 0.615021 0.082312 0.092364
C8    C     C_R   0.654689 0.544239 0.952753 0.096760
C9    C     C_R   0.357115 0.558990 0.954782 0.080265
C10   C     C_R   0.648748 0.614207 0.076931 0.092841
C11   C     C_R   0.502115 0.605763 0.145610 -0.241876
C12   C     C_R   0.456539 0.207266 0.501262 0.963484
C13   C     C_R   0.506410 0.523090 0.885118 -0.235651
C14   C     C_3   0.016524 0.312577 0.409348 -0.159550
C15   C     C_3   0.915970 0.230303 0.302171 -0.375862
C16   C     C_3   0.962616 0.059455 0.277801 -0.989214
C17   C     C_3   0.982436 0.645882 0.632850 -0.175512
C18   C     C_3   0.065141 0.809635 0.633410 -0.348232
C19   C     C_3   0.964935 0.932649 0.710631 -0.973847
C20   C     C_2   0.565984 0.956444 0.495374 -0.385663
C21   C     C_2   0.434099 0.043489 0.498323 -0.388027
C22   C     C_R   0.503314 0.500655 0.742829 0.856143
C23   C     C_R   0.500661 0.533686 0.267648 0.885846
C24   C     C_R   0.202611 0.529301 0.905380 -0.195457
C25   C     C_R   0.791908 0.661798 0.139839 -0.208819
C26   C     C_R   0.064701 0.600286 0.959824 -0.087393
H1    H     H_    0.979243 0.374745 0.001383 0.145140
H2    H     H_    0.308531 0.995318 0.498585 0.173960
H3    H     H_    0.095853 0.052552 0.250196 0.265852
H4    H     H_    0.936841 0.993430 0.363129 0.268824
H5    H     H_    0.888721 0.004053 0.199791 0.260449
H6    H     H_    0.782399 0.233037 0.320047 0.288527
H7    H     H_    0.943114 0.286087 0.212970 0.200279
H8    H     H_    0.137886 0.336539 0.364058 0.228621
H9    H     H_    0.025599 0.230638 0.485427 0.189327
H10   H     H_    0.839709 0.937931 0.673037 0.271765
H11   H     H_    0.952797 0.905773 0.811277 0.261277
H12   H     H_    0.045403 0.810007 0.077251 0.155300
H13   H     H_    0.028312 0.049723 0.705013 0.260377
H14   H     H_    0.188360 0.807785 0.675046 0.255846
H15   H     H_    0.077608 0.844587 0.534652 0.225985
H16   H     H_    0.851364 0.656845 0.629401 0.254623
H17   H     H_    0.002013 0.589486 0.718679 0.144239
H18   H     H_    0.181171 0.428396 0.839528 0.169922
H19   H     H_    0.783839 0.728536 0.230577 0.166943
H20   H     H_    0.030076 0.684229 0.894994 0.167557
H21   H     H_    0.963721 0.527252 0.187938 0.172448
H22   H     H_    0.224782 0.739553 0.236150 0.166125
H23   H     H_    0.809740 0.396383 0.830201 0.171219
H24   H     H_    0.691688 0.005274 0.493437 0.189310
N1    N     N_2   0.950330 0.457950 0.466250 -0.082844
N2    N     N_2   0.049670 0.542050 0.533750 -0.082529
O1    O     O_R   0.389250 0.738570 0.508280 -0.630393
O2    O     O_R   0.610750 0.261430 0.491720 -0.618785
O3    O     O_R   0.678390 0.711630 0.486650 -0.656288
O4    O     O_R   0.321610 0.288370 0.513350 -0.657425
O5    O     O_R   0.355430 0.513480 0.694040 -0.616578
O6    O     O_R   0.644570 0.486520 0.305960 -0.629753
O7    O     O_R   0.644570 0.486540 0.672410 -0.645601
O8    O     O_R   0.355430 0.513460 0.327590 -0.642667
Zn1   Zn    Zn3+2 0.306940 0.517990 0.514440 0.897342
Zn2   Zn    Zn3+2 0.693060 0.482010 0.485560 0.901501

loop_
_geom_bond_atom_site_label_1
_geom_bond_atom_site_label_2
_ccdc_geom_bond_type
C17   C18   S    
C14   H8    S    
C23   O6    A    
C4    C26   A    
C17   H17   S    
C9    C24   A    
O6    Zn2   S    
C8    C13   A    
C2    H21   S    
C19   H11   S    
C2    C4    A    
C14   N1    S    
N2    Zn1   S    
C22   O5    A    
C2    C3    A    
C1    O3    A    
C15   H6    S    
O4    Zn1   S    
C16   H5    S    
O5    Zn1   S    
C12   O4    A    
N1    Zn2   S    
C19   H13   S    
C6    C8    A    
C17   N2    S    
C4    C6    A    
C21   H2    S    
C24   C26   A    
C13   C22   S    
C7    C11   A    
C2    C25   A    
C5    C7    A    
C19   H10   S    
C6    H23   S    
C23   O8    A    
C24   H18   S    
C5    H22   S    
C10   C11   A    
C26   H20   S    
C16   H4    S    
N1    N2    D    
O3    Zn2   S    
C25   H19   S    
C22   O7    A    
C4    H1    S    
C9    C13   A    
C20   C21   D    
C10   C25   A    
C8    C10   A    
C18   C19   S    
C18   H15   S    
C11   C23   S    
C14   H9    S    
C7    C9    A    
C18   H14   S    
C1    O1    A    
C17   H16   S    
C1    C20   S    
C20   H24   S    
O2    Zn2   S    
C3    C5    A    
C16   H3    S    
C14   C15   S    
O1    Zn1   S    
C12   C21   S    
C15   H7    S    
C3    C26   A    
C12   O2    A    
C15   C16   S    
C3    H12   S    
O8    Zn1   S    
O7    Zn2   S    
