data_mof_unit_60738.cif
_audit_creation_date              2013-03-05T15:50:28-0500
_audit_creation_method            fapswitch 2.2
_symmetry_space_group_name_H-M    P1
_symmetry_Int_Tables_number       1
_space_group_crystal_system       triclinic
_cell_length_a                    37.531012
_cell_length_b                    30.343576
_cell_length_c                    21.559545
_cell_angle_alpha                 90.008899
_cell_angle_beta                  53.973776
_cell_angle_gamma                 90.012324
_cell_volume                      19856.8234298

loop_
_atom_site_label
_atom_site_type_symbol
_atom_site_description
_atom_site_fract_x
_atom_site_fract_y
_atom_site_fract_z
_atom_type_partial_charge
O1    O     O_R   0.064870 0.537550 0.435160 -0.576308
O2    O     O_R   0.935130 0.537550 0.564840 -0.576282
O3    O     O_R   0.564870 0.037550 0.435160 -0.576315
O4    O     O_R   0.435130 0.037550 0.564840 -0.576297
O5    O     O_R   0.064850 0.462440 0.435150 -0.528797
O6    O     O_R   0.935150 0.462440 0.564850 -0.528858
O7    O     O_R   0.564850 0.962440 0.435150 -0.528763
O8    O     O_R   0.435150 0.962440 0.564850 -0.528790
C1    C     C_R   0.085478 0.500016 0.416789 0.862603
C2    C     C_R   0.914524 0.500010 0.583206 0.862740
C3    C     C_R   0.585479 0.000016 0.416783 0.862553
C4    C     C_R   0.414522 0.000010 0.583213 0.862556
O9    O     O_R   0.999990 0.537540 0.591580 -0.578662
O10   O     O_R   0.000010 0.537540 0.408420 -0.578659
O11   O     O_R   0.499990 0.037540 0.591580 -0.578672
O12   O     O_R   0.500010 0.037540 0.408420 -0.578657
O13   O     O_R   0.999980 0.462440 0.591580 -0.522850
O14   O     O_R   0.000020 0.462440 0.408420 -0.522860
O15   O     O_R   0.499980 0.962440 0.591580 -0.522817
O16   O     O_R   0.500020 0.962440 0.408420 -0.522842
C5    C     C_R   0.999671 0.499819 0.620467 0.913467
C6    C     C_R   0.000326 0.499814 0.379534 0.913282
C7    C     C_R   0.499669 0.999819 0.620469 0.913305
C8    C     C_R   0.500329 0.999814 0.379533 0.913241
Cu1   Cu    Cu3+1 0.000000 0.544460 0.500000 1.125883
Cu2   Cu    Cu3+1 0.500000 0.044460 0.500000 1.125900
Cu3   Cu    Cu3+1 0.000000 0.455520 0.500000 1.260792
Cu4   Cu    Cu3+1 0.500000 0.955520 0.500000 1.260996
C9    C     C_3   0.039289 0.484604 0.688646 0.175690
C10   C     C_3   0.960711 0.484575 0.311342 0.175748
C11   C     C_3   0.539294 0.984623 0.688632 0.175706
C12   C     C_3   0.460703 0.984600 0.311359 0.175676
C13   C     C_3   0.008270 0.459178 0.762919 0.184772
C14   C     C_3   0.991736 0.459163 0.237054 0.184866
C15   C     C_3   0.508290 0.959181 0.762892 0.184867
C16   C     C_3   0.491708 0.959165 0.237090 0.184725
C17   C     C_3   0.002082 0.500214 0.809782 -0.306143
C18   C     C_3   0.997920 0.500202 0.190215 -0.306107
C19   C     C_3   0.502086 0.000214 0.809775 -0.306081
C20   C     C_3   0.497918 0.000198 0.190220 -0.306114
C21   C     C_3   0.034432 0.526064 0.734405 0.126977
C22   C     C_3   0.965564 0.526037 0.265605 0.126876
C23   C     C_3   0.534423 0.026079 0.734409 0.127040
C24   C     C_3   0.465581 0.026057 0.265592 0.126929
C25   C     C_3   0.994718 0.540674 0.734355 0.080077
C26   C     C_3   0.005274 0.540665 0.265668 0.080095
C27   C     C_3   0.494700 0.040673 0.734372 0.080042
C28   C     C_3   0.505303 0.040659 0.265639 0.080062
C29   C     C_3   0.962354 0.514594 0.810100 0.092542
C30   C     C_3   0.037644 0.514600 0.189910 0.092473
C31   C     C_3   0.462350 0.014578 0.810105 0.092481
C32   C     C_3   0.537653 0.014571 0.189900 0.092495
C33   C     C_3   0.969270 0.473155 0.762679 0.172518
C34   C     C_3   0.030732 0.473158 0.237307 0.172416
C35   C     C_3   0.469281 0.973142 0.762666 0.172411
C36   C     C_3   0.530716 0.973134 0.237328 0.172417
C37   C     C_3   0.000415 0.499037 0.687781 -0.323692
C38   C     C_3   0.999581 0.499024 0.312221 -0.323692
C39   C     C_3   0.500412 0.999039 0.687782 -0.323754
C40   C     C_3   0.499584 0.999025 0.312221 -0.323712
C41   C     C_R   0.343221 0.473214 0.115692 0.271808
C42   C     C_R   0.656774 0.473268 0.884380 0.271873
C43   C     C_R   0.843223 0.973195 0.115711 0.271817
C44   C     C_R   0.156770 0.973203 0.884300 0.271809
C45   C     C_R   0.365777 0.498993 0.136567 -0.242338
C46   C     C_R   0.634228 0.498979 0.863422 -0.242673
C47   C     C_R   0.865778 0.998994 0.136562 -0.242318
C48   C     C_R   0.134223 0.998988 0.863434 -0.242389
C49   C     C_R   0.342402 0.522283 0.206583 0.286960
C50   C     C_R   0.657617 0.522176 0.793312 0.286882
C51   C     C_R   0.842405 0.022309 0.206551 0.286912
C52   C     C_R   0.157605 0.022282 0.793425 0.286889
C53   C     C_R   0.295808 0.521195 0.255528 -0.062088
C54   C     C_R   0.704210 0.521095 0.744394 -0.062084
C55   C     C_R   0.795810 0.021218 0.255503 -0.062080
C56   C     C_R   0.204199 0.021186 0.744472 -0.062088
C57   C     C_R   0.273118 0.494338 0.234867 -0.032003
C58   C     C_R   0.726889 0.494317 0.765152 -0.032017
C59   C     C_R   0.773119 0.994339 0.234869 -0.032011
C60   C     C_R   0.226880 0.994322 0.765124 -0.032008
C61   C     C_R   0.296851 0.469235 0.166077 -0.114447
C62   C     C_R   0.703145 0.469287 0.834021 -0.114515
C63   C     C_R   0.796853 0.969215 0.166102 -0.114441
C64   C     C_R   0.203138 0.969218 0.833910 -0.114449
C65   C     C_R   0.270832 0.544311 0.326464 0.156301
C66   C     C_R   0.729195 0.544141 0.673391 0.156207
C67   C     C_R   0.770833 0.044353 0.326421 0.156327
C68   C     C_R   0.229184 0.044299 0.673535 0.156296
C69   C     C_R   0.226002 0.535688 0.378400 0.126896
C70   C     C_R   0.774024 0.535521 0.621495 0.126942
C71   C     C_R   0.726004 0.035728 0.378366 0.126881
C72   C     C_R   0.274010 0.035670 0.621596 0.126890
C73   C     C_R   0.202634 0.517094 0.352664 -0.006376
C74   C     C_R   0.797380 0.517007 0.647298 -0.006412
C75   C     C_R   0.702636 0.017113 0.352647 -0.006371
C76   C     C_R   0.297371 0.017075 0.647330 -0.006383
C77   C     C_R   0.226354 0.493610 0.282374 -0.015101
C78   C     C_R   0.773652 0.493591 0.717654 -0.015127
C79   C     C_R   0.726355 0.993609 0.282377 -0.015106
C80   C     C_R   0.273644 0.993589 0.717615 -0.015109
C81   C     C_R   0.203381 0.469536 0.259734 -0.118000
C82   C     C_R   0.796618 0.469589 0.740367 -0.118082
C83   C     C_R   0.703382 0.969515 0.259759 -0.117971
C84   C     C_R   0.296610 0.969511 0.740247 -0.117985
C85   C     C_R   0.227469 0.442086 0.194080 0.236996
C86   C     C_R   0.772519 0.442220 0.806124 0.236962
C87   C     C_R   0.727470 0.942042 0.194135 0.237009
C88   C     C_R   0.272512 0.942058 0.805893 0.237001
C89   C     C_R   0.273468 0.440679 0.149690 0.252502
C90   C     C_R   0.726519 0.440809 0.850515 0.252441
C91   C     C_R   0.773470 0.940637 0.149746 0.252528
C92   C     C_R   0.226511 0.940656 0.850287 0.252506
C93   C     C_R   0.156607 0.522539 0.393975 0.133159
C94   C     C_R   0.843405 0.522470 0.605986 0.133037
C95   C     C_R   0.656608 0.022555 0.393955 0.133244
C96   C     C_R   0.343399 0.022522 0.606023 0.133221
C97   C     C_R   0.133916 0.499233 0.370740 -0.185316
C98   C     C_R   0.866089 0.499219 0.629265 -0.185280
C99   C     C_R   0.633918 0.999233 0.370735 -0.185344
C100  C     C_R   0.366083 0.999215 0.629253 -0.185334
C101  C     C_R   0.156977 0.473024 0.304387 0.285110
C102  C     C_R   0.843026 0.473065 0.695680 0.285104
C103  C     C_R   0.656979 0.973005 0.304402 0.285096
C104  C     C_R   0.343015 0.972997 0.695596 0.285088
O17   O     O_R   0.962450 0.435150 0.037500 -0.538604
O18   O     O_R   0.037550 0.435150 0.962500 -0.538615
O19   O     O_R   0.462450 0.935150 0.037500 -0.538806
O20   O     O_R   0.537550 0.935150 0.962500 -0.538888
C105  C     C_R   0.999996 0.414458 0.000002 0.900839
C106  C     C_R   0.499991 0.914460 0.999980 0.900988
O21   O     O_R   0.962450 0.500030 0.945950 -0.563782
O22   O     O_R   0.037550 0.500030 0.054050 -0.563755
O23   O     O_R   0.462450 0.000030 0.945950 -0.563729
O24   O     O_R   0.537550 0.000030 0.054050 -0.563681
O25   O     O_R   0.037540 0.500060 0.870890 -0.552446
O26   O     O_R   0.962460 0.500060 0.129110 -0.552475
O27   O     O_R   0.537540 0.000060 0.870890 -0.552470
O28   O     O_R   0.462460 0.000060 0.129110 -0.552485
C107  C     C_R   0.000515 0.500398 0.879370 0.934228
C108  C     C_R   0.999485 0.500393 0.120629 0.934189
C109  C     C_R   0.500516 0.000396 0.879368 0.934300
C110  C     C_R   0.499485 0.000390 0.120631 0.934386
Cu5   Cu    Cu3+1 0.955530 0.500030 0.044440 1.203306
Cu6   Cu    Cu3+1 0.044470 0.500030 0.955560 1.203281
Cu7   Cu    Cu3+1 0.455530 0.000030 0.044440 1.203112
Cu8   Cu    Cu3+1 0.544470 0.000030 0.955560 1.202853
O29   O     O_R   0.962440 0.564920 0.037550 -0.558110
O30   O     O_R   0.037560 0.564920 0.962450 -0.558100
O31   O     O_R   0.462440 0.064920 0.037550 -0.558094
O32   O     O_R   0.537560 0.064920 0.962450 -0.558108
C111  C     C_R   0.000003 0.585718 0.000003 0.895388
C112  C     C_R   0.500003 0.085718 0.000001 0.895479
O33   O     O_R   0.499970 0.435080 0.053010 -0.552858
O34   O     O_R   0.500030 0.435080 0.946990 -0.552891
O35   O     O_R   0.999970 0.935080 0.053010 -0.552930
O36   O     O_R   0.000030 0.935080 0.946990 -0.552972
C113  C     C_R   0.499999 0.414522 0.999997 0.814213
C114  C     C_R   0.999999 0.914522 0.999997 0.814251
O37   O     O_R   0.435150 0.499980 0.117890 -0.547092
O38   O     O_R   0.564850 0.499980 0.882110 -0.546880
O39   O     O_R   0.935150 0.999980 0.117890 -0.547209
O40   O     O_R   0.064850 0.999980 0.882110 -0.547160
O41   O     O_R   0.435090 0.499970 0.011940 -0.523803
O42   O     O_R   0.564910 0.499970 0.988060 -0.524209
O43   O     O_R   0.935090 0.999970 0.011940 -0.523778
O44   O     O_R   0.064910 0.999970 0.988060 -0.523842
C115  C     C_R   0.414403 0.500060 0.086195 0.865356
C116  C     C_R   0.585599 0.500060 0.913801 0.864244
C117  C     C_R   0.914404 0.000059 0.086194 0.865504
C118  C     C_R   0.085596 0.000059 0.913805 0.865333
Cu9   Cu    Cu3+1 0.500020 0.499960 0.062730 1.244488
Cu10  Cu    Cu3+1 0.499980 0.499960 0.937270 1.244711
Cu11  Cu    Cu3+1 0.000020 0.999960 0.062730 1.244509
Cu12  Cu    Cu3+1 0.999980 0.999960 0.937270 1.244530
O45   O     O_R   0.500060 0.564850 0.052930 -0.532996
O46   O     O_R   0.499940 0.564850 0.947070 -0.532542
O47   O     O_R   0.000060 0.064850 0.052930 -0.532844
O48   O     O_R   0.999940 0.064850 0.947070 -0.532774
C119  C     C_R   0.500004 0.585355 0.000013 0.881097
C120  C     C_R   0.999999 0.085349 0.000007 0.882291
C121  C     C_R   0.528347 0.656300 0.011118 0.282944
C122  C     C_R   0.471175 0.656246 0.989889 0.282908
C123  C     C_R   0.028565 0.156267 0.010651 0.282730
C124  C     C_R   0.971339 0.156245 0.989566 0.282728
C125  C     C_R   0.499858 0.633631 0.000284 -0.233627
C126  C     C_R   0.999971 0.133616 0.000064 -0.233867
C127  C     C_R   0.470454 0.702896 0.990414 -0.109892
C128  C     C_R   0.528624 0.702948 0.011599 -0.109991
C129  C     C_R   0.970578 0.202890 0.990231 -0.109898
C130  C     C_R   0.029249 0.202913 0.010167 -0.109930
C131  C     C_R   0.499558 0.726243 0.000937 -0.023327
C132  C     C_R   0.999915 0.226229 0.000190 -0.023349
C133  C     C_R   0.442156 0.726954 0.979306 0.243776
C134  C     C_R   0.556415 0.727057 0.023893 0.243293
C135  C     C_R   0.942015 0.226944 0.979778 0.243981
C136  C     C_R   0.057725 0.226994 0.020825 0.243867
C137  C     C_R   0.943107 0.272929 0.977653 0.245602
C138  C     C_R   0.056653 0.272979 0.022875 0.245716
C139  C     C_R   0.443288 0.772946 0.977096 0.245745
C140  C     C_R   0.555463 0.773052 0.025542 0.246374
C141  C     C_R   0.970162 0.296435 0.991897 -0.105347
C142  C     C_R   0.029684 0.296452 0.008423 -0.105267
C143  C     C_R   0.470126 0.796452 0.991833 -0.105240
C144  C     C_R   0.529125 0.796461 0.009625 -0.104892
C145  C     C_R   0.999919 0.273015 0.000171 -0.025951
C146  C     C_R   0.499599 0.773026 0.000799 -0.026324
C147  C     C_R   0.967835 0.342851 0.998897 0.291081
C148  C     C_R   0.032087 0.342856 0.001253 0.291120
C149  C     C_R   0.467856 0.842881 0.998671 0.291188
C150  C     C_R   0.531803 0.842826 0.001895 0.291235
C151  C     C_R   0.999979 0.365958 0.000034 -0.230719
C152  C     C_R   0.499924 0.865967 0.000082 -0.231293
C153  C     C_R   0.528602 0.343251 0.931179 0.165266
C154  C     C_R   0.471405 0.343248 0.068804 0.165363
C155  C     C_R   0.028597 0.843251 0.931177 0.165365
C156  C     C_R   0.971405 0.843248 0.068804 0.165374
C157  C     C_R   0.500000 0.366320 0.999991 -0.153283
C158  C     C_R   0.999999 0.866320 0.999991 -0.153200
C159  C     C_R   0.477115 0.297340 0.070172 -0.058633
C160  C     C_R   0.522906 0.297337 0.929807 -0.058610
C161  C     C_R   0.977113 0.797340 0.070173 -0.058628
C162  C     C_R   0.022900 0.797336 0.929808 -0.058618
C163  C     C_R   0.500012 0.273909 0.999989 -0.022787
C164  C     C_R   0.000009 0.773909 0.999991 -0.022788
C165  C     C_R   0.461933 0.274676 0.138671 0.267037
C166  C     C_R   0.538102 0.274663 0.861305 0.267035
C167  C     C_R   0.961931 0.774676 0.138672 0.267071
C168  C     C_R   0.038094 0.774662 0.861308 0.267075
C169  C     C_R   0.966222 0.728610 0.138085 0.143908
C170  C     C_R   0.033814 0.728592 0.861893 0.143858
C171  C     C_R   0.466228 0.228610 0.138082 0.143901
C172  C     C_R   0.533818 0.228594 0.861891 0.143849
C173  C     C_R   0.981521 0.704173 0.070169 -0.084895
C174  C     C_R   0.018507 0.704165 0.929817 -0.084898
C175  C     C_R   0.481526 0.204174 0.070166 -0.084905
C176  C     C_R   0.518509 0.204166 0.929815 -0.084908
C177  C     C_R   0.000012 0.727337 0.999992 -0.038353
C178  C     C_R   0.500016 0.227338 0.999990 -0.038363
C179  C     C_R   0.980154 0.657541 0.069208 0.281894
C180  C     C_R   0.019870 0.657533 0.930789 0.281949
C181  C     C_R   0.480159 0.157541 0.069204 0.281899
C182  C     C_R   0.519869 0.157534 0.930787 0.281950
C183  C     C_R   0.000010 0.634578 0.000000 -0.243297
C184  C     C_R   0.500011 0.134578 0.999998 -0.243295
N1    N     N_R   0.017207 0.414474 0.775274 0.204913
O49   O     O_R   0.021253 0.382673 0.731114 -0.191344
O50   O     O_R   0.026882 0.407213 0.823200 -0.323104
N2    N     N_R   0.982808 0.414456 0.224669 0.204960
O51   O     O_R   0.978767 0.382652 0.268809 -0.191203
O52   O     O_R   0.973134 0.407190 0.176738 -0.323194
N3    N     N_R   0.517270 0.914485 0.775199 0.205046
O53   O     O_R   0.521229 0.882672 0.731130 -0.191026
O54   O     O_R   0.527177 0.907267 0.822821 -0.322703
N4    N     N_R   0.482737 0.914462 0.224764 0.205307
O55   O     O_R   0.478686 0.882668 0.268927 -0.190280
O56   O     O_R   0.472986 0.907209 0.176935 -0.322843
I1    I     I_    0.202927 0.527973 0.495170 -0.030345
I2    I     I_    0.797129 0.527695 0.504725 -0.030140
I3    I     I_    0.702935 0.028043 0.495138 -0.030517
I4    I     I_    0.297081 0.027951 0.504826 -0.030399
I5    I     I_    0.122671 0.573797 0.478787 -0.135826
I6    I     I_    0.877344 0.573693 0.521107 -0.136045
I7    I     I_    0.622675 0.073829 0.478735 -0.135680
I8    I     I_    0.377343 0.073786 0.521226 -0.135717
N5    N     N_R   0.133194 0.455753 0.277026 0.144133
O57   O     O_R   0.121623 0.482480 0.244676 -0.319772
O58   O     O_R   0.115676 0.416692 0.298262 -0.208549
N6    N     N_R   0.866822 0.455821 0.723020 0.144184
O59   O     O_R   0.878501 0.482590 0.755171 -0.320096
O60   O     O_R   0.884278 0.416737 0.701876 -0.208621
N7    N     N_R   0.633200 0.955721 0.277041 0.144105
O61   O     O_R   0.621659 0.982429 0.244620 -0.319711
O62   O     O_R   0.615667 0.916668 0.298312 -0.208470
N8    N     N_R   0.366793 0.955717 0.722950 0.144128
O63   O     O_R   0.378357 0.982431 0.755343 -0.319736
O64   O     O_R   0.384303 0.916659 0.701692 -0.208490
N9    N     N_R   0.205826 0.412378 0.174542 0.186674
O65   O     O_R   0.199779 0.371566 0.197134 -0.202593
O66   O     O_R   0.200165 0.423643 0.122657 -0.176930
N10   N     N_R   0.794146 0.412613 0.825813 0.186708
O67   O     O_R   0.800128 0.371746 0.803503 -0.202410
O68   O     O_R   0.799841 0.424039 0.877600 -0.177133
N11   N     N_R   0.705827 0.912305 0.174641 0.186666
O69   O     O_R   0.699763 0.871509 0.197318 -0.202604
O70   O     O_R   0.700174 0.923523 0.122727 -0.176985
N12   N     N_R   0.294145 0.912341 0.825418 0.186673
O71   O     O_R   0.300183 0.871534 0.802798 -0.202570
O72   O     O_R   0.299808 0.923594 0.877310 -0.176957
N13   N     N_R   0.295588 0.407023 0.092145 0.182869
O73   O     O_R   0.294092 0.407219 0.033364 -0.185820
O74   O     O_R   0.311387 0.372757 0.104605 -0.237602
N14   N     N_R   0.704389 0.407231 0.908203 0.182893
O75   O     O_R   0.705873 0.407573 0.966997 -0.185849
O76   O     O_R   0.688621 0.372879 0.895856 -0.237456
N15   N     N_R   0.795591 0.906958 0.092245 0.182860
O77   O     O_R   0.794090 0.907109 0.033468 -0.185931
O78   O     O_R   0.811404 0.872718 0.104738 -0.237670
N16   N     N_R   0.204379 0.906998 0.907823 0.182868
O79   O     O_R   0.205878 0.907187 0.966603 -0.185864
O80   O     O_R   0.188564 0.872738 0.895359 -0.237626
N17   N     N_R   0.557733 0.631114 0.019260 0.153115
O81   O     O_R   0.545936 0.620433 0.087394 -0.229650
O82   O     O_R   0.591882 0.612115 0.959491 -0.292152
N18   N     N_R   0.442584 0.630991 0.979822 0.154598
O83   O     O_R   0.409016 0.610418 0.038073 -0.292614
O84   O     O_R   0.454778 0.621853 0.910913 -0.230197
N19   N     N_R   0.057206 0.131054 0.020628 0.154661
O85   O     O_R   0.045092 0.121990 0.089510 -0.230170
O86   O     O_R   0.090740 0.110458 0.962363 -0.292609
N20   N     N_R   0.942820 0.131011 0.979293 0.154867
O87   O     O_R   0.909375 0.110177 0.037316 -0.292683
O88   O     O_R   0.954982 0.122189 0.910304 -0.230268
N21   N     N_R   0.412067 0.705461 0.968754 0.183059
O89   O     O_R   0.420186 0.704977 0.901180 -0.193712
O90   O     O_R   0.372891 0.695039 0.028479 -0.214531
N22   N     N_R   0.585257 0.705621 0.037463 0.183028
O91   O     O_R   0.574955 0.704543 0.106582 -0.195985
O92   O     O_R   0.625292 0.696051 0.979632 -0.210991
N23   N     N_R   0.911568 0.205458 0.970104 0.183052
O93   O     O_R   0.919103 0.205084 0.902974 -0.193336
O94   O     O_R   0.872620 0.194897 0.030331 -0.215189
N24   N     N_R   0.087985 0.205535 0.030971 0.183055
O95   O     O_R   0.080109 0.205084 0.098361 -0.193656
O96   O     O_R   0.127081 0.195120 0.971017 -0.214613
N25   N     N_R   0.919111 0.295113 0.954076 0.185039
O97   O     O_R   0.876328 0.292721 0.995885 -0.178967
O98   O     O_R   0.940361 0.311985 0.885596 -0.191756
N26   N     N_R   0.080522 0.295203 0.046690 0.185050
O99   O     O_R   0.123294 0.292767 0.005187 -0.178730
O100  O     O_R   0.059140 0.312211 0.115089 -0.191831
N27   N     N_R   0.419634 0.795131 0.952835 0.185064
O101  O     O_R   0.376871 0.792702 0.993977 -0.178683
O102  O     O_R   0.441218 0.812104 0.884390 -0.191944
N28   N     N_R   0.578437 0.795375 0.051050 0.185057
O103  O     O_R   0.621119 0.792666 0.011539 -0.177618
O104  O     O_R   0.556178 0.813009 0.119053 -0.192445
N29   N     N_R   0.931650 0.366475 0.008724 0.162370
O105  O     O_R   0.892493 0.363051 0.072879 -0.240769
O106  O     O_R   0.938038 0.393026 0.955642 -0.248428
N30   N     N_R   0.068322 0.366459 0.991310 0.162361
O107  O     O_R   0.107495 0.362837 0.927249 -0.240864
O108  O     O_R   0.061993 0.393102 0.044253 -0.248403
N31   N     N_R   0.431788 0.866527 0.008103 0.162483
O109  O     O_R   0.392496 0.862958 0.071917 -0.240883
O110  O     O_R   0.438380 0.893181 0.954986 -0.249105
N32   N     N_R   0.568113 0.866291 0.991939 0.162404
O111  O     O_R   0.607484 0.861684 0.928676 -0.241274
O112  O     O_R   0.561801 0.893348 0.044394 -0.248904
I9    I     I_    0.585760 0.376913 0.837166 -0.041402
I10   I     I_    0.414245 0.376888 0.162832 -0.041316
I11   I     I_    0.085749 0.876912 0.837151 -0.041363
I12   I     I_    0.914247 0.876891 0.162835 -0.041346
N33   N     N_R   0.081206 0.466686 0.624207 0.177975
O113  O     O_R   0.110200 0.453100 0.634588 -0.241502
O114  O     O_R   0.089165 0.462383 0.557140 -0.340742
N34   N     N_R   0.918797 0.466636 0.375764 0.177957
O115  O     O_R   0.889808 0.453035 0.365366 -0.241514
O116  O     O_R   0.910840 0.462314 0.442825 -0.340670
N35   N     N_R   0.581217 0.966722 0.624181 0.177959
O117  O     O_R   0.610220 0.953148 0.634548 -0.241517
O118  O     O_R   0.589172 0.962420 0.557117 -0.340769
N36   N     N_R   0.418778 0.966691 0.375801 0.177947
O119  O     O_R   0.389774 0.953113 0.365425 -0.241559
O120  O     O_R   0.410822 0.962380 0.442862 -0.340719
N37   N     N_R   0.448557 0.298705 0.206502 0.146044
O121  O     O_R   0.476083 0.325276 0.205606 -0.261511
O122  O     O_R   0.409413 0.292999 0.269901 -0.252864
N38   N     N_R   0.551485 0.298681 0.793468 0.146053
O123  O     O_R   0.523957 0.325224 0.794342 -0.261499
O124  O     O_R   0.590639 0.292996 0.730085 -0.252881
N39   N     N_R   0.948557 0.798705 0.206502 0.146033
O125  O     O_R   0.976085 0.825273 0.205604 -0.261565
O126  O     O_R   0.909411 0.793004 0.269900 -0.252916
N40   N     N_R   0.051469 0.798679 0.793473 0.146034
O127  O     O_R   0.023937 0.825218 0.794356 -0.261586
O128  O     O_R   0.090623 0.792998 0.730086 -0.252895
I13   I     I_    0.958550 0.701267 0.237631 0.045682
I14   I     I_    0.041532 0.701222 0.762311 0.045642
I15   I     I_    0.458566 0.201267 0.237620 0.045736
I16   I     I_    0.541533 0.201227 0.762309 0.045708
N41   N     N_R   0.957690 0.632530 0.138168 0.130466
O129  O     O_R   0.979919 0.604977 0.149408 -0.384027
O130  O     O_R   0.914844 0.631404 0.181936 -0.279536
N42   N     N_R   0.042329 0.632513 0.861836 0.130451
O131  O     O_R   0.020090 0.604960 0.850599 -0.384092
O132  O     O_R   0.085174 0.631364 0.818105 -0.279543
N43   N     N_R   0.457699 0.132530 0.138163 0.130456
O133  O     O_R   0.479932 0.104976 0.149391 -0.384045
O134  O     O_R   0.414853 0.131399 0.181932 -0.279555
N44   N     N_R   0.542324 0.132514 0.861836 0.130445
O135  O     O_R   0.520081 0.104962 0.850606 -0.384086
O136  O     O_R   0.585169 0.131358 0.818107 -0.279596
I17   I     I_    0.093261 0.561988 0.694890 0.040091
I18   I     I_    0.906744 0.561943 0.305076 0.040046
I19   I     I_    0.593246 0.062021 0.694872 0.040036
I20   I     I_    0.406771 0.061994 0.305101 0.040054
I21   I     I_    0.983783 0.607312 0.716227 -0.070200
I22   I     I_    0.016193 0.607312 0.283829 -0.070139
I23   I     I_    0.483736 0.107307 0.716278 -0.070151
I24   I     I_    0.516267 0.107301 0.283748 -0.070121
I25   I     I_    0.899848 0.540487 0.903290 0.010969
I26   I     I_    0.100148 0.540517 0.096737 0.010848
I27   I     I_    0.399832 0.040443 0.903306 0.010864
I28   I     I_    0.600176 0.040446 0.096712 0.010713
N45   N     N_R   0.935946 0.441154 0.778625 0.213141
O137  O     O_R   0.899049 0.438980 0.846891 -0.178941
O138  O     O_R   0.947017 0.408583 0.731354 -0.192573
N46   N     N_R   0.064060 0.441172 0.221342 0.213100
O139  O     O_R   0.100937 0.438986 0.153050 -0.179003
O140  O     O_R   0.052997 0.408609 0.268615 -0.192498
N47   N     N_R   0.435963 0.941136 0.778603 0.213121
O141  O     O_R   0.399088 0.938920 0.846894 -0.178956
O142  O     O_R   0.447028 0.908594 0.731283 -0.192459
N48   N     N_R   0.564027 0.941132 0.221386 0.213146
O143  O     O_R   0.600900 0.938919 0.153093 -0.179004
O144  O     O_R   0.552950 0.908584 0.268692 -0.192255
N49   N     N_R   0.367718 0.452185 0.041949 0.163754
O145  O     O_R   0.367158 0.468711 0.986846 -0.227423
O146  O     O_R   0.394030 0.419519 0.027583 -0.298856
N50   N     N_R   0.632265 0.452291 0.958165 0.163790
O147  O     O_R   0.632771 0.468913 0.013274 -0.227503
O148  O     O_R   0.605981 0.419580 0.972555 -0.298592
N51   N     N_R   0.867718 0.952152 0.041979 0.163756
O149  O     O_R   0.867139 0.968649 0.986881 -0.227503
O150  O     O_R   0.894044 0.919501 0.027619 -0.298924
N52   N     N_R   0.132267 0.952175 0.958042 0.163761
O151  O     O_R   0.132839 0.968698 0.013140 -0.227496
O152  O     O_R   0.105940 0.919513 0.972410 -0.298872
N53   N     N_R   0.366670 0.544697 0.229167 0.143821
O153  O     O_R   0.371245 0.526334 0.278656 -0.270164
O154  O     O_R   0.390111 0.579254 0.191313 -0.293906
N54   N     N_R   0.633370 0.544460 0.770579 0.143884
O155  O     O_R   0.628848 0.525971 0.721103 -0.270138
O156  O     O_R   0.609923 0.579047 0.808248 -0.293063
N55   N     N_R   0.866676 0.044766 0.229087 0.143788
O157  O     O_R   0.871273 0.026441 0.278576 -0.270239
O158  O     O_R   0.890110 0.079315 0.191176 -0.293973
N56   N     N_R   0.133343 0.044718 0.770868 0.143793
O159  O     O_R   0.128739 0.026368 0.721396 -0.270223
O160  O     O_R   0.109925 0.079277 0.808745 -0.293824
I29   I     I_    0.292871 0.599545 0.358017 0.020376
I30   I     I_    0.707171 0.599294 0.641681 0.020185
I31   I     I_    0.792871 0.099608 0.357936 0.020464
I32   I     I_    0.207167 0.099532 0.641976 0.020450

loop_
_geom_bond_atom_site_label_1
_geom_bond_atom_site_label_2
_geom_bond_distance
_ccdc_geom_bond_type
O22   Cu6   1.981807 S    
C79   C83   1.417707 A    
C155  C162  1.412402 A    
C67   C71   1.391723 A    
N47   O142  1.299926 A    
N24   O96   1.301045 A    
O30   C111  1.303234 A    
O26   C108  1.290585 A    
C83   C103  1.413840 A    
N29   O105  1.300994 A    
N17   O81   1.301498 A    
C47   C117  1.476353 S    
O25   C107  1.290584 A    
C25   C37   1.548335 S    
C64   C92   1.417771 A    
C128  C131  1.427562 A    
C59   C79   1.419625 A    
N50   O147  1.301045 A    
C66   I30   2.148717 S    
C35   C39   1.539568 S    
C135  N23   1.433277 S    
O28   Cu7   1.989575 S    
Cu5   Cu6   2.700020 S    
C9    C13   1.523765 S    
C80   C84   1.417710 A    
N8    O63   1.299770 A    
C11   C39   1.533924 S    
C173  C177  1.424706 A    
C44   C64   1.414027 A    
N4    O56   1.299801 A    
Cu8   O32   1.980174 S    
O46   C119  1.301142 A    
C19   C109  1.466534 S    
C50   C54   1.414861 A    
C182  C184  1.399672 A    
O4    C4    1.300796 A    
C23   C27   1.555739 S    
C87   C91   1.398128 A    
N1    O49   1.300126 A    
C127  C133  1.420496 A    
O35   C114  1.301432 A    
N48   O144  1.299925 A    
N38   O124  1.301706 A    
N38   O123  1.301470 A    
N33   O114  1.299564 A    
N2    O52   1.299801 A    
Cu7   Cu8   2.700020 S    
O43   C117  1.305216 A    
O24   Cu8   1.981807 S    
N20   O88   1.301366 A    
O27   Cu8   1.989576 S    
O42   C116  1.305293 A    
N30   O107  1.300989 A    
C66   C70   1.391671 A    
C101  N5    1.427729 S    
C42   C46   1.406770 A    
N44   O136  1.300959 A    
C181  N43   1.422243 S    
O18   C105  1.301445 A    
C133  C139  1.396161 A    
C153  I9    2.153694 S    
O13   C5    1.290639 A    
O7    Cu4   1.979814 S    
N22   O91   1.301326 A    
C122  C125  1.401467 A    
C155  I11   2.153702 S    
C41   C61   1.414021 A    
O15   C7    1.290640 A    
C96   I8    2.155291 S    
C58   C62   1.420964 A    
O4    Cu2   1.980400 S    
C48   C52   1.410615 A    
O38   Cu10  1.983908 S    
O9    C5    1.299824 A    
C26   I22   2.144558 S    
C23   I19   2.139050 S    
O41   Cu10  1.977593 S    
Cu9   Cu10  2.705744 S    
O19   Cu7   1.979897 S    
C41   N49   1.435493 S    
N54   O155  1.301569 A    
N46   O140  1.299926 A    
C14   C34   1.526938 S    
N41   O129  1.300726 A    
O8    Cu4   1.979882 S    
C155  C158  1.403553 A    
O23   Cu7   1.981809 S    
N16   O79   1.301156 A    
N43   O133  1.300725 A    
C70   I2    2.139648 S    
O21   Cu5   1.981809 S    
C121  C125  1.401572 A    
O3    Cu2   1.980462 S    
C42   N50   1.435473 S    
N42   O132  1.300959 A    
C6    C38   1.468075 S    
C19   C23   1.552209 S    
C112  C184  1.482587 S    
C42   C62   1.414046 A    
C99   C103  1.404146 A    
C54   C66   1.422389 A    
C165  N37   1.434761 S    
C161  C167  1.410266 A    
C21   I17   2.139047 S    
N14   O76   1.300978 A    
C173  C179  1.416515 A    
N45   O137  1.300256 A    
N12   O72   1.301155 A    
C46   C50   1.410687 A    
C166  C172  1.406299 A    
O36   C114  1.301458 A    
O37   C115  1.303482 A    
C170  C174  1.426341 A    
C75   C79   1.417674 A    
O38   C116  1.303489 A    
C94   I6    2.155253 S    
C16   N4    1.459045 S    
O3    C3    1.300817 A    
C111  C183  1.482575 S    
O17   C105  1.301402 A    
C28   C32   1.560469 S    
N35   O117  1.300368 A    
C53   C57   1.426039 A    
C76   C96   1.412403 A    
C83   C87   1.417502 A    
N37   O121  1.301466 A    
C55   C59   1.426052 A    
C24   C28   1.555726 S    
N55   O158  1.301861 A    
C19   C31   1.549820 S    
N23   O94   1.301043 A    
C172  I16   2.156621 S    
C132  C145  1.419658 A    
C31   I27   2.147855 S    
C102  N6    1.427723 S    
N15   O78   1.300981 A    
N53   O153  1.301571 A    
C7    C39   1.468016 S    
C11   C23   1.541852 S    
C44   C48   1.406701 A    
C156  C158  1.403550 A    
O26   Cu5   1.989575 S    
O33   C113  1.301429 A    
C29   C33   1.543146 S    
O48   C120  1.300862 A    
N21   O90   1.301048 A    
N36   O119  1.300366 A    
C122  N18   1.435023 S    
C72   C76   1.402645 A    
C98   C102  1.404080 A    
C169  I13   2.156599 S    
N25   O98   1.301100 A    
N40   O127  1.301469 A    
C175  C181  1.416512 A    
O5    Cu3   1.979814 S    
C134  C140  1.396033 A    
C124  C126  1.401379 A    
C138  C142  1.414300 A    
C156  I12   2.153700 S    
C57   C77   1.419619 A    
C105  C151  1.471642 S    
C31   C35   1.543149 S    
C140  C144  1.413795 A    
C148  N30   1.437029 S    
O39   C117  1.303487 A    
N18   O84   1.301379 A    
N7    O61   1.299771 A    
N9    O65   1.300912 A    
C26   C38   1.548380 S    
C147  C151  1.407844 A    
N49   O146  1.301613 A    
O7    C3    1.302063 A    
N40   O128  1.301707 A    
C81   C85   1.417503 A    
C91   N15   1.435172 S    
C10   C14   1.523774 S    
C121  N17   1.435035 S    
O13   Cu3   1.985084 S    
C88   N12   1.432436 S    
N10   O67   1.300913 A    
C123  C126  1.401406 A    
N28   O103  1.301276 A    
O43   Cu12  1.977593 S    
C27   C39   1.548320 S    
C92   N16   1.435167 S    
C96   C100  1.406319 A    
O29   C111  1.303217 A    
O5    C1    1.302061 A    
C41   C45   1.406697 A    
N32   O112  1.301437 A    
O8    C4    1.302080 A    
N34   O116  1.299565 A    
N13   O73   1.301153 A    
C160  C166  1.410259 A    
C174  C180  1.416517 A    
N6    O59   1.299780 A    
C162  C164  1.415577 A    
O15   Cu4   1.985084 S    
N5    O58   1.300925 A    
C53   C65   1.422395 A    
C120  C126  1.464594 S    
C93   C97   1.406294 A    
C55   C67   1.422398 A    
C167  C169  1.406287 A    
O44   C118  1.305228 A    
C150  C152  1.407666 A    
N31   O110  1.301406 A    
C175  C178  1.424701 A    
C166  N38   1.434759 S    
C73   C77   1.417685 A    
C51   N55   1.431941 S    
C69   I1    2.139645 S    
C85   C89   1.398116 A    
O25   Cu6   1.989576 S    
C36   N48   1.455692 S    
C9    C21   1.541859 S    
O14   C6    1.290680 A    
C123  N19   1.435068 S    
C56   C60   1.426053 A    
N26   O99   1.301313 A    
N43   O134  1.300962 A    
C33   C37   1.539581 S    
C136  N24   1.433222 S    
C12   C16   1.523766 S    
C84   C104  1.413849 A    
C95   C99   1.406326 A    
N56   O159  1.301571 A    
C181  C184  1.399667 A    
O10   C6    1.299795 A    
N50   O148  1.301616 A    
C12   N36   1.459369 S    
C137  N25   1.435763 S    
O20   Cu8   1.979832 S    
C149  N31   1.437069 S    
C49   N53   1.431949 S    
O17   Cu5   1.979897 S    
C76   C80   1.417667 A    
O18   Cu6   1.979832 S    
N8    O64   1.300927 A    
C17   C21   1.552197 S    
O21   C107  1.299733 A    
C71   C75   1.402655 A    
C20   C24   1.552191 S    
N11   O69   1.300912 A    
C141  C145  1.420860 A    
C143  C149  1.413855 A    
C171  C175  1.426313 A    
O1    Cu1   1.980462 S    
C160  C163  1.415575 A    
Cu10  O46   1.980169 S    
C135  C137  1.395895 A    
C11   N35   1.459379 S    
C60   C64   1.420968 A    
C168  C170  1.406295 A    
N33   O113  1.300365 A    
N3    O53   1.300123 A    
N51   O150  1.301611 A    
C89   N13   1.435170 S    
O36   Cu12  1.979966 S    
C30   C34   1.543146 S    
O37   Cu9   1.983912 S    
N30   O108  1.301440 A    
C161  C164  1.415573 A    
O27   C109  1.290571 A    
C86   C90   1.398112 A    
C180  N42   1.422224 S    
N52   O151  1.301040 A    
C74   C78   1.417690 A    
C103  N7    1.427763 S    
N39   O125  1.301471 A    
C149  C152  1.408137 A    
C1    C97   1.472438 S    
N22   O92   1.301132 A    
C22   C26   1.555734 S    
C156  C161  1.412386 A    
C170  I14   2.156615 S    
C48   C118  1.476385 S    
C121  C128  1.415597 A    
C142  C145  1.420811 A    
C49   C53   1.414908 A    
Cu12  O48   1.980169 S    
C9    N33   1.459370 S    
N54   O156  1.301855 A    
N24   O95   1.301280 A    
C182  N44   1.422214 S    
C52   N56   1.431941 S    
C139  C143  1.414326 A    
N16   O80   1.300976 A    
N29   O106  1.301435 A    
C153  C160  1.412401 A    
C70   C74   1.402622 A    
N17   O82   1.301082 A    
O12   Cu2   1.985306 S    
C143  C146  1.420602 A    
C29   I25   2.147848 S    
N19   O85   1.301378 A    
C68   I32   2.148704 S    
O1    C1    1.300810 A    
O34   C113  1.301461 A    
C136  C138  1.395876 A    
O28   C110  1.290581 A    
N15   O77   1.301155 A    
C65   C69   1.391719 A    
C27   C31   1.560480 S    
C154  I10   2.153693 S    
C50   N54   1.431959 S    
C163  C178  1.413137 A    
C69   C73   1.402652 A    
C81   C101  1.413828 A    
C36   C40   1.539557 S    
C43   C63   1.414022 A    
Cu5   O29   1.980109 S    
N27   O101  1.301319 A    
N4    O55   1.300129 A    
C16   C36   1.526953 S    
C78   C82   1.417736 A    
O24   C110  1.299739 A    
O39   Cu11  1.983912 S    
C129  C135  1.420327 A    
O40   C118  1.303495 A    
C57   C61   1.420972 A    
C15   N3    1.459050 S    
C141  C147  1.413711 A    
C73   C93   1.412417 A    
C18   C30   1.549774 S    
C61   C89   1.417767 A    
N1    O50   1.299804 A    
N48   O143  1.300255 A    
C63   C91   1.417765 A    
C12   C40   1.533931 S    
C123  C130  1.415577 A    
C27   I23   2.144553 S    
C84   C88   1.417502 A    
N2    O51   1.300129 A    
C28   I24   2.144564 S    
C13   C17   1.532617 S    
C147  N29   1.436993 S    
C90   N14   1.435159 S    
N20   O87   1.301136 A    
O44   Cu11  1.977593 S    
C130  C132  1.427500 A    
C87   N11   1.432441 S    
O20   C106  1.301555 A    
O6    C2    1.302061 A    
C140  N28   1.435999 S    
N44   O135  1.300722 A    
C119  C125  1.464879 S    
O22   C108  1.299717 A    
O16   Cu4   1.985153 S    
C45   C115  1.476373 S    
O23   C109  1.299762 A    
C46   C116  1.476485 S    
C44   N52   1.435490 S    
N37   O122  1.301707 A    
C32   I28   2.147849 S    
C21   C25   1.555740 S    
C59   C63   1.420971 A    
N21   O89   1.301276 A    
N36   O120  1.299565 A    
C148  C151  1.407775 A    
C45   C49   1.410627 A    
C176  C178  1.424697 A    
O2    Cu1   1.980400 S    
C47   C51   1.410601 A    
C180  C183  1.399674 A    
O10   Cu1   1.985306 S    
C65   I29   2.148700 S    
N25   O97   1.301324 A    
C133  N21   1.433227 S    
C168  N40   1.434759 S    
C159  C163  1.415572 A    
N23   O93   1.301281 A    
C88   C92   1.398129 A    
N46   O139  1.300257 A    
C54   C58   1.426029 A    
N47   O141  1.300255 A    
N41   O130  1.300961 A    
C10   C22   1.541860 S    
C34   N46   1.455675 S    
C82   C102  1.413854 A    
C131  C146  1.419547 A    
Cu7   O31   1.980109 S    
C33   N45   1.455689 S    
C167  N39   1.434759 S    
C25   I21   2.144552 S    
N31   O109  1.301006 A    
C20   C110  1.466512 S    
N11   O70   1.301157 A    
C85   N9    1.432439 S    
C15   C19   1.532637 S    
C150  N32   1.437241 S    
C172  C176  1.426344 A    
Cu6   O30   1.980174 S    
C3    C99   1.472455 S    
N42   O131  1.300723 A    
N49   O145  1.301041 A    
C74   C94   1.412341 A    
Cu11  Cu12  2.705744 S    
C139  N27   1.435794 S    
C165  C171  1.406290 A    
C62   C90   1.417800 A    
N14   O75   1.301158 A    
N10   O68   1.301154 A    
C18   C22   1.552165 S    
C154  C159  1.412388 A    
N45   O138  1.299927 A    
N12   O71   1.300911 A    
N28   O104  1.301109 A    
N3    O54   1.299817 A    
C174  C177  1.424700 A    
N5    O57   1.299768 A    
C17   C29   1.549798 S    
C176  C182  1.416519 A    
C97   C101  1.404123 A    
C138  N26   1.435806 S    
C4    C100  1.472443 S    
C104  N8    1.427759 S    
O16   C8    1.290673 A    
C75   C95   1.412420 A    
N39   O126  1.301707 A    
C58   C78   1.419610 A    
C137  C141  1.414397 A    
C25   C29   1.560483 S    
C164  C177  1.413143 A    
C56   C68   1.422404 A    
C127  C131  1.427429 A    
C114  C158  1.462639 S    
C171  I15   2.156607 S    
O35   Cu11  1.979901 S    
O11   C7    1.299809 A    
C13   N1    1.459061 S    
C128  C134  1.420609 A    
O12   C8    1.299783 A    
C142  C148  1.413607 A    
C60   C80   1.419624 A    
C169  C173  1.426316 A    
O9    Cu1   1.985366 S    
C124  N20   1.435071 S    
C113  C157  1.462636 S    
C72   I4    2.139661 S    
C28   C40   1.548353 S    
N53   O154  1.301858 A    
C13   C33   1.526938 S    
C43   C47   1.406690 A    
C9    C37   1.533949 S    
C15   C35   1.526958 S    
C68   C72   1.391719 A    
C16   C20   1.532637 S    
C71   I3    2.139652 S    
N26   O100  1.301099 A    
O31   C112  1.303223 A    
N51   O149  1.301043 A    
C153  C157  1.403546 A    
O11   Cu2   1.985366 S    
O45   C119  1.300670 A    
C20   C32   1.549805 S    
Cu9   O45   1.980234 S    
N19   O86   1.301128 A    
C179  N41   1.422258 S    
C129  C132  1.427457 A    
O41   C115  1.305236 A    
C5    C37   1.468052 S    
C2    C98   1.472319 S    
C134  N22   1.432902 S    
C22   I18   2.139049 S    
O6    Cu3   1.979882 S    
Cu11  O47   1.980234 S    
C8    C40   1.468031 S    
O47   C120  1.300793 A    
O33   Cu9   1.979901 S    
C12   C24   1.541852 S    
O34   Cu10  1.979966 S    
C52   C56   1.414913 A    
N35   O118  1.299560 A    
C93   I5    2.155268 S    
C159  C165  1.410264 A    
C35   N47   1.455696 S    
N27   O102  1.301107 A    
C94   C98   1.406219 A    
C95   I7    2.155284 S    
N18   O83   1.301099 A    
C144  C146  1.420404 A    
N9    O66   1.301155 A    
C14   N2    1.459057 S    
O32   C112  1.303230 A    
C86   N10   1.432442 S    
O2    C2    1.300751 A    
C10   N34   1.459356 S    
C34   C38   1.539573 S    
N7    O62   1.300928 A    
C14   C18   1.532613 S    
O14   Cu3   1.985153 S    
N6    O60   1.300919 A    
C154  C157  1.403554 A    
O40   Cu12  1.983908 S    
C130  C136  1.420362 A    
Cu1   Cu3   2.698761 S    
C26   C30   1.560467 S    
Cu2   Cu4   2.698761 S    
C30   I26   2.147836 S    
C43   N51   1.435495 S    
O19   C106  1.301228 A    
C24   I20   2.139057 S    
C51   C55   1.414917 A    
N32   O111  1.300979 A    
N52   O152  1.301610 A    
C10   C38   1.533963 S    
N34   O115  1.300366 A    
N13   O74   1.300978 A    
C82   C86   1.417505 A    
C11   C15   1.523751 S    
C122  C127  1.415724 A    
N56   O160  1.301859 A    
N55   O157  1.301569 A    
C32   C36   1.543155 S    
C179  C183  1.399675 A    
C162  C168  1.410261 A    
C17   C107  1.466496 S    
C144  C150  1.413325 A    
C18   C108  1.466474 S    
C124  C129  1.415577 A    
O42   Cu9   1.977593 S    
C67   I31   2.148701 S    
C106  C152  1.471443 S    
C77   C81   1.417707 A    
C100  C104  1.404143 A    
