data_mof_unit_46160.cif
_audit_creation_date              2012-12-10T16:54:05-0500
_audit_creation_method            fapswitch 2.2
_symmetry_space_group_name_H-M    P1
_symmetry_Int_Tables_number       1
_space_group_crystal_system       triclinic
_cell_length_a                    9.715967
_cell_length_b                    10.907354
_cell_length_c                    13.439052
_cell_angle_alpha                 90.117917
_cell_angle_beta                  72.078636
_cell_angle_gamma                 90.319701
_cell_volume                      1355.08590264

loop_
_atom_site_label
_atom_site_type_symbol
_atom_type_description
_atom_site_fract_x
_atom_site_fract_y
_atom_site_fract_z
_atom_type_partial_charge
C1    C     C_R   0.502249 0.734608 0.496348 0.904381
C2    C     C_R   0.434277 0.480545 0.979977 0.087089
C3    C     C_R   0.470812 0.452559 0.871802 0.088509
C4    C     C_R   0.541367 0.466136 0.031395 0.071217
C5    C     C_R   0.676932 0.413135 0.977156 0.170924
C6    C     C_R   0.703346 0.372184 0.874877 -0.256293
C7    C     C_R   0.601115 0.389582 0.823555 -0.211711
C8    C     C_R   0.518530 0.503943 0.134979 -0.236075
C9    C     C_R   0.755540 0.432480 0.131105 -0.204180
C10   C     C_R   0.374804 0.486951 0.815458 -0.102725
C11   C     C_2   0.622437 0.068150 0.466645 -0.209020
C12   C     C_R   0.422245 0.493235 0.700159 0.776194
C13   C     C_2   0.501084 0.133436 0.484692 -0.348419
C14   C     C_2   0.624321 0.934807 0.448997 0.014652
C15   C     C_2   0.504602 0.867355 0.495927 -0.394962
C16   C     C_2   0.043347 0.526018 0.581976 -0.091995
C17   C     C_2   0.893002 0.545628 0.574993 -0.074929
C18   C     C_R   0.500618 0.265309 0.496868 0.856048
C19   C     C_R   0.577747 0.498253 0.299897 0.835741
C20   C     C_R   0.783575 0.398780 0.026787 -0.199758
C21   C     C_R   0.621468 0.482557 0.186183 -0.038220
C22   C     C_R   0.235034 0.527148 0.870292 -0.188353
C23   C     C_R   0.193001 0.540390 0.978150 -0.159123
C24   C     C_R   0.291650 0.520339 0.032488 -0.192782
Cu1   Cu    Cu3+1 0.361370 0.499980 0.499980 0.951641
Cu2   Cu    Cu3+1 0.638630 0.500020 0.500020 0.956905
H1    H     H_    0.836200 0.414886 0.169475 0.154407
H2    H     H_    0.400313 0.091265 0.483269 0.160516
H3    H     H_    0.405600 0.909708 0.543747 0.143139
H4    H     H_    0.059806 0.535744 0.657772 0.151903
H5    H     H_    0.140991 0.518493 0.429101 0.217170
H6    H     H_    0.819104 0.598859 0.636651 0.156939
H7    H     H_    0.803687 0.326366 0.834162 0.142873
H8    H     H_    0.887221 0.358350 0.985705 0.138646
H9    H     H_    0.420372 0.549472 0.178486 0.149395
H10   H     H_    0.158640 0.551209 0.829512 0.147999
H11   H     H_    0.251457 0.533917 0.115853 0.125626
H12   H     H_    0.084361 0.570330 0.019705 0.146266
H13   H     H_    0.624752 0.349676 0.746564 0.172724
H14   H     H_    0.724244 0.114253 0.459460 0.204338
N1    N     N_2   0.152660 0.501340 0.501130 -0.275211
N2    N     N_2   0.846520 0.501370 0.501160 -0.220266
O1    O     O_R   0.382960 0.678040 0.499980 -0.572932
O2    O     O_R   0.617100 0.678080 0.500020 -0.550004
O3    O     O_R   0.325800 0.499940 0.650950 -0.585023
O4    O     O_R   0.559930 0.499980 0.650990 -0.593447
O5    O     O_R   0.382900 0.321920 0.499980 -0.568094
O6    O     O_R   0.617040 0.321960 0.500020 -0.588676
O7    O     O_R   0.440070 0.500020 0.349010 -0.590091
O8    O     O_R   0.674200 0.500060 0.349050 -0.574112
C25   C     C_2   0.759754 0.880933 0.377958 0.881558
O9    O     O_2   0.877060 0.925535 0.374012 -0.635853
O10   O     O_R   0.753074 0.782817 0.312344 -0.762269
H15   H     H_    0.852259 0.754928 0.267667 0.322004
C26   C     C_R   0.921811 0.401597 0.439466 0.346104
C27   C     C_R   0.940243 0.290159 0.486361 -0.167632
C28   C     C_R   0.015585 0.193841 0.424921 -0.142822
C29   C     C_R   0.070207 0.206929 0.316381 -0.053754
C30   C     C_R   0.049919 0.316484 0.269105 -0.207429
C31   C     C_R   0.975546 0.413388 0.330330 -0.198868
H16   H     H_    0.897165 0.278732 0.570304 0.122158
H17   H     H_    0.030857 0.108798 0.461421 0.163646
H18   H     H_    0.128059 0.132107 0.268907 0.151080
H19   H     H_    0.092317 0.326490 0.185042 0.146005
H20   H     H_    0.962811 0.498741 0.293206 0.137236

loop_
_geom_bond_atom_site_label_1
_geom_bond_atom_site_label_2
_ccdc_geom_bond_type
C2    C4    A    
C26   C27   A    
C13   H2    S    
O10   H15   S    
C6    C7    A    
C1    C15   S    
N2    C26   S    
C23   H12   S    
C22   H10   S    
C19   O7    A    
C9    C20   A    
C14   C25   S    
C6    H7    S    
Cu2   O6    S    
C4    C8    A    
C1    O2    A    
C20   H8    S    
C18   O5    A    
Cu1   O1    S    
C2    C3    A    
C28   C29   A    
Cu2   O2    S    
C30   C31   A    
C27   H16   S    
C3    C10   A    
C26   C31   A    
C10   C22   A    
C11   C13   D    
C19   O8    A    
C9    C21   A    
C30   H19   S    
C5    C6    A    
C10   C12   S    
C13   C18   S    
C12   O4    A    
C19   C21   S    
C31   H20   S    
C15   H3    S    
C3    C7    A    
Cu2   O8    S    
Cu2   N2    S    
C2    C24   A    
C11   H14   S    
C11   C14   S    
Cu1   O7    S    
C29   C30   A    
C16   C17   S    
Cu2   O4    S    
C23   C24   A    
C16   H4    S    
C25   O9    D    
Cu1   O3    S    
C28   H17   S    
C8    C21   A    
C27   C28   A    
C9    H1    S    
C24   H11   S    
Cu1   N1    S    
C29   H18   S    
C5    C20   A    
C17   H6    S    
Cu1   O5    S    
C17   N2    D    
C4    C5    A    
C7    H13   S    
H5    N1    S    
Cu1   Cu2   S    
C14   C15   D    
C16   N1    D    
C1    O1    A    
C22   C23   A    
C12   O3    A    
C25   O10   S    
C8    H9    S    
C18   O6    A    
