data_mof_unit_19265.cif
_audit_creation_date              2012-12-11T15:53:52-0500
_audit_creation_method            fapswitch 2.2
_symmetry_space_group_name_H-M    P1
_symmetry_Int_Tables_number       1
_space_group_crystal_system       triclinic
_cell_length_a                    10.891482
_cell_length_b                    10.740154
_cell_length_c                    17.034235
_cell_angle_alpha                 79.789349
_cell_angle_beta                  99.896969
_cell_angle_gamma                 119.193157
_cell_volume                      1703.470481

loop_
_atom_site_label
_atom_site_type_symbol
_atom_type_description
_atom_site_fract_x
_atom_site_fract_y
_atom_site_fract_z
_atom_type_partial_charge
C1    C     C_R   0.361824 0.230148 0.627401 0.538531
C2    C     C_R   0.512089 0.721150 0.731001 -0.143417
C3    C     C_R   0.493087 0.736464 0.807949 -0.007234
C4    C     C_3   0.108738 0.422905 0.785085 -0.134518
C5    C     C_3   0.143252 0.395310 0.707991 -0.225349
C6    C     C_R   0.403138 0.616539 0.685664 -0.008142
C7    C     C_1   0.775990 0.632182 0.711904 -0.071369
C8    C     C_1   0.821642 0.671117 0.777586 -0.071224
C9    C     C_1   0.345710 0.188045 0.709936 -0.054719
C10   C     C_1   0.319800 0.159907 0.778168 -0.054013
C11   C     C_1   0.317539 0.685560 0.281079 -0.094288
C12   C     C_R   0.414336 0.618497 0.601468 0.556061
C13   C     C_1   0.298899 0.709162 0.209923 -0.096251
C14   C     C_R   0.811470 0.640945 0.152338 0.031844
C15   C     C_R   0.832021 0.543931 0.212164 0.011421
C16   C     C_R   0.823893 0.551221 0.289464 0.007867
C17   C     C_R   0.727179 0.716281 0.245456 -0.034664
C18   C     C_R   0.724831 0.693409 0.165306 -0.006852
C19   C     C_3   0.952249 0.511066 0.234985 -0.260139
C20   C     C_3   0.947267 0.525981 0.320732 -0.268604
C21   C     C_R   0.784796 0.645043 0.310089 -0.011500
C22   C     C_R   0.330513 0.173756 0.157680 -0.017177
C23   C     C_R   0.723035 0.587910 0.633401 0.537482
C24   C     C_R   0.250118 0.225896 0.182967 0.010597
C25   C     C_R   0.257363 0.235313 0.262781 0.015224
C26   C     C_R   0.429675 0.148834 0.295533 -0.022145
C27   C     C_R   0.429063 0.147388 0.213478 -0.146580
C28   C     C_3   0.092220 0.174913 0.173395 -0.116266
C29   C     C_3   0.103929 0.188448 0.262591 -0.110824
C30   C     C_R   0.341184 0.193366 0.319976 0.015038
C31   C     C_R   0.886561 0.699602 0.856965 0.537389
C32   C     C_R   0.316160 0.705459 0.898827 0.540613
C33   C     C_R   0.283236 0.113536 0.857776 0.550884
C34   C     C_R   0.353168 0.229619 0.399266 0.542161
C35   C     C_R   0.884698 0.686680 0.081943 0.538422
C36   C     C_R   0.286202 0.738798 0.125300 0.561981
C37   C     C_R   0.286028 0.108724 0.083986 0.535269
C38   C     C_R   0.361813 0.658673 0.362554 0.548141
C39   C     C_R   0.757754 0.617474 0.394319 0.561333
C40   C     C_R   0.355906 0.654944 0.836750 0.006326
C41   C     C_R   0.259127 0.538700 0.794384 -0.008925
C42   C     C_R   0.287760 0.513982 0.725478 -0.002511
Cr1   Cr    Cr6+3 0.608440 0.389080 0.519680 0.994108
Cr2   Cr    Cr6+3 0.288640 0.400090 0.490760 0.984915
Cr3   Cr    Cr6+3 0.602940 0.710800 0.489510 0.976062
Cr4   Cr    Cr6+3 0.052530 0.947560 0.964210 0.973105
Cr5   Cr    Cr6+3 0.059970 0.626800 0.992920 0.966497
Cr6   Cr    Cr6+3 0.373320 0.938440 0.995370 0.978221
H1    H     H_    0.611967 0.792225 0.706378 0.137823
H2    H     H_    0.919816 0.424794 0.360961 0.139926
H3    H     H_    0.039994 0.622574 0.343843 0.136044
H4    H     H_    0.490592 0.105040 0.195135 0.139121
H5    H     H_    0.088369 0.420415 0.651073 0.156393
O1    O     O_R   0.754020 0.497590 0.609930 -0.509217
O2    O     O_R   0.295080 0.533620 0.397890 -0.487427
O3    O     O_R   0.485280 0.746620 0.388440 -0.545144
O4    O     O_R   0.720550 0.696220 0.420010 -0.525406
O5    O     O_3   0.500010 0.499990 0.499980 -0.283933
O6    O     O_R   0.163320 0.092900 0.874450 -0.520059
O7    O     O_R   0.934650 0.822080 0.882840 -0.499951
O8    O     O_R   0.915520 0.604140 0.893670 -0.532420
O9    O     O_R   0.191760 0.638110 0.923230 -0.514187
O10   O     O_R   0.406180 0.826930 0.920660 -0.519832
O11   O     O_R   0.358620 0.062870 0.901950 -0.496966
O12   O     O_R   0.481420 0.271390 0.600630 -0.509462
O13   O     O_R   0.163910 0.085460 0.050210 -0.529803
O14   O     O_R   0.935200 0.815170 0.045770 -0.509442
O15   O     O_R   0.916120 0.596690 0.069430 -0.534844
O16   O     O_R   0.192310 0.631200 0.086170 -0.520293
O17   O     O_R   0.406770 0.819480 0.096420 -0.546921
O18   O     O_R   0.359170 0.055960 0.064880 -0.520720
O19   O     O_3   0.161940 0.837600 0.984160 -0.252544
O20   O     O_R   0.263810 0.254550 0.589590 -0.526631
O21   O     O_R   0.300820 0.531200 0.560890 -0.501528
O22   O     O_R   0.491480 0.744020 0.564270 -0.519730
O23   O     O_R   0.726290 0.693800 0.583010 -0.504951
O24   O     O_R   0.747830 0.500190 0.434090 -0.517779
O25   O     O_R   0.475680 0.273800 0.437630 -0.502838
O26   O     O_R   0.257620 0.257160 0.413750 -0.521849
H6    H     H_    0.922881 0.400217 0.224592 0.122216
C43   C     C_3   0.501142 0.075088 0.354024 -0.257051
C44   C     C_3   0.659873 0.169675 0.365952 -0.425778
H7    H     H_    0.706297 0.200660 0.307991 0.131028
H8    H     H_    0.684026 0.267242 0.391724 0.209840
H9    H     H_    0.707677 0.110699 0.408704 0.123821
H10   H     H_    0.457127 0.040399 0.412915 0.163028
H11   H     H_    0.479753 0.976058 0.330309 0.162560
H12   H     H_    0.028216 0.063033 0.157510 0.169812
C45   C     C_3   0.047609 0.281857 0.121503 -0.285840
C46   C     C_3   0.052946 0.288711 0.031907 -0.378951
H13   H     H_    0.163261 0.329698 0.018435 0.168674
H14   H     H_    0.983711 0.181268 0.010894 0.147144
H15   H     H_    0.013901 0.363316 0.998673 0.152140
H16   H     H_    0.937745 0.250646 0.131644 0.122676
H17   H     H_    0.116673 0.389858 0.140986 0.186803
H18   H     H_    0.089763 0.278940 0.274997 0.156605
C47   C     C_3   0.025152 0.046765 0.317484 -0.264210
C48   C     C_3   0.936823 0.064204 0.371150 -0.434081
H19   H     H_    0.002457 0.153566 0.408433 0.179531
H20   H     H_    0.856037 0.088259 0.333696 0.125041
H21   H     H_    0.885361 0.965110 0.412239 0.163703
H22   H     H_    0.958664 0.955740 0.282119 0.145769
H23   H     H_    0.097035 0.011926 0.357287 0.157836
C49   C     C_3   0.623591 0.835370 0.856776 -0.248887
C50   C     C_3   0.669035 0.992741 0.828099 -0.409694
H24   H     H_    0.696359 0.017204 0.765407 0.138670
H25   H     H_    0.584272 0.020363 0.830978 0.192197
H26   H     H_    0.763982 0.059181 0.867016 0.114458
H27   H     H_    0.612284 0.812828 0.921624 0.159682
H28   H     H_    0.709859 0.813699 0.850369 0.155988
C51   C     C_3   0.998670 0.476641 0.767549 -0.260388
C52   C     C_3   0.853205 0.352787 0.783963 -0.410829
H29   H     H_    0.823763 0.268826 0.744409 0.151886
H30   H     H_    0.854500 0.308137 0.847880 0.134171
H31   H     H_    0.771536 0.388288 0.771909 0.166854
H32   H     H_    0.028338 0.561444 0.805333 0.211757
H33   H     H_    0.994766 0.526509 0.704819 0.173252
H34   H     H_    0.087701 0.334135 0.834568 0.154251
H35   H     H_    0.141583 0.290027 0.713550 0.149379
C53   C     C_3   0.663823 0.808423 0.258268 -0.258510
C54   C     C_3   0.700988 0.947737 0.201473 -0.452350
H36   H     H_    0.815088 0.013650 0.199068 0.144634
H37   H     H_    0.654310 0.930946 0.139417 0.179875
H38   H     H_    0.660978 0.011524 0.223027 0.131603
H39   H     H_    0.550326 0.740079 0.251283 0.172080
H40   H     H_    0.694718 0.843736 0.317985 0.206708
C55   C     C_3   0.614016 0.694651 0.098202 -0.265076
C56   C     C_3   0.545286 0.563326 0.051228 -0.437300
H41   H     H_    0.618255 0.569959 0.010656 0.149343
H42   H     H_    0.513510 0.463219 0.092994 0.159242
H43   H     H_    0.449251 0.558297 0.013733 0.142905
H44   H     H_    0.526168 0.687812 0.125094 0.199675
H45   H     H_    0.660814 0.793981 0.056544 0.143835
H46   H     H_    0.045668 0.596464 0.208108 0.160063

loop_
_geom_bond_atom_site_label_1
_geom_bond_atom_site_label_2
_ccdc_geom_bond_type
C3    C49   S    
C5    C42   S    
C16   C21   A    
C12   O21   A    
Cr4   O6    S    
C41   C42   A    
C14   C18   A    
C19   C20   S    
C23   O23   A    
C56   H41   S    
Cr5   O9    S    
C52   H30   S    
C47   C48   S    
C7    C8    T    
C53   C54   S    
C19   H46   S    
C15   C19   S    
C50   H25   S    
Cr3   O4    S    
C26   C27   A    
C5    H35   S    
Cr3   O23   S    
C39   O24   A    
C5    H5    S    
C28   C29   S    
Cr4   O13   S    
C20   H3    S    
C6    C12   S    
C49   H27   S    
C34   O26   A    
C48   H19   S    
C53   H40   S    
Cr6   O11   S    
C4    C41   S    
C15   C16   A    
C39   O4    A    
C45   H16   S    
C31   O8    A    
C55   H44   S    
Cr5   O16   S    
C54   H38   S    
C20   H2    S    
C17   C53   S    
C38   O2    A    
C51   C52   S    
Cr3   O3    S    
Cr2   O5    S    
C28   H12   S    
C1    O12   A    
C19   H6    S    
C28   C45   S    
C9    C10   T    
Cr4   O19   S    
C47   H22   S    
Cr1   O5    S    
Cr1   O12   S    
C33   O6    A    
C4    H34   S    
C2    C6    A    
Cr6   O19   S    
C49   C50   S    
C36   O17   A    
C43   C44   S    
C25   C29   S    
C50   H26   S    
Cr3   O5    S    
C30   C34   S    
C24   C28   S    
C1    C9    S    
C24   C25   A    
C13   C36   S    
C55   H45   S    
C14   C35   S    
C53   H39   S    
Cr6   O10   S    
C22   C37   S    
C17   C21   A    
Cr1   O25   S    
C31   O7    A    
C45   H17   S    
C11   C38   S    
C2    H1    S    
C18   C55   S    
Cr1   O1    S    
C46   H14   S    
C21   C39   S    
C35   O14   A    
C16   C20   S    
C37   O13   A    
C17   C18   A    
C47   H23   S    
Cr2   O21   S    
C54   H36   S    
C43   H11   S    
C40   C41   A    
C4    C51   S    
C3    C40   A    
C26   C30   A    
C26   C43   S    
C44   H8    S    
C22   C27   A    
C37   O18   A    
C22   C24   A    
Cr6   O18   S    
C55   C56   S    
C48   H21   S    
C56   H43   S    
Cr5   O15   S    
C27   H4    S    
C23   O1    A    
C25   C30   A    
Cr4   O7    S    
C8    C31   S    
Cr2   O26   S    
C43   H10   S    
C32   O10   A    
Cr6   O17   S    
C4    C5    S    
C56   H42   S    
Cr5   O8    S    
C29   H18   S    
Cr1   O24   S    
C44   H9    S    
C50   H24   S    
C48   H20   S    
C29   C47   S    
Cr3   O22   S    
C51   H32   S    
C1    O20   A    
C2    C3    A    
C46   H15   S    
C32   O9    A    
Cr4   O14   S    
C34   O25   A    
C49   H28   S    
C11   C13   T    
Cr2   O2    S    
C46   H13   S    
C35   O15   A    
C33   O11   A    
C7    C23   S    
C10   C33   S    
C52   H29   S    
C32   C40   S    
C36   O16   A    
Cr5   O19   S    
C54   H37   S    
C51   H33   S    
C38   O3    A    
C44   H7    S    
C6    C42   A    
C12   O22   A    
C14   C15   A    
C45   C46   S    
C52   H31   S    
Cr2   O20   S    
