data_mof_unit_16202.cif
_audit_creation_date              2012-12-10T17:01:26-0500
_audit_creation_method            fapswitch 2.2
_symmetry_space_group_name_H-M    P1
_symmetry_Int_Tables_number       1
_space_group_crystal_system       triclinic
_cell_length_a                    12.777988
_cell_length_b                    10.627459
_cell_length_c                    10.066875
_cell_angle_alpha                 92.093754
_cell_angle_beta                  98.114115
_cell_angle_gamma                 90.040149
_cell_volume                      1352.44393627

loop_
_atom_site_label
_atom_site_type_symbol
_atom_type_description
_atom_site_fract_x
_atom_site_fract_y
_atom_site_fract_z
_atom_type_partial_charge
C1    C     C_R   0.498680 0.262067 0.496714 0.984605
C2    C     C_2   0.497351 0.128188 0.486646 -0.368351
C3    C     C_2   0.555428 0.578198 0.940957 0.156337
C4    C     C_R   0.297996 0.503138 0.472093 0.967996
C5    C     C_2   0.571666 0.555532 0.090122 -0.019921
C6    C     C_R   0.487216 0.736744 0.500244 0.858089
C7    C     C_R   0.701940 0.500750 0.527904 0.883998
C8    C     C_R   0.814980 0.503375 0.549854 -0.098865
C9    C     C_R   0.184502 0.514026 0.452587 -0.123969
C10   C     C_R   0.031209 0.648386 0.398528 0.151898
C11   C     C_R   0.135840 0.616627 0.381222 0.062301
C12   C     C_R   0.029983 0.476710 0.557144 -0.054533
C13   C     C_R   0.128892 0.436759 0.529178 -0.115208
C14   C     C_3   0.597771 0.698563 0.891433 -0.340644
C15   C     C_3   0.661516 0.784148 0.998370 -0.964350
C16   C     C_2   0.478799 0.375948 0.886990 0.528630
C17   C     C_3   0.982266 0.772840 0.350577 -0.419303
C18   C     C_3   0.932579 0.764169 0.203574 -0.849318
C19   C     C_2   0.040058 0.366626 0.779510 0.349470
C20   C     C_3   0.194036 0.687011 0.283292 -0.381606
C21   C     C_3   0.189660 0.613274 0.149007 -0.791496
C22   C     C_2   0.163842 0.304273 0.557960 0.347062
C23   C     C_R   0.976566 0.570280 0.476758 0.104992
C24   C     C_3   0.387199 0.911058 0.613994 -0.369868
C25   C     C_3   0.269360 0.930514 0.568462 -0.829372
C26   C     C_3   0.367907 0.124292 0.270518 -0.326462
C27   C     C_3   0.291450 0.033076 0.184602 -0.893589
C28   C     C_R   0.867229 0.577009 0.469273 -0.245309
C29   C     C_R   0.870547 0.434539 0.651548 -0.160157
C30   C     C_R   0.979666 0.423135 0.659171 -0.016072
C31   C     C_2   0.449972 0.928140 0.387122 -0.181171
C32   C     C_2   0.444936 0.863304 0.498274 -0.048022
C33   C     C_2   0.437180 0.063301 0.386406 0.204596
H1    H     H_    0.820825 0.634181 0.396151 0.159895
H2    H     H_    0.648756 0.674635 0.813770 0.250569
H3    H     H_    0.529422 0.754268 0.846569 0.214546
H4    H     H_    0.403922 0.332542 0.845262 0.060354
H5    H     H_    0.993629 0.767104 0.135951 0.266917
H6    H     H_    0.885947 0.675784 0.182007 0.257738
H7    H     H_    0.879649 0.845902 0.181892 0.256533
H8    H     H_    0.921066 0.804018 0.412458 0.200466
H9    H     H_    0.040585 0.851104 0.368544 0.197144
H10   H     H_    0.125037 0.379743 0.801669 0.063858
H11   H     H_    0.223092 0.517636 0.161986 0.269633
H12   H     H_    0.549335 0.080707 0.563822 0.125191
H13   H     H_    0.106753 0.602706 0.099471 0.258730
H14   H     H_    0.235301 0.664560 0.081766 0.225475
H15   H     H_    0.161679 0.781148 0.261022 0.203866
H16   H     H_    0.277019 0.707440 0.326884 0.210751
H17   H     H_    0.108470 0.236413 0.586538 0.084145
H18   H     H_    0.256214 0.003261 0.491890 0.292180
H19   H     H_    0.231823 0.840767 0.526865 0.232787
H20   H     H_    0.230633 0.962273 0.655794 0.251569
H21   H     H_    0.393049 0.842343 0.694873 0.205689
H22   H     H_    0.422178 0.999026 0.663229 0.225176
H23   H     H_    0.642103 0.591299 0.152702 0.161126
H24   H     H_    0.335322 0.959977 0.133687 0.257417
H25   H     H_    0.238888 0.987465 0.247561 0.260157
H26   H     H_    0.241569 0.085799 0.106256 0.264131
H27   H     H_    0.319647 0.199458 0.311190 0.240501
H28   H     H_    0.419149 0.167627 0.204039 0.229705
H29   H     H_    0.428555 0.485166 0.091252 0.141345
H30   H     H_    0.828517 0.387764 0.722253 0.199961
H31   H     H_    0.479075 0.885629 0.299660 0.156249
H32   H     H_    0.613715 0.812191 0.078520 0.266577
H33   H     H_    0.734014 0.735221 0.041697 0.265101
H34   H     H_    0.685352 0.870769 0.951625 0.277396
N1    N     N_2   0.501130 0.501330 0.852280 -0.201161
N2    N     N_2   0.501160 0.501360 0.147950 -0.193392
O1    O     O_R   0.499980 0.319060 0.613040 -0.594624
O2    O     O_2   0.995492 0.306715 0.856572 -0.563680
O3    O     O_2   0.252184 0.266869 0.545021 -0.608836
O4    O     O_R   0.500020 0.319100 0.386900 -0.615469
O5    O     O_R   0.346340 0.499960 0.594380 -0.609824
O6    O     O_R   0.346380 0.500000 0.368250 -0.632702
O7    O     O_R   0.499980 0.680900 0.613100 -0.652677
O8    O     O_R   0.500020 0.680940 0.386960 -0.629301
O9    O     O_R   0.653620 0.500000 0.631750 -0.628287
O10   O     O_R   0.653660 0.500040 0.405620 -0.603526
O11   O     O_2   0.545460 0.313163 0.953788 -0.589750
Zn1   Zn    Zn3+2 0.499980 0.499970 0.650990 0.947445
Zn2   Zn    Zn3+2 0.500020 0.500030 0.349010 0.940525

loop_
_geom_bond_atom_site_label_1
_geom_bond_atom_site_label_2
_ccdc_geom_bond_type
C6    C32   S    
C29   H30   S    
C5    H23   S    
C19   O2    D    
C3    N1    D    
C24   C32   S    
C7    C8    S    
C24   H22   S    
C12   C23   A    
C26   C27   S    
C29   C30   A    
N1    Zn1   S    
C26   H28   S    
C25   H20   S    
C14   H3    S    
C10   C17   S    
C24   H21   S    
C15   H32   S    
C1    C2    S    
O1    Zn1   S    
C9    C13   A    
C17   H9    S    
C4    O6    A    
C18   H7    S    
N2    Zn2   S    
C5    N2    D    
C31   C33   S    
C16   N1    S    
C4    O5    A    
C16   H4    S    
C22   H17   S    
C28   H1    S    
C22   O3    D    
C19   H10   S    
C2    H12   S    
C11   C20   S    
C24   C25   S    
C27   H24   S    
C14   H2    S    
C6    O8    A    
C15   H33   S    
H29   N2    S    
C16   O11   D    
C18   H6    S    
C25   H18   S    
C20   H16   S    
C21   H11   S    
C26   C33   S    
C31   C32   D    
C15   H34   S    
C17   C18   S    
C23   C28   A    
C12   C13   A    
C9    C11   A    
C20   H15   S    
C3    C14   S    
C7    O9    A    
C2    C33   D    
C8    C28   A    
C8    C29   A    
O5    Zn1   S    
O4    Zn2   S    
C7    O10   A    
C21   H13   S    
C12   C30   A    
C31   H31   S    
C3    C5    S    
C27   H25   S    
O7    Zn1   S    
O10   Zn2   S    
O6    Zn2   S    
C6    O7    A    
C10   C23   A    
C1    O1    A    
C1    O4    A    
C18   H5    S    
C25   H19   S    
C27   H26   S    
O9    Zn1   S    
O8    Zn2   S    
C13   C22   S    
C17   H8    S    
C10   C11   A    
C20   C21   S    
C14   C15   S    
C4    C9    S    
C19   C30   S    
C26   H27   S    
C21   H14   S    
