data_mof_unit_19189.cif
_audit_creation_date              2012-12-11T17:05:36-0500
_audit_creation_method            fapswitch 2.2
_symmetry_space_group_name_H-M    P1
_symmetry_Int_Tables_number       1
_space_group_crystal_system       triclinic
_cell_length_a                    6.948313
_cell_length_b                    14.655476
_cell_length_c                    15.916703
_cell_angle_alpha                 90.298678
_cell_angle_beta                  89.907855
_cell_angle_gamma                 90.208034
_cell_volume                      1620.7763946

loop_
_atom_site_label
_atom_site_type_symbol
_atom_type_description
_atom_site_fract_x
_atom_site_fract_y
_atom_site_fract_z
_atom_type_partial_charge
O1    O     O_R   0.494380 0.415640 0.412830 -0.535993
O2    O     O_R   0.823960 0.405540 0.586560 -0.543230
O3    O     O_R   0.994270 0.584360 0.587170 -0.539787
C1    C     C_R   0.655271 0.384337 0.616054 0.693605
O4    O     O_R   0.824090 0.404620 0.413450 -0.543137
O5    O     O_R   0.994400 0.583430 0.412820 -0.538228
C2    C     C_R   0.655185 0.382465 0.384469 0.695725
O6    O     O_R   0.494250 0.416570 0.587180 -0.540179
O7    O     O_3   0.660800 0.558670 0.500000 -0.368784
V1    V     V_3+5 0.935650 0.489120 0.500000 1.376594
O8    O     O_R   0.324110 0.594460 0.413440 -0.538266
C3    C     C_R   0.155242 0.616152 0.384273 0.697322
O9    O     O_R   0.323980 0.595380 0.586550 -0.544491
C4    C     C_R   0.154901 0.617888 0.615387 0.645146
V2    V     V_3+5 0.435660 0.510880 0.500000 1.382248
O10   O     O_3   0.160640 0.441330 0.500000 -0.370475
C5    C     C_3   0.994170 0.658519 0.753737 -0.327548
H1    H     H_    0.848882 0.651960 0.724900 0.143460
H2    H     H_    0.030531 0.590539 0.778919 0.134964
C6    C     C_3   0.984047 0.728882 0.826683 -0.325116
H3    H     H_    0.020953 0.695722 0.887139 0.128071
H4    H     H_    0.833333 0.753609 0.832691 0.144808
H5    H     H_    0.936530 0.776071 0.620798 0.132900
H6    H     H_    0.914997 0.880293 0.728906 0.128850
C7    C     C_3   0.078859 0.782561 0.652271 -0.317582
C8    C     C_3   0.342042 0.701305 0.729144 -0.327841
C9    C     C_3   0.143289 0.688220 0.685949 0.123397
H7    H     H_    0.450495 0.724750 0.682352 0.141848
H8    H     H_    0.394234 0.635258 0.754178 0.133542
C10   C     C_3   0.121991 0.810400 0.810333 0.121559
C11   C     C_3   0.064638 0.853743 0.725108 -0.326113
C12   C     C_3   0.330007 0.772440 0.800883 -0.309891
H9    H     H_    0.377389 0.741124 0.860838 0.129550
H10   H     H_    0.432089 0.829175 0.787082 0.139616
H11   H     H_    0.183319 0.807100 0.604307 0.122698
H12   H     H_    0.160613 0.912776 0.711383 0.119980
C13   C     C_R   0.272850 0.815432 0.240099 0.098914
C14   C     C_R   0.118184 0.815651 0.183647 -0.113450
C15   C     C_R   0.966701 0.753798 0.199053 -0.179607
H13   H     H_    0.844183 0.751360 0.157404 0.132356
C16   C     C_R   0.978058 0.689986 0.264858 -0.177475
H14   H     H_    0.863209 0.640657 0.272093 0.126996
C17   C     C_R   0.141607 0.685776 0.317093 -0.113479
C18   C     C_R   0.284537 0.752039 0.304969 0.098209
C19   C     C_3   0.495538 0.740206 0.292636 -0.409135
C20   C     C_3   0.482966 0.809640 0.222334 -0.396839
H15   H     H_    0.531573 0.670418 0.270121 0.166607
H16   H     H_    0.579947 0.764863 0.347557 0.173699
H17   H     H_    0.512570 0.780377 0.159070 0.170330
H18   H     H_    0.559325 0.874628 0.236771 0.166563
C21   C     C_R   0.506075 0.319039 0.748069 0.082722
C22   C     C_R   0.649480 0.317851 0.686010 -0.132846
C23   C     C_R   0.797214 0.252504 0.695818 -0.179237
H19   H     H_    0.916950 0.250516 0.652286 0.124282
C24   C     C_R   0.786267 0.185419 0.759281 -0.181889
H20   H     H_    0.898583 0.134692 0.763307 0.118513
C25   C     C_R   0.625319 0.180550 0.813318 -0.106009
C26   C     C_R   0.489914 0.249554 0.806136 0.067967
C27   C     C_3   0.275820 0.249767 0.805204 -0.401899
C28   C     C_3   0.292821 0.333137 0.747815 -0.096185
H21   H     H_    0.209655 0.261764 0.867779 0.173101
H22   H     H_    0.218840 0.188682 0.771849 0.146505
H23   H     H_    0.227223 0.322440 0.684868 0.135204
C29   C     C_R   0.494138 0.316106 0.256164 0.098295
C30   C     C_R   0.647251 0.316602 0.313391 -0.112940
C31   C     C_R   0.798283 0.254677 0.298425 -0.178577
H24   H     H_    0.920032 0.252675 0.340496 0.131355
C32   C     C_R   0.787353 0.190220 0.232525 -0.178071
H25   H     H_    0.901473 0.140753 0.225735 0.126105
C33   C     C_R   0.624784 0.185501 0.179725 -0.112208
C34   C     C_R   0.482906 0.252094 0.191188 0.100881
C35   C     C_3   0.271186 0.240928 0.202144 -0.406838
C36   C     C_3   0.283323 0.311024 0.272635 -0.397881
H26   H     H_    0.232564 0.171450 0.224302 0.166099
H27   H     H_    0.189304 0.265279 0.146721 0.175468
H28   H     H_    0.250994 0.282465 0.335672 0.170405
H29   H     H_    0.209170 0.376061 0.257819 0.167575
O11   O     O_R   0.771490 0.080820 0.910070 -0.538685
O12   O     O_R   0.441590 0.092730 0.083780 -0.538894
O13   O     O_R   0.271350 0.913900 0.084390 -0.536063
C37   C     C_R   0.610758 0.114887 0.112798 0.698313
O14   O     O_R   0.441780 0.091820 0.910670 -0.539834
O15   O     O_R   0.271540 0.912980 0.910040 -0.541947
C38   C     C_R   0.611016 0.111671 0.880418 0.697225
O16   O     O_R   0.771300 0.081740 0.084420 -0.538191
O17   O     O_3   0.604960 0.938700 0.997240 -0.372528
V3    V     V_3+5 0.330090 0.008230 0.997220 1.386882
O18   O     O_R   0.941820 0.901930 0.910640 -0.545269
C39   C     C_R   0.110790 0.880096 0.881329 0.649969
O19   O     O_R   0.941630 0.902840 0.083750 -0.543172
C40   C     C_R   0.110278 0.880867 0.112659 0.694240
V4    V     V_3+5 0.830090 0.986410 0.997190 1.379872
O20   O     O_3   0.105080 0.055990 0.997200 -0.365656
C41   C     C_3   0.232527 0.423630 0.790814 -0.310767
C42   C     C_3   0.343996 0.446885 0.872577 -0.280662
C43   C     C_3   0.254251 0.526064 0.920784 -0.828138
H30   H     H_    0.273897 0.589930 0.885406 0.232683
H31   H     H_    0.098587 0.513546 0.932028 0.231439
H32   H     H_    0.327157 0.534236 0.982419 0.220822
H33   H     H_    0.347117 0.387910 0.915807 0.196439
H34   H     H_    0.495321 0.465018 0.856923 0.183203
H35   H     H_    0.256263 0.479333 0.744997 0.151510
H36   H     H_    0.075665 0.419659 0.804275 0.174403

loop_
_geom_bond_atom_site_label_1
_geom_bond_atom_site_label_2
_ccdc_geom_bond_type
C7    C11   S    
O15   V3    S    
C24   H20   S    
C8    C12   S    
C16   H14   S    
C31   C32   A    
C42   C43   S    
C1    O6    A    
O12   V3    S    
O19   C40   A    
C15   C16   A    
C6    C10   S    
C19   C20   S    
C18   C19   S    
C20   H17   S    
C8    C9    S    
C1    C22   S    
C28   H23   S    
C3    C17   S    
C10   C39   S    
O5    C3    A    
C10   C11   S    
V2    O10   S    
C43   H32   S    
C5    C6    S    
C29   C34   A    
C33   C37   S    
O8    V2    S    
O18   V4    S    
C32   H25   S    
C43   H31   S    
C42   H34   S    
C29   C36   S    
C33   C34   A    
O1    V2    S    
C4    C9    S    
O7    V1    S    
C19   H15   S    
C31   H24   S    
C27   C28   S    
O9    C4    A    
C16   C17   A    
C35   H27   S    
O16   V4    S    
C23   C24   A    
O15   C39   A    
C27   H21   S    
C21   C22   A    
C5    C9    S    
C42   H33   S    
C35   H26   S    
C15   H13   S    
O4    C2    A    
O17   V3    S    
O11   V4    S    
C26   C27   S    
C23   H19   S    
C14   C40   S    
C12   H10   S    
O2    C1    A    
C17   C18   A    
C13   C14   A    
C2    C30   S    
O19   V4    S    
C43   H30   S    
C5    H1    S    
C25   C38   S    
C21   C26   A    
C6    H3    S    
O3    C4    A    
O13   V3    S    
C7    H11   S    
C6    H4    S    
C41   H36   S    
O6    V2    S    
O14   C38   A    
C24   C25   A    
C36   H28   S    
O2    V1    S    
C22   C23   A    
O12   C37   A    
C19   H16   S    
C27   H22   S    
O1    C2    A    
C35   C36   S    
O5    V1    S    
O8    C3    A    
C7    C9    S    
C20   H18   S    
C8    H7    S    
C29   C30   A    
C13   C18   A    
O9    V2    S    
O7    V2    S    
H6    C11   S    
O4    V1    S    
O3    V1    S    
V1    O10   S    
C12   H9    S    
C10   C12   S    
C25   C26   A    
C14   C15   A    
O13   C40   A    
V3    O20   S    
V4    O20   S    
C5    H2    S    
H5    C7    S    
C41   C42   S    
O11   C38   A    
C34   C35   S    
O18   C39   A    
C41   H35   S    
C8    H8    S    
C32   C33   A    
C30   C31   A    
C36   H29   S    
C11   H12   S    
O17   V4    S    
C21   C28   S    
C13   C20   S    
C37   O16   A    
O14   V3    S    
C28   C41   S    
