data_mof_unit_50054.cif
_audit_creation_date              2012-12-10T17:05:12-0500
_audit_creation_method            fapswitch 2.2
_symmetry_space_group_name_H-M    P1
_symmetry_Int_Tables_number       1
_space_group_crystal_system       triclinic
_cell_length_a                    10.816088
_cell_length_b                    11.057937
_cell_length_c                    9.999303
_cell_angle_alpha                 112.706878
_cell_angle_beta                  98.899103
_cell_angle_gamma                 91.65095
_cell_volume                      1084.82194231

loop_
_atom_site_label
_atom_site_type_symbol
_atom_type_description
_atom_site_fract_x
_atom_site_fract_y
_atom_site_fract_z
_atom_type_partial_charge
C1    C     C_R   0.493510 0.253029 0.437680 0.834660
C2    C     C_3   0.876034 0.485650 0.496340 -0.073338
C3    C     C_3   0.941291 0.627746 0.574839 -0.438452
C4    C     C_3   0.900699 0.428113 0.334077 -0.136189
C5    C     C_2   0.486810 0.109187 0.394122 0.013461
C6    C     C_2   0.528655 0.059309 0.495190 0.199813
C7    C     C_2   0.505725 0.889175 0.599324 0.006408
C8    C     C_2   0.467915 0.933610 0.491600 0.193312
C9    C     C_2   0.514828 0.508809 0.081936 0.306108
C10   C     C_2   0.494599 0.486136 0.918068 0.047970
C11   C     C_R   0.259605 0.490899 0.497990 0.868728
C12   C     C_R   0.504688 0.746575 0.561423 0.804547
C13   C     C_R   0.738923 0.493676 0.498213 0.780661
C14   C     C_3   0.074422 0.376544 0.555695 0.528593
C15   C     C_3   0.934034 0.400428 0.580478 0.316012
C16   C     C_3   0.085329 0.624496 0.599093 -0.123874
C17   C     C_3   0.044523 0.447283 0.336040 0.399484
C18   C     C_3   0.120119 0.484271 0.497806 -0.076901
Cu1   Cu    Cu3+1 0.522160 0.521810 0.644910 0.945168
Cu2   Cu    Cu3+1 0.477840 0.478190 0.355090 0.936781
H1    H     H_    0.855849 0.488636 0.276920 0.143183
H2    H     H_    0.910551 0.684684 0.506809 0.162669
H3    H     H_    0.416220 0.419233 0.845355 0.084392
H4    H     H_    0.874617 0.304686 0.532380 0.057250
H5    H     H_    0.117139 0.641016 0.716186 0.218146
H6    H     H_    0.912371 0.680058 0.683329 0.208324
H7    H     H_    0.061755 0.534292 0.308539 0.058758
N1    N     N_2   0.444530 0.445420 0.137360 -0.140126
N2    N     N_2   0.555520 0.554510 0.862630 0.005116
O1    O     O_R   0.511820 0.332340 0.577400 -0.600612
O2    O     O_R   0.474400 0.295500 0.332650 -0.567346
O3    O     O_R   0.336400 0.518400 0.622370 -0.613939
O4    O     O_R   0.298980 0.481560 0.377620 -0.541355
O5    O     O_R   0.525600 0.704500 0.667350 -0.589491
O6    O     O_R   0.488180 0.667660 0.422600 -0.590912
O7    O     O_R   0.701020 0.518440 0.622380 -0.536266
O8    O     O_R   0.663600 0.481600 0.377630 -0.599631
C19   C     C_3   0.161071 0.385547 0.700504 -0.810329
H8    H     H_    0.184913 0.487462 0.784093 0.221203
H9    H     H_    0.117238 0.328827 0.754065 0.207151
H10   H     H_    0.248362 0.339620 0.672918 0.227320
C20   C     C_3   0.147838 0.743579 0.582540 -0.917002
H11   H     H_    0.251573 0.748991 0.610517 0.241450
H12   H     H_    0.119230 0.740255 0.469848 0.231088
H13   H     H_    0.118625 0.836099 0.660685 0.246231
C21   C     C_3   0.353126 0.860734 0.374857 -0.858002
H14   H     H_    0.286022 0.931248 0.362290 0.228839
H15   H     H_    0.380344 0.800930 0.268135 0.245968
H16   H     H_    0.300206 0.791964 0.406122 0.227828
C22   C     C_3   0.655076 0.118665 0.593371 -0.916720
H17   H     H_    0.712546 0.040588 0.604960 0.232018
H18   H     H_    0.710595 0.170131 0.543219 0.203693
H19   H     H_    0.642561 0.189654 0.703138 0.241043
C23   C     C_3   0.543972 0.980606 0.759999 -0.927024
H20   H     H_    0.495176 0.943827 0.828802 0.241008
H21   H     H_    0.646940 0.985042 0.796149 0.230433
H22   H     H_    0.514442 0.080469 0.781231 0.243810
C24   C     C_3   0.455415 0.022709 0.230677 -0.899121
H23   H     H_    0.497947 0.069543 0.166105 0.239955
H24   H     H_    0.497221 0.927717 0.204804 0.228991
H25   H     H_    0.352153 0.007053 0.191840 0.251188
C25   C     C_3   0.618857 0.615668 0.180482 -0.668537
H26   H     H_    0.710656 0.583463 0.151542 0.210327
H27   H     H_    0.600354 0.709301 0.168196 0.187575
H28   H     H_    0.637537 0.642327 0.297555 0.243837
O9    O     O_3   0.675137 0.601049 0.929163 -0.515959
C26   C     C_3   0.694749 0.730352 0.937271 -0.102104
H29   H     H_    0.609853 0.785292 0.955019 0.130859
H30   H     H_    0.729064 0.730294 0.838571 0.185574
H31   H     H_    0.769855 0.785142 0.033325 0.108013
O10   O     O_3   0.078736 0.249768 0.441750 -0.554080
C27   C     C_3   0.059651 0.140599 0.480001 -0.361374
H32   H     H_    0.992275 0.153909 0.556468 0.139357
H33   H     H_    0.150978 0.117829 0.528293 0.184191
H34   H     H_    0.021523 0.053370 0.377835 0.184725
C28   C     C_3   0.370465 0.323833 0.038304 -0.609354
H35   H     H_    0.324965 0.279947 0.103091 0.262939
H36   H     H_    0.295448 0.342141 0.961417 0.151838
H37   H     H_    0.431766 0.252103 0.976094 0.172404
O11   O     O_3   0.932991 0.470039 0.733755 -0.577371
C29   C     C_3   0.870551 0.393936 0.792698 -0.284243
H38   H     H_    0.911335 0.299060 0.774623 0.113681
H39   H     H_    0.768979 0.376058 0.746751 0.224910
H40   H     H_    0.879665 0.451393 0.912757 0.198943
O12   O     O_3   0.086700 0.333704 0.232975 -0.506070
C30   C     C_3   0.070050 0.338181 0.092149 -0.327638
H41   H     H_    0.095333 0.244529 0.012405 0.176010
H42   H     H_    0.131217 0.421004 0.092935 0.174210
H43   H     H_    0.971069 0.347961 0.053057 0.140175
C31   C     C_3   0.838131 0.284657 0.243329 -0.743574
H44   H     H_    0.813962 0.266053 0.124746 0.212631
H45   H     H_    0.898701 0.208982 0.253775 0.287568
H46   H     H_    0.748933 0.266089 0.276920 0.208406

loop_
_geom_bond_atom_site_label_1
_geom_bond_atom_site_label_2
_ccdc_geom_bond_type
C11   C18   S    
Cu2   O8    S    
C14   O10   S    
C14   C18   S    
Cu1   Cu2   S    
C28   H37   S    
C29   H38   S    
C7    C8    D    
O12   C30   S    
C21   H16   S    
C5    C24   S    
C1    C5    S    
C28   H36   S    
Cu1   O7    S    
C5    C6    D    
C30   H42   S    
C24   H24   S    
C1    O2    A    
C2    C13   S    
C25   H27   S    
C21   H14   S    
Cu2   O6    S    
C22   H18   S    
C9    C10   S    
C13   O8    A    
C24   H25   S    
O9    C26   S    
C20   H12   S    
C27   H34   S    
Cu1   O3    S    
C29   H39   S    
C22   H17   S    
C4    C31   S    
C7    C12   S    
C23   H21   S    
C22   H19   S    
C26   H29   S    
C17   H7    S    
C11   O4    A    
C28   H35   S    
C19   H10   S    
C27   H33   S    
C30   H41   S    
C27   H32   S    
C6    C8    S    
Cu2   N1    S    
C24   H23   S    
C30   H43   S    
C9    C25   S    
C26   H30   S    
C20   H13   S    
C2    C4    S    
C25   H26   S    
C14   C19   S    
C31   H45   S    
C15   O11   S    
C17   C18   S    
C6    C22   S    
C12   O6    A    
C2    C15   S    
C13   O7    A    
Cu2   O4    S    
C15   H4    S    
C11   O3    A    
C17   O12   S    
C20   H11   S    
C4    C17   S    
C12   O5    A    
N1    C28   S    
C16   C20   S    
C29   H40   S    
C31   H46   S    
C16   H5    S    
C23   H20   S    
C25   H28   S    
C3    H6    S    
O11   C29   S    
Cu1   O5    S    
C10   H3    S    
C26   H31   S    
C2    C3    S    
O10   C27   S    
C19   H9    S    
C4    H1    S    
C10   N2    D    
C31   H44   S    
C19   H8    S    
C1    O1    A    
C8    C21   S    
N2    O9    S    
C21   H15   S    
C16   C18   S    
C14   C15   S    
C3    H2    S    
C7    C23   S    
Cu1   O1    S    
Cu2   O2    S    
C3    C16   S    
C9    N1    D    
C23   H22   S    
Cu1   N2    S    
