data_mof_unit_63382.cif
_audit_creation_date              2013-03-05T16:22:37-0500
_audit_creation_method            fapswitch 2.2
_symmetry_space_group_name_H-M    P1
_symmetry_Int_Tables_number       1
_space_group_crystal_system       triclinic
_cell_length_a                    36.099971
_cell_length_b                    43.129431
_cell_length_c                    28.218313
_cell_angle_alpha                 90.006172
_cell_angle_beta                  130.072275
_cell_angle_gamma                 90.003423
_cell_volume                      33620.588296

loop_
_atom_site_label
_atom_site_type_symbol
_atom_site_description
_atom_site_fract_x
_atom_site_fract_y
_atom_site_fract_z
_atom_type_partial_charge
Zn1   Zn    Zn3+2 0.443260 0.224070 0.948090 1.118594
Zn2   Zn    Zn3+2 0.556740 0.775930 0.051910 1.121053
Zn3   Zn    Zn3+2 0.556740 0.224070 0.051910 1.125702
Zn4   Zn    Zn3+2 0.443260 0.775930 0.948090 1.121011
Zn5   Zn    Zn3+2 0.943260 0.724070 0.948090 1.120329
Zn6   Zn    Zn3+2 0.056740 0.275930 0.051910 1.122337
Zn7   Zn    Zn3+2 0.056740 0.724070 0.051910 1.120312
Zn8   Zn    Zn3+2 0.943260 0.275930 0.948090 1.122483
Zn9   Zn    Zn3+2 0.504820 0.275980 0.948070 1.088004
Zn10  Zn    Zn3+2 0.495180 0.724020 0.051930 1.082641
Zn11  Zn    Zn3+2 0.495180 0.275980 0.051930 1.084283
Zn12  Zn    Zn3+2 0.504820 0.724020 0.948070 1.082680
Zn13  Zn    Zn3+2 0.004820 0.775980 0.948070 1.087573
Zn14  Zn    Zn3+2 0.995180 0.224020 0.051930 1.081626
Zn15  Zn    Zn3+2 0.995180 0.775980 0.051930 1.087583
Zn16  Zn    Zn3+2 0.004820 0.224020 0.948070 1.085521
H1    H     H_    0.467111 0.528544 0.903617 0.181942
H2    H     H_    0.532861 0.471454 0.096361 0.182005
H3    H     H_    0.532861 0.528567 0.096355 0.181889
H4    H     H_    0.467113 0.471431 0.903623 0.182076
H5    H     H_    0.967140 0.028543 0.903631 0.182121
H6    H     H_    0.032857 0.971455 0.096365 0.182126
H7    H     H_    0.032855 0.028568 0.096357 0.181978
H8    H     H_    0.967144 0.971431 0.903640 0.182164
O1    O     O_3   0.500000 0.250020 0.000000 -0.558327
O2    O     O_3   0.500000 0.749980 0.000000 -0.557717
O3    O     O_3   0.000000 0.750020 0.000000 -0.557736
O4    O     O_3   0.000000 0.249980 0.000000 -0.558347
O5    O     O_R   0.600360 0.231850 0.036310 -0.611442
O6    O     O_R   0.399640 0.768150 0.963690 -0.606019
O7    O     O_R   0.399640 0.231850 0.963690 -0.616157
O8    O     O_R   0.600360 0.768150 0.036310 -0.605929
O9    O     O_R   0.100360 0.731850 0.036310 -0.616035
O10   O     O_R   0.899640 0.268150 0.963690 -0.610968
O11   O     O_R   0.899640 0.731850 0.963690 -0.615979
O12   O     O_R   0.100360 0.268150 0.036310 -0.606148
O13   O     O_R   0.452240 0.268200 0.861400 -0.631628
O14   O     O_R   0.547760 0.731800 0.138600 -0.636706
O15   O     O_R   0.547760 0.268200 0.138600 -0.635138
O16   O     O_R   0.452240 0.731800 0.861400 -0.636740
O17   O     O_R   0.952240 0.768200 0.861400 -0.631562
O18   O     O_R   0.047760 0.231800 0.138600 -0.636659
O19   O     O_R   0.047760 0.768200 0.138600 -0.631606
O20   O     O_R   0.952240 0.231800 0.861400 -0.635282
O21   O     O_R   0.503360 0.319320 0.963650 -0.608822
O22   O     O_R   0.496640 0.680680 0.036350 -0.607516
O23   O     O_R   0.496640 0.319320 0.036350 -0.608374
O24   O     O_R   0.503360 0.680680 0.963650 -0.607460
O25   O     O_R   0.003360 0.819320 0.963650 -0.608884
O26   O     O_R   0.996640 0.180680 0.036350 -0.607488
O27   O     O_R   0.996640 0.819320 0.036350 -0.608843
O28   O     O_R   0.003360 0.180680 0.963650 -0.608257
O29   O     O_R   0.539730 0.180720 0.036330 -0.592588
O30   O     O_R   0.460270 0.819280 0.963670 -0.595896
O31   O     O_R   0.460270 0.180720 0.963670 -0.590894
O32   O     O_R   0.539730 0.819280 0.036330 -0.595917
O33   O     O_R   0.039730 0.680720 0.036330 -0.591272
O34   O     O_R   0.960270 0.319280 0.963670 -0.590165
O35   O     O_R   0.960270 0.680720 0.963670 -0.591314
O36   O     O_R   0.039730 0.319280 0.036330 -0.597597
O37   O     O_R   0.409160 0.231870 0.861420 -0.604161
O38   O     O_R   0.590840 0.768130 0.138580 -0.596491
O39   O     O_R   0.590840 0.231870 0.138580 -0.596839
O40   O     O_R   0.409160 0.768130 0.861420 -0.596421
O41   O     O_R   0.909160 0.731870 0.861420 -0.604439
O42   O     O_R   0.090840 0.268130 0.138580 -0.596736
O43   O     O_R   0.090840 0.731870 0.138580 -0.604369
O44   O     O_R   0.909160 0.268130 0.861420 -0.596237
O45   O     O_R   0.564010 0.268190 0.963640 -0.600876
O46   O     O_R   0.435990 0.731810 0.036360 -0.603522
O47   O     O_R   0.435990 0.268190 0.036360 -0.600798
O48   O     O_R   0.564010 0.731810 0.963640 -0.603522
O49   O     O_R   0.064010 0.768190 0.963640 -0.600058
O50   O     O_R   0.935990 0.231810 0.036360 -0.602773
O51   O     O_R   0.935990 0.768190 0.036360 -0.600045
O52   O     O_R   0.064010 0.231810 0.963640 -0.602485
C1    C     C_R   0.599715 0.249980 0.000038 0.853095
C2    C     C_R   0.400284 0.750018 0.999959 0.852112
C3    C     C_R   0.400282 0.249980 0.999961 0.851992
C4    C     C_R   0.599719 0.750019 0.000043 0.852101
C5    C     C_R   0.099714 0.749980 0.000037 0.852959
C6    C     C_R   0.900284 0.250019 0.999961 0.850419
C7    C     C_R   0.900282 0.749980 0.999961 0.852900
C8    C     C_R   0.099719 0.250020 0.000042 0.853522
C9    C     C_R   0.416229 0.249526 0.831681 0.896550
C10   C     C_R   0.584197 0.750263 0.168555 0.879330
C11   C     C_R   0.583955 0.249637 0.168420 0.887498
C12   C     C_R   0.415807 0.750261 0.831446 0.879317
C13   C     C_R   0.916229 0.749526 0.831681 0.896238
C14   C     C_R   0.084199 0.250262 0.168555 0.879104
C15   C     C_R   0.083766 0.749528 0.168317 0.896201
C16   C     C_R   0.916046 0.250364 0.831580 0.887836
C17   C     C_R   0.499999 0.334141 0.000001 0.956741
C18   C     C_R   0.499999 0.665859 0.999997 0.959363
C19   C     C_R   0.000000 0.834141 0.000002 0.956007
C20   C     C_R   1.000000 0.165859 0.999998 0.958478
C21   C     C_R   0.499996 0.165864 0.999990 0.985503
C22   C     C_R   0.500004 0.834140 0.000002 0.970421
C23   C     C_R   0.999997 0.665861 0.999993 0.989392
C24   C     C_R   0.000003 0.334142 0.999994 0.974492
C25   C     C_R   0.464833 0.884672 0.997463 0.192308
C26   C     C_R   0.535045 0.115364 0.002184 0.194582
C27   C     C_R   0.535202 0.884655 0.002505 0.192103
C28   C     C_R   0.464933 0.115337 0.997672 0.193892
C29   C     C_R   0.964573 0.384683 0.996896 0.192943
C30   C     C_R   0.035325 0.615351 0.002781 0.194733
C31   C     C_R   0.035431 0.384661 0.002974 0.193653
C32   C     C_R   0.964656 0.615327 0.997101 0.194579
C33   C     C_R   0.464978 0.917224 0.997382 0.363486
C34   C     C_R   0.534925 0.082812 0.002245 0.364623
C35   C     C_R   0.535070 0.917207 0.002551 0.363556
C36   C     C_R   0.465070 0.082785 0.997576 0.364818
C37   C     C_R   0.964703 0.417232 0.996777 0.363638
C38   C     C_R   0.035212 0.582801 0.002866 0.365063
C39   C     C_R   0.035313 0.417212 0.003045 0.363810
C40   C     C_R   0.964775 0.582777 0.996969 0.365057
C41   C     C_R   0.500027 0.933390 0.999957 -0.083252
C42   C     C_R   0.500005 0.066625 0.999909 -0.083751
C43   C     C_R   0.000014 0.433395 0.999906 -0.083363
C44   C     C_R   0.999997 0.566617 0.999909 -0.083924
C45   C     C_R   0.499987 0.467587 0.999992 0.188709
C46   C     C_R   0.499987 0.532411 0.999985 0.188754
C47   C     C_R   0.000000 0.967587 0.000003 0.188578
C48   C     C_R   0.999998 0.032411 0.999993 0.188594
C49   C     C_R   0.500015 0.868287 0.999993 -0.343666
C50   C     C_R   0.499991 0.131723 0.999949 -0.341202
C51   C     C_R   0.000006 0.368292 0.999963 -0.342559
C52   C     C_R   0.999992 0.631716 0.999959 -0.341750
C53   C     C_R   0.472010 0.983753 0.943404 0.360425
C54   C     C_R   0.528059 0.016263 0.056459 0.360738
C55   C     C_R   0.528060 0.983774 0.056471 0.360674
C56   C     C_R   0.472002 0.016242 0.943392 0.360777
C57   C     C_R   0.972542 0.483757 0.943389 0.360627
C58   C     C_R   0.027505 0.516255 0.056423 0.360836
C59   C     C_R   0.027511 0.483767 0.056422 0.360374
C60   C     C_R   0.972530 0.516245 0.943389 0.360481
C61   C     C_R   0.500025 0.032467 0.999919 -0.141579
C62   C     C_R   0.500035 0.967548 0.999944 -0.140790
C63   C     C_R   0.000010 0.532462 0.999906 -0.141764
C64   C     C_R   0.000028 0.467549 0.999905 -0.140949
C65   C     C_R   0.481511 0.516158 0.945745 -0.061397
C66   C     C_R   0.518461 0.483841 0.054233 -0.061379
C67   C     C_R   0.518461 0.516170 0.054229 -0.061490
C68   C     C_R   0.481512 0.483828 0.945748 -0.061284
C69   C     C_R   0.981533 0.016157 0.945757 -0.061227
C70   C     C_R   0.018464 0.983841 0.054239 -0.061228
C71   C     C_R   0.018463 0.016171 0.054234 -0.061409
C72   C     C_R   0.981535 0.983827 0.945762 -0.061229
C73   C     C_R   0.499994 0.631691 0.999989 -0.355874
C74   C     C_R   0.499998 0.368308 0.000004 -0.354996
C75   C     C_R   0.999997 0.131692 0.999991 -0.355558
C76   C     C_R   0.000003 0.868308 0.000008 -0.354736
C77   C     C_3   0.731980 0.721696 0.988433 0.235079
C78   C     C_3   0.266985 0.278495 0.009514 0.234472
C79   C     C_3   0.267267 0.721555 0.010084 0.234916
C80   C     C_3   0.732437 0.278387 0.989328 0.234894
C81   C     C_3   0.233031 0.221503 0.990519 0.234849
C82   C     C_3   0.768035 0.778299 0.011599 0.234771
C83   C     C_3   0.767560 0.221607 0.010667 0.234806
C84   C     C_3   0.232717 0.778439 0.989881 0.234601
C85   C     C_3   0.284677 0.231771 0.044833 0.238707
C86   C     C_3   0.716027 0.769039 0.956569 0.239165
C87   C     C_3   0.715709 0.231301 0.955941 0.238632
C88   C     C_3   0.284469 0.768470 0.044411 0.239207
C89   C     C_3   0.783988 0.730956 0.043463 0.238432
C90   C     C_3   0.215338 0.268228 0.955200 0.239040
C91   C     C_3   0.215515 0.731523 0.955555 0.238472
C92   C     C_3   0.784288 0.268692 0.044054 0.239104
H9    H     H_    0.779016 0.767342 0.102608 0.237149
H10   H     H_    0.221676 0.230779 0.898767 0.235232
H11   H     H_    0.221465 0.768658 0.898334 0.237303
H12   H     H_    0.778711 0.231845 0.102015 0.236055
H13   H     H_    0.278338 0.269220 0.101265 0.237380
H14   H     H_    0.720997 0.732653 0.897423 0.234937
H15   H     H_    0.721285 0.268149 0.897980 0.236131
H16   H     H_    0.278519 0.731336 0.101632 0.235097
C93   C     C_1   0.360688 0.249905 0.999818 -0.010617
C94   C     C_1   0.639320 0.750090 0.000200 -0.007682
C95   C     C_1   0.639311 0.249908 0.000183 -0.008843
C96   C     C_1   0.360685 0.750088 0.999807 -0.007612
C97   C     C_1   0.860686 0.749906 0.999814 -0.010564
C98   C     C_1   0.139317 0.250093 0.000194 -0.007339
C99   C     C_1   0.139308 0.749907 0.000177 -0.010472
C100  C     C_1   0.860687 0.250089 0.999813 -0.009098
C101  C     C_3   0.234714 0.239422 0.944293 -0.324701
C102  C     C_3   0.765674 0.759542 0.056479 -0.321509
C103  C     C_3   0.765501 0.240008 0.056143 -0.323569
C104  C     C_3   0.234591 0.760266 0.944040 -0.321225
C105  C     C_3   0.734341 0.740453 0.943553 -0.325402
C106  C     C_3   0.265300 0.260577 0.055739 -0.321189
C107  C     C_3   0.265393 0.739727 0.055926 -0.325084
C108  C     C_3   0.734496 0.259986 0.943852 -0.323157
C109  C     C_3   0.287066 0.249938 0.999920 -0.113431
C110  C     C_3   0.712952 0.750058 0.000118 -0.114011
C111  C     C_3   0.712940 0.249937 0.000094 -0.113711
C112  C     C_3   0.287051 0.750057 0.999888 -0.114084
C113  C     C_3   0.787063 0.749937 0.999914 -0.113294
C114  C     C_3   0.212949 0.250061 0.000112 -0.114196
C115  C     C_3   0.212933 0.749937 0.000078 -0.113375
C116  C     C_3   0.787057 0.250057 0.999901 -0.113660
C117  C     C_1   0.327427 0.249894 0.999814 0.183005
C118  C     C_1   0.672587 0.750101 0.000217 0.184885
C119  C     C_1   0.672575 0.249896 0.000194 0.183989
C120  C     C_1   0.327418 0.750099 0.999792 0.185010
C121  C     C_1   0.827424 0.749894 0.999807 0.182906
C122  C     C_1   0.172584 0.250104 0.000209 0.185226
C123  C     C_1   0.172570 0.749895 0.000182 0.183037
C124  C     C_1   0.827422 0.250099 0.999801 0.183788
C125  C     C_R   0.854182 0.278090 0.730228 0.218525
C126  C     C_R   0.141740 0.720542 0.268933 0.213779
C127  C     C_R   0.151053 0.276070 0.270925 0.214561
C128  C     C_R   0.858226 0.720541 0.731043 0.213775
C129  C     C_R   0.348987 0.776073 0.729092 0.214590
C130  C     C_R   0.645833 0.221918 0.269778 0.218615
C131  C     C_R   0.651018 0.776085 0.270921 0.214541
C132  C     C_R   0.358224 0.220541 0.731044 0.213761
C133  C     C_R   0.822632 0.278360 0.665040 0.199003
C134  C     C_R   0.175853 0.720729 0.334203 0.223917
C135  C     C_R   0.181303 0.276691 0.336021 0.204778
C136  C     C_R   0.824114 0.720728 0.665772 0.223908
C137  C     C_R   0.318738 0.776691 0.663998 0.204725
C138  C     C_R   0.677374 0.221647 0.334966 0.199011
C139  C     C_R   0.681270 0.776706 0.336016 0.204731
C140  C     C_R   0.324110 0.220729 0.665773 0.223960
C141  C     C_R   0.819425 0.251948 0.632995 -0.105407
C142  C     C_R   0.184593 0.748448 0.366605 -0.118440
C143  C     C_R   0.178888 0.252367 0.367404 -0.106055
C144  C     C_R   0.815391 0.748447 0.633393 -0.118467
C145  C     C_R   0.321128 0.752360 0.632599 -0.105976
C146  C     C_R   0.680568 0.248056 0.367007 -0.105508
C147  C     C_R   0.678884 0.752368 0.367402 -0.105995
C148  C     C_R   0.315394 0.248446 0.633393 -0.118392
C149  C     C_R   0.847694 0.225604 0.666082 0.430961
C150  C     C_R   0.159261 0.775634 0.334010 0.428357
C151  C     C_R   0.146202 0.227780 0.333734 0.429623
C152  C     C_R   0.840739 0.775633 0.666009 0.428341
C153  C     C_R   0.353793 0.727769 0.666253 0.429655
C154  C     C_R   0.652291 0.274397 0.333916 0.430942
C155  C     C_R   0.646225 0.727769 0.333735 0.429625
C156  C     C_R   0.340746 0.275631 0.666009 0.428349
C157  C     C_R   0.879152 0.225621 0.730548 -0.220082
C158  C     C_R   0.125759 0.775360 0.269559 -0.224020
C159  C     C_R   0.115911 0.227513 0.269330 -0.216712
C160  C     C_R   0.874240 0.775358 0.730459 -0.224026
C161  C     C_R   0.384083 0.727504 0.730658 -0.216878
C162  C     C_R   0.620837 0.274379 0.269449 -0.219911
C163  C     C_R   0.615934 0.727502 0.269331 -0.216846
C164  C     C_R   0.374246 0.275356 0.730459 -0.224039
H17   H     H_    0.900451 0.205047 0.755205 0.223283
H18   H     H_    0.107074 0.796642 0.245125 0.219894
H19   H     H_    0.091003 0.208325 0.244387 0.226742
H20   H     H_    0.892940 0.796640 0.754909 0.219876
H21   H     H_    0.408974 0.708313 0.755589 0.226686
H22   H     H_    0.599531 0.294950 0.244790 0.223335
H23   H     H_    0.591047 0.708304 0.244390 0.226648
H24   H     H_    0.392948 0.296637 0.754909 0.219860
C165  C     C_R   0.882614 0.251501 0.763231 -0.228325
C166  C     C_R   0.117133 0.748240 0.236503 -0.224416
C167  C     C_R   0.117867 0.251323 0.237130 -0.235733
C168  C     C_R   0.882852 0.748238 0.763494 -0.224404
C169  C     C_R   0.382148 0.751321 0.762872 -0.235786
C170  C     C_R   0.617390 0.248502 0.236770 -0.228266
C171  C     C_R   0.617862 0.751325 0.237129 -0.235772
C172  C     C_R   0.382853 0.248237 0.763495 -0.224482
C173  C     C_R   0.799787 0.252563 0.529434 0.379363
C174  C     C_R   0.203703 0.743696 0.469489 0.352343
C175  C     C_R   0.198020 0.257179 0.470435 0.374136
C176  C     C_R   0.796296 0.743711 0.530514 0.352325
C177  C     C_R   0.301987 0.757166 0.529563 0.374237
C178  C     C_R   0.700205 0.247444 0.470569 0.379224
C179  C     C_R   0.698013 0.757165 0.470432 0.374206
C180  C     C_R   0.296295 0.243693 0.530515 0.352361
C181  C     C_R   0.764681 0.250915 0.464831 -0.194144
C182  C     C_R   0.238316 0.745227 0.534164 -0.192484
C183  C     C_R   0.232523 0.255465 0.535111 -0.152209
C184  C     C_R   0.761692 0.745248 0.465841 -0.192509
C185  C     C_R   0.267476 0.755458 0.464885 -0.152283
C186  C     C_R   0.735310 0.249093 0.535172 -0.194043
C187  C     C_R   0.732515 0.755451 0.535109 -0.152291
C188  C     C_R   0.261691 0.245229 0.465841 -0.192476
H25   H     H_    0.775638 0.252074 0.437016 0.209349
H26   H     H_    0.227489 0.741085 0.561618 0.210454
H27   H     H_    0.221754 0.259863 0.562560 0.210743
H28   H     H_    0.772526 0.741115 0.438390 0.210414
H29   H     H_    0.278241 0.759853 0.437432 0.210703
H30   H     H_    0.724354 0.247933 0.562987 0.209407
H31   H     H_    0.721743 0.759837 0.562558 0.210678
H32   H     H_    0.272521 0.241084 0.438390 0.210444
C189  C     C_R   0.715350 0.248608 0.435232 0.007698
C190  C     C_R   0.286997 0.751661 0.564356 0.005866
C191  C     C_R   0.281117 0.248746 0.565251 0.003692
C192  C     C_R   0.713010 0.751673 0.435644 0.005895
C193  C     C_R   0.218876 0.748747 0.434748 0.003721
C194  C     C_R   0.784642 0.251399 0.564770 0.007677
C195  C     C_R   0.781114 0.748747 0.565250 0.003734
C196  C     C_R   0.213014 0.251670 0.435645 0.005883
C197  C     C_R   0.466879 0.615310 0.001600 0.197595
C198  C     C_R   0.533124 0.384692 0.998419 0.197804
C199  C     C_R   0.533103 0.615310 0.998370 0.197667
C200  C     C_R   0.466869 0.384686 0.001587 0.197690
C201  C     C_R   0.966876 0.115309 0.001589 0.197664
C202  C     C_R   0.033137 0.884690 0.998437 0.197777
C203  C     C_R   0.033115 0.115312 0.998389 0.197653
C204  C     C_R   0.966870 0.884687 0.001583 0.197817
C205  C     C_R   0.467037 0.582740 0.001611 0.313391
C206  C     C_R   0.532959 0.417261 0.998401 0.313314
C207  C     C_R   0.532939 0.582741 0.998354 0.313357
C208  C     C_R   0.467027 0.417255 0.001598 0.313378
C209  C     C_R   0.967037 0.082739 0.001602 0.313419
C210  C     C_R   0.032976 0.917260 0.998422 0.313344
C211  C     C_R   0.032954 0.082742 0.998374 0.313417
C212  C     C_R   0.967031 0.917257 0.001597 0.313333
C213  C     C_R   0.499987 0.566508 0.999983 -0.222993
C214  C     C_R   0.499991 0.433491 0.999997 -0.222963
C215  C     C_R   0.999996 0.066508 0.999989 -0.222965
C216  C     C_R   0.000003 0.933491 0.000008 -0.222933
Cl1   Cl    Cl    0.843587 0.191739 0.627981 -0.421590
Cl2   Cl    Cl    0.168788 0.810565 0.372873 -0.423920
Cl3   Cl    Cl    0.143194 0.196362 0.371070 -0.420371
Cl4   Cl    Cl    0.831234 0.810564 0.627174 -0.423939
Cl5   Cl    Cl    0.356773 0.696345 0.628895 -0.420675
Cl6   Cl    Cl    0.656382 0.308260 0.372011 -0.421444
Cl7   Cl    Cl    0.643252 0.696336 0.371075 -0.420790
Cl8   Cl    Cl    0.331247 0.310560 0.627174 -0.424146
N1    N     N_R   0.850026 0.255755 0.557872 0.246213
O53   O     O_R   0.865054 0.246020 0.529144 -0.265585
O54   O     O_R   0.880088 0.270848 0.609618 -0.291771
N2    N     N_R   0.153873 0.737502 0.440582 0.243813
O55   O     O_R   0.124684 0.724171 0.386651 -0.303723
O56   O     O_R   0.138218 0.743194 0.470316 -0.266171
N3    N     N_R   0.148644 0.264867 0.441400 0.246703
O57   O     O_R   0.131906 0.259263 0.469869 -0.265891
O58   O     O_R   0.121485 0.279990 0.389288 -0.291414
N4    N     N_R   0.846126 0.737523 0.559428 0.243814
O59   O     O_R   0.875299 0.724177 0.613333 -0.303567
O60   O     O_R   0.861797 0.743234 0.529719 -0.266144
N5    N     N_R   0.351368 0.764845 0.558595 0.246659
O61   O     O_R   0.368091 0.759240 0.530108 -0.266248
O62   O     O_R   0.378548 0.779963 0.610724 -0.291571
N6    N     N_R   0.649966 0.244249 0.442130 0.246308
O63   O     O_R   0.619906 0.229154 0.390386 -0.291386
O64   O     O_R   0.634937 0.253984 0.470857 -0.265051
N7    N     N_R   0.648630 0.764833 0.441397 0.246670
O65   O     O_R   0.631897 0.759215 0.469867 -0.266216
O66   O     O_R   0.621458 0.779953 0.389282 -0.291421
N8    N     N_R   0.346122 0.237491 0.559427 0.243763
O67   O     O_R   0.375292 0.224153 0.613340 -0.303785
O68   O     O_R   0.361793 0.243185 0.529712 -0.266397
N9    N     N_R   0.431719 0.631659 0.000620 0.265747
O69   O     O_R   0.402234 0.651239 0.956403 -0.345699
O70   O     O_R   0.428907 0.626912 0.043752 -0.228423
N10   N     N_R   0.568303 0.368345 0.999432 0.265835
O71   O     O_R   0.597775 0.348762 0.043652 -0.347301
O72   O     O_R   0.571141 0.373094 0.956325 -0.227681
N11   N     N_R   0.568265 0.631660 0.999351 0.265692
O73   O     O_R   0.597756 0.651247 0.043572 -0.346118
O74   O     O_R   0.571073 0.626909 0.956216 -0.228172
N12   N     N_R   0.431693 0.368332 0.000575 0.265911
O75   O     O_R   0.402223 0.348740 0.956356 -0.347629
O76   O     O_R   0.428853 0.373086 0.043682 -0.227786
N13   N     N_R   0.931708 0.131657 0.000593 0.265793
O77   O     O_R   0.902229 0.151239 0.956375 -0.346923
O78   O     O_R   0.928883 0.126909 0.043714 -0.228056
N14   N     N_R   0.068320 0.868342 0.999461 0.265901
O79   O     O_R   0.097783 0.848757 0.043680 -0.347961
O80   O     O_R   0.071171 0.873092 0.956365 -0.227557
N15   N     N_R   0.068283 0.131664 0.999383 0.265787
O81   O     O_R   0.097765 0.151253 0.043603 -0.345702
O82   O     O_R   0.071107 0.126910 0.956262 -0.228105
N16   N     N_R   0.931689 0.868335 0.000561 0.265856
O83   O     O_R   0.902222 0.848742 0.956340 -0.348325
O84   O     O_R   0.928841 0.873089 0.043660 -0.227302
Cl9   Cl    Cl    0.423532 0.562208 0.999455 -0.378240
Cl10  Cl    Cl    0.576477 0.437798 0.000588 -0.378249
Cl11  Cl    Cl    0.576439 0.562210 0.000505 -0.378352
Cl12  Cl    Cl    0.423505 0.437783 0.999409 -0.378054
Cl13  Cl    Cl    0.923524 0.062205 0.999428 -0.377987
Cl14  Cl    Cl    0.076502 0.937794 0.000625 -0.378075
Cl15  Cl    Cl    0.076465 0.062213 0.000545 -0.378166
Cl16  Cl    Cl    0.923506 0.937786 0.999395 -0.377943
N17   N     N_R   0.430143 0.868348 0.997448 0.264887
O85   O     O_R   0.444592 0.848887 0.041619 -0.330286
O86   O     O_R   0.384017 0.872980 0.953430 -0.215535
N18   N     N_R   0.569570 0.131718 0.001910 0.263833
O87   O     O_R   0.554933 0.151223 0.957726 -0.318250
O88   O     O_R   0.615731 0.127089 0.045702 -0.217675
N19   N     N_R   0.569883 0.868313 0.002529 0.264942
O89   O     O_R   0.555423 0.848834 0.958369 -0.330076
O90   O     O_R   0.616012 0.872949 0.046543 -0.215133
N20   N     N_R   0.430386 0.131662 0.997936 0.263418
O91   O     O_R   0.444996 0.151155 0.042136 -0.324739
O92   O     O_R   0.384231 0.127008 0.954130 -0.220749
N21   N     N_R   0.929626 0.368371 0.996378 0.264760
O93   O     O_R   0.943787 0.349008 0.040572 -0.330669
O94   O     O_R   0.883554 0.372931 0.951897 -0.216062
N22   N     N_R   0.070140 0.631692 0.003073 0.263409
O95   O     O_R   0.055824 0.651099 0.958878 -0.318368
O96   O     O_R   0.116242 0.627127 0.047360 -0.221216
N23   N     N_R   0.070347 0.368324 0.003467 0.264747
O97   O     O_R   0.056147 0.348928 0.959293 -0.322620
O98   O     O_R   0.116426 0.372895 0.047901 -0.216540
N24   N     N_R   0.929833 0.631644 0.996819 0.263469
O99   O     O_R   0.944137 0.651038 0.041038 -0.318003
O100  O     O_R   0.883732 0.627071 0.952512 -0.220850
Cl17  Cl    Cl    0.422480 0.937912 0.997010 -0.328434
Cl18  Cl    Cl    0.577285 0.062152 0.002303 -0.326908
Cl19  Cl    Cl    0.577575 0.937873 0.002901 -0.327999
Cl20  Cl    Cl    0.422717 0.062090 0.997492 -0.328055
Cl21  Cl    Cl    0.921824 0.437921 0.995640 -0.328544
Cl22  Cl    Cl    0.077985 0.562140 0.003752 -0.327310
Cl23  Cl    Cl    0.078190 0.437875 0.004137 -0.327593
Cl24  Cl    Cl    0.922002 0.562086 0.996048 -0.327321
Cl25  Cl    Cl    0.436953 0.963265 0.872496 -0.325161
Cl26  Cl    Cl    0.563132 0.036752 0.127367 -0.323738
Cl27  Cl    Cl    0.563121 0.963313 0.127394 -0.325261
Cl28  Cl    Cl    0.436921 0.036705 0.872469 -0.321797
Cl29  Cl    Cl    0.938160 0.463276 0.872499 -0.323372
Cl30  Cl    Cl    0.061899 0.536737 0.127314 -0.322028
Cl31  Cl    Cl    0.061901 0.463299 0.127312 -0.325626
Cl32  Cl    Cl    0.938126 0.536715 0.872500 -0.321989
N25   N     N_R   0.321647 0.211028 0.094007 0.263812
O101  O     O_R   0.314617 0.197068 0.128471 -0.253279
O102  O     O_R   0.361719 0.206396 0.103903 -0.292001
N26   N     N_R   0.679842 0.790675 0.908954 0.263488
O103  O     O_R   0.687399 0.805258 0.875537 -0.254976
O104  O     O_R   0.639949 0.795490 0.899413 -0.293353
N27   N     N_R   0.679172 0.210045 0.907632 0.263753
O105  O     O_R   0.686494 0.195726 0.873751 -0.253752
O106  O     O_R   0.639199 0.205307 0.897934 -0.290116
N28   N     N_R   0.321219 0.789483 0.093143 0.263494
O107  O     O_R   0.314039 0.803633 0.127306 -0.255397
O108  O     O_R   0.361244 0.794167 0.102945 -0.293929
N29   N     N_R   0.820173 0.709320 0.091078 0.263854
O109  O     O_R   0.812617 0.694737 0.124496 -0.252495
O110  O     O_R   0.860066 0.704505 0.100617 -0.289813
N30   N     N_R   0.178369 0.288972 0.906026 0.263598
O111  O     O_R   0.185399 0.302931 0.871562 -0.255275
O112  O     O_R   0.138297 0.293604 0.896132 -0.292490
N31   N     N_R   0.178764 0.710510 0.906823 0.263874
O113  O     O_R   0.185943 0.696361 0.872658 -0.252756
O114  O     O_R   0.138741 0.705825 0.897025 -0.290239
N32   N     N_R   0.820825 0.289949 0.092364 0.263578
O115  O     O_R   0.813502 0.304268 0.126243 -0.254486
O116  O     O_R   0.860800 0.294684 0.102067 -0.293651
N33   N     N_R   0.713739 0.690065 0.976662 0.262420
O117  O     O_R   0.733566 0.668276 0.967747 -0.239117
O118  O     O_R   0.677688 0.683414 0.974795 -0.282304
N34   N     N_R   0.284052 0.310322 0.018957 0.262710
O119  O     O_R   0.263413 0.332261 0.026258 -0.237066
O120  O     O_R   0.319867 0.317003 0.020355 -0.281891
N35   N     N_R   0.284667 0.689782 0.020201 0.262444
O121  O     O_R   0.264258 0.667885 0.027967 -0.238876
O122  O     O_R   0.320550 0.683107 0.021735 -0.282167
N36   N     N_R   0.714717 0.310108 0.978578 0.262570
O123  O     O_R   0.734905 0.331965 0.970373 -0.238163
O124  O     O_R   0.678771 0.316775 0.976917 -0.282061
N37   N     N_R   0.215963 0.189677 0.981077 0.262508
O125  O     O_R   0.236603 0.167738 0.973776 -0.238884
O126  O     O_R   0.180149 0.182996 0.979681 -0.281954
N38   N     N_R   0.786275 0.809930 0.023370 0.262691
O127  O     O_R   0.766449 0.831719 0.032287 -0.237258
O128  O     O_R   0.822326 0.816582 0.025237 -0.281967
N39   N     N_R   0.785280 0.189886 0.021417 0.262547
O129  O     O_R   0.765092 0.168029 0.029621 -0.237850
O130  O     O_R   0.821228 0.183219 0.023080 -0.282159
N40   N     N_R   0.215317 0.810212 0.979764 0.262691
O131  O     O_R   0.235726 0.832108 0.971996 -0.237255
O132  O     O_R   0.179434 0.816887 0.978229 -0.281941
N41   N     N_R   0.859739 0.305659 0.762566 0.256458
O133  O     O_R   0.897289 0.323385 0.787192 -0.289511
O134  O     O_R   0.830030 0.311350 0.772791 -0.252445
N42   N     N_R   0.131800 0.692130 0.236038 0.254385
O135  O     O_R   0.087866 0.681297 0.198104 -0.300973
O136  O     O_R   0.166979 0.676158 0.246461 -0.249380
N43   N     N_R   0.152708 0.301455 0.239611 0.253529
O137  O     O_R   0.135396 0.328317 0.237670 -0.257672
O138  O     O_R   0.177915 0.299035 0.221598 -0.266048
N44   N     N_R   0.868147 0.692130 0.763916 0.254377
O139  O     O_R   0.912073 0.681293 0.801838 -0.300868
O140  O     O_R   0.832958 0.676160 0.753479 -0.249370
N45   N     N_R   0.347359 0.801467 0.760423 0.253567
O141  O     O_R   0.364736 0.828314 0.762422 -0.257490
O142  O     O_R   0.322126 0.799070 0.778400 -0.265993
N46   N     N_R   0.640300 0.194354 0.237446 0.256376
O143  O     O_R   0.602843 0.176563 0.212988 -0.289183
O144  O     O_R   0.669964 0.188705 0.227129 -0.253062
N47   N     N_R   0.652635 0.801486 0.239600 0.253562
O145  O     O_R   0.635251 0.828326 0.237617 -0.257429
O146  O     O_R   0.677862 0.799104 0.221612 -0.265976
N48   N     N_R   0.368141 0.192131 0.763917 0.254365
O147  O     O_R   0.412066 0.181291 0.801837 -0.300494
O148  O     O_R   0.332950 0.176164 0.753482 -0.249414
N49   N     N_R   0.795019 0.305759 0.631574 0.244227
O149  O     O_R   0.769623 0.319360 0.643435 -0.236193
O150  O     O_R   0.794783 0.317084 0.588639 -0.268669
N50   N     N_R   0.199286 0.692398 0.367461 0.253933
O151  O     O_R   0.173732 0.667711 0.355187 -0.211166
O152  O     O_R   0.246173 0.691072 0.409827 -0.291101
N51   N     N_R   0.214390 0.302084 0.370123 0.247577
O153  O     O_R   0.241970 0.311410 0.358289 -0.235345
O154  O     O_R   0.216976 0.316080 0.413030 -0.264208
N52   N     N_R   0.800665 0.692398 0.632492 0.253935
O155  O     O_R   0.826206 0.667710 0.644749 -0.211148
O156  O     O_R   0.753777 0.691072 0.590123 -0.291120
N53   N     N_R   0.285677 0.802090 0.629912 0.247576
O157  O     O_R   0.258103 0.811427 0.641749 -0.235259
O158  O     O_R   0.283108 0.816079 0.587017 -0.264171
N54   N     N_R   0.704998 0.194251 0.368434 0.244261
O159  O     O_R   0.705257 0.182928 0.411389 -0.268580
O160  O     O_R   0.730365 0.180641 0.356534 -0.236247
N55   N     N_R   0.714326 0.802113 0.370116 0.247586
O161  O     O_R   0.741890 0.811468 0.358274 -0.235232
O162  O     O_R   0.716900 0.816093 0.413026 -0.264143
N56   N     N_R   0.300654 0.192399 0.632493 0.253941
O163  O     O_R   0.326189 0.167708 0.644750 -0.211140
O164  O     O_R   0.253767 0.191079 0.590120 -0.290970

loop_
_geom_bond_atom_site_label_1
_geom_bond_atom_site_label_2
_geom_bond_distance
_ccdc_geom_bond_type
Zn15  O51   1.913848 S    
N27   O105  1.300217 A    
C127  C167  1.418632 A    
C114  C122  1.458965 S    
C24   C51   1.472862 S    
N37   O125  1.300220 A    
H4    C68   1.083210 S    
C182  H26   1.083859 S    
O15   C11   1.281026 A    
C34   C42   1.404927 A    
N5    O61   1.301507 A    
C210  C216  1.406265 A    
N41   O133  1.300693 A    
O41   C13   1.274772 A    
C175  C183  1.400346 A    
C74   C198  1.414278 A    
O24   C18   1.278925 A    
C198  N10   1.436650 S    
C179  N7    1.441627 S    
C173  N1    1.441616 S    
C111  C119  1.458993 S    
C109  C117  1.458976 S    
C140  N56   1.437912 S    
C78   N34   1.457152 S    
C130  C138  1.408415 A    
Zn4   O30   1.928230 S    
Zn11  O23   1.928751 S    
C80   N36   1.457159 S    
C77   C110  1.538999 S    
C79   C91   1.530335 S    
N51   O154  1.301284 A    
Zn9   O13   1.928654 S    
C176  N4    1.443364 S    
C154  Cl6   1.762288 S    
C87   C108  1.550717 S    
Zn15  O27   1.928751 S    
C112  C120  1.458987 S    
C88   C107  1.550704 S    
C127  N43   1.432232 S    
Zn16  O20   1.928785 S    
O20   C16   1.281021 A    
C54   Cl26  1.767849 S    
C179  C187  1.400351 A    
C210  Cl14  1.769535 S    
C116  C124  1.458996 S    
C92   C103  1.550715 S    
Zn7   O9    1.917932 S    
C17   C74   1.473608 S    
C181  C189  1.401380 A    
O49   C5    1.276281 A    
C48   C71   1.401543 A    
N52   O156  1.300834 A    
C79   N35   1.457138 S    
C29   N21   1.436306 S    
N39   O129  1.300224 A    
C206  C214  1.406263 A    
C149  Cl1   1.762283 S    
C80   C111  1.539009 S    
C157  H17   1.083551 S    
N6    O63   1.301197 A    
C65   C68   1.394370 A    
C200  N12   1.436650 S    
N20   O92   1.301016 A    
C128  C136  1.410201 A    
C56   C61   1.406964 A    
C161  H21   1.083390 S    
C155  Cl7   1.762253 S    
Zn12  O16   1.928785 S    
C132  C140  1.410197 A    
O8    C4    1.276209 A    
C82   N38   1.457133 S    
C125  C165  1.416151 A    
N11   O73   1.301292 A    
N10   O71   1.301293 A    
O23   C17   1.278919 A    
C153  C161  1.392874 A    
Zn2   O2    1.931382 S    
C1    C95   1.426771 S    
C11   C170  1.477146 S    
C151  C159  1.392861 A    
C147  C192  1.473916 S    
C56   Cl28  1.767847 S    
O37   C9    1.274774 A    
C131  N47   1.432231 S    
N2    O56   1.301612 A    
C83   C116  1.539007 S    
Zn13  O49   1.913911 S    
N49   O150  1.301255 A    
N17   O85   1.301285 A    
Zn8   O4    1.931709 S    
C86   N26   1.457082 S    
C139  C147  1.411388 A    
C138  N54   1.438882 S    
N48   O147  1.301372 A    
C145  C153  1.405604 A    
N19   O89   1.301288 A    
C58   C63   1.406947 A    
C69   C72   1.394375 A    
N30   O111  1.300217 A    
C203  C211  1.404732 A    
C70   C71   1.394370 A    
C105  C113  1.556149 S    
N23   O98   1.301014 A    
O17   C13   1.279863 A    
C45   C66   1.401535 A    
N6    O64   1.301512 A    
C21   C50   1.472465 S    
O36   C24   1.275130 A    
N18   O88   1.301017 A    
Zn9   O1    1.939020 S    
C36   Cl20  1.769021 S    
C23   C52   1.472659 S    
C130  N46   1.432047 S    
N21   O93   1.301291 A    
O26   C20   1.278921 A    
Zn10  O14   1.928653 S    
C125  C133  1.408419 A    
N34   O119  1.300222 A    
O16   C12   1.283440 A    
C8    C98   1.426743 S    
C54   C55   1.401232 A    
C31   C51   1.414571 A    
C55   C62   1.406975 A    
C209  Cl13  1.769535 S    
C199  C207  1.404728 A    
Zn14  O26   1.928665 S    
C187  C195  1.401407 A    
H10   C101  1.110058 S    
O44   C16   1.275669 A    
C108  C116  1.556156 S    
N33   O117  1.300220 A    
N28   O108  1.300183 A    
H14   C105  1.110055 S    
N40   O131  1.300222 A    
C129  C169  1.418625 A    
C15   C166  1.473817 S    
C204  C212  1.404732 A    
C19   C76   1.473603 S    
C98   C122  1.200642 T    
C134  C142  1.411748 A    
C163  C171  1.402823 A    
O27   C19   1.278919 A    
C164  C172  1.400328 A    
C33   Cl17  1.769011 S    
N25   O101  1.300215 A    
C211  C215  1.406272 A    
C99   C123  1.200663 T    
O45   C1    1.276285 A    
C160  C168  1.400323 A    
C32   C40   1.403882 A    
C161  C169  1.402826 A    
C178  C189  1.413386 A    
O47   C3    1.276123 A    
N16   O83   1.301293 A    
C209  C215  1.406269 A    
C205  C213  1.406265 A    
C77   C105  1.550718 S    
O38   C10   1.275932 A    
O14   C10   1.283369 A    
C174  C193  1.414185 A    
C43   C64   1.473081 S    
Zn14  O50   1.913910 S    
N4    O60   1.301612 A    
C29   C37   1.403869 A    
C81   C101  1.550719 S    
N31   O114  1.300185 A    
C80   C92   1.530334 S    
N23   O97   1.301297 A    
O33   C23   1.275012 A    
C6    C100  1.426774 S    
Zn1   O7    1.917945 S    
N14   O79   1.301295 A    
C7    C97   1.426758 S    
Zn2   O8    1.917948 S    
C81   C114  1.539002 S    
C83   C103  1.550726 S    
N1    O54   1.301198 A    
C79   C112  1.539000 S    
Zn5   O3    1.931384 S    
C22   C49   1.472728 S    
Zn6   O4    1.931382 S    
H6    C70   1.083210 S    
C57   Cl29  1.767830 S    
C25   C49   1.414525 A    
C3    C93   1.426760 S    
N36   O123  1.300221 A    
C84   N40   1.457139 S    
Zn8   O34   1.928230 S    
C180  C188  1.400098 A    
C45   C68   1.401538 A    
C202  C210  1.404728 A    
C46   C67   1.401539 A    
C126  N42   1.436264 S    
C90   N30   1.457084 S    
C197  C205  1.404728 A    
N46   O143  1.300688 A    
C84   C115  1.539004 S    
C211  Cl15  1.769534 S    
N53   O158  1.301280 A    
C159  H19   1.083386 S    
C29   C51   1.414577 A    
C85   C109  1.538970 S    
C139  N55   1.439417 S    
N42   O135  1.301373 A    
C151  Cl3   1.762220 S    
H15   C108  1.110056 S    
C28   C36   1.403967 A    
N4    O59   1.300757 A    
C152  Cl4   1.762005 S    
H16   C107  1.110056 S    
C77   N33   1.457130 S    
C184  H28   1.083855 S    
C34   Cl18  1.769010 S    
C45   C214  1.470554 S    
C185  H29   1.083843 S    
C32   C52   1.414472 A    
C40   C44   1.404878 A    
Zn12  O2    1.938850 S    
O18   C14   1.283382 A    
C187  H31   1.083844 S    
C48   C215  1.470571 S    
Zn11  O15   1.928784 S    
N8    O68   1.301611 A    
O22   C18   1.278919 A    
C176  C184  1.400102 A    
C53   Cl25  1.767819 S    
N45   O141  1.300689 A    
C177  C185  1.400351 A    
Zn8   O10   1.917929 S    
O25   C19   1.278908 A    
N12   O76   1.301027 A    
C182  C190  1.401237 A    
C28   N20   1.436379 S    
C150  C158  1.392295 A    
C75   C201  1.414281 A    
C208  Cl12  1.769536 S    
C173  C181  1.399943 A    
N26   O103  1.300218 A    
N11   O74   1.301029 A    
C95   C119  1.200657 T    
C39   C43   1.404852 A    
N7    O66   1.301189 A    
C93   C117  1.200652 T    
C75   C203  1.414281 A    
C150  Cl2   1.761999 S    
N55   O161  1.301034 A    
C76   C204  1.414270 A    
C204  N16   1.436649 S    
N24   O99   1.301305 A    
C77   C89   1.530332 S    
Zn16  O52   1.913850 S    
C102  C110  1.556146 S    
C91   N31   1.457082 S    
C85   C106  1.550718 S    
C26   C50   1.414407 A    
O30   C22   1.275037 A    
C88   C112  1.538968 S    
C58   C59   1.401167 A    
C27   C35   1.403970 A    
C127  C135  1.408807 A    
C89   C102  1.550715 S    
C142  C150  1.405179 A    
C35   C41   1.404906 A    
N56   O163  1.301173 A    
Zn1   O31   1.928393 S    
Zn15  O19   1.928784 S    
O48   C4    1.276143 A    
Zn2   O32   1.928393 S    
Zn3   O29   1.928230 S    
C203  N15   1.436647 S    
C91   C104  1.550713 S    
Zn5   O11   1.917945 S    
C188  C196  1.401235 A    
Zn6   O12   1.917948 S    
Zn12  O48   1.913850 S    
N44   O139  1.301375 A    
C27   C49   1.414531 A    
Zn7   O43   1.932213 S    
N35   O121  1.300222 A    
O5    C1    1.276366 A    
C47   C72   1.401537 A    
C138  C146  1.411970 A    
N47   O145  1.300690 A    
C85   N25   1.457081 S    
C91   C115  1.538972 S    
O10   C6    1.276374 A    
C46   C65   1.401540 A    
N32   O115  1.300216 A    
C125  N41   1.432077 S    
C58   Cl30  1.767849 S    
C133  C141  1.411964 A    
N54   O159  1.301253 A    
Zn9   O21   1.928665 S    
C158  C166  1.400322 A    
C113  C121  1.458976 S    
C41   C62   1.473241 S    
Zn12  O24   1.928751 S    
O52   C8    1.276141 A    
Zn13  O17   1.928654 S    
C33   C41   1.404915 A    
O42   C14   1.275929 A    
N13   O78   1.301030 A    
N9    O69   1.301294 A    
H11   C104  1.110058 S    
C2    C96   1.426763 S    
C84   C88   1.530330 S    
Zn9   O45   1.913911 S    
H9    C102  1.110055 S    
C180  C191  1.414191 A    
Zn11  O47   1.913848 S    
H12   C103  1.110056 S    
C25   C33   1.403970 A    
C110  C118  1.458966 S    
C30   C52   1.414498 A    
H13   C106  1.110055 S    
Zn7   O3    1.931706 S    
C136  C144  1.411756 A    
C155  C163  1.392853 A    
C143  C196  1.473915 S    
C136  N52   1.437909 S    
C156  Cl8   1.761999 S    
C39   Cl23  1.769027 S    
C37   C43   1.404846 A    
C78   C109  1.539004 S    
C129  C137  1.408790 A    
O51   C7    1.276126 A    
C205  Cl9   1.769536 S    
N30   O112  1.300181 A    
C156  C164  1.392277 A    
N29   O110  1.300183 A    
C5    C99   1.426779 S    
C202  N14   1.436651 S    
C153  Cl5   1.762242 S    
C207  C213  1.406269 A    
C178  N6    1.441614 S    
C162  C170  1.401232 A    
C53   C56   1.401241 A    
C103  C111  1.556154 S    
C78   C106  1.550727 S    
C76   C202  1.414276 A    
N49   O149  1.300679 A    
N37   O126  1.300210 A    
C13   C168  1.473814 S    
N48   O148  1.301154 A    
O50   C6    1.276284 A    
C60   C63   1.406949 A    
C14   C167  1.481796 S    
C82   C102  1.550722 S    
N46   O144  1.300842 A    
N5    O62   1.301190 A    
C135  N51   1.439412 S    
N50   O152  1.300834 A    
C16   C165  1.477129 S    
N41   O134  1.300841 A    
C59   C64   1.406958 A    
C158  H18   1.083673 S    
C131  C171  1.418603 A    
Zn3   O1    1.931706 S    
N22   O95   1.301312 A    
C132  C172  1.416794 A    
C101  C109  1.556148 S    
O11   C7    1.276231 A    
N2    O55   1.300755 A    
C162  H22   1.083548 S    
N19   O90   1.301008 A    
C73   C199  1.414280 A    
H7    C71   1.083210 S    
C128  C168  1.416796 A    
H5    C69   1.083209 S    
N31   O113  1.300215 A    
C188  H32   1.083859 S    
C89   C113  1.538964 S    
C25   N17   1.436388 S    
C89   N29   1.457082 S    
C30   N22   1.436314 S    
C47   C70   1.401538 A    
C87   C111  1.538976 S    
C107  C115  1.556152 S    
C181  H25   1.083849 S    
C154  C162  1.392518 A    
O43   C15   1.274799 A    
O34   C24   1.275035 A    
N15   O82   1.301032 A    
C159  C167  1.402826 A    
N22   O96   1.301014 A    
C88   N28   1.457084 S    
C208  C214  1.406268 A    
Zn10  O46   1.913910 S    
C199  N11   1.436647 S    
C26   N18   1.436376 S    
C26   C34   1.403965 A    
C9    C172  1.473811 S    
C73   C197  1.414289 A    
C81   C85   1.530334 S    
C179  C192  1.413221 A    
C143  C151  1.405612 A    
C106  C114  1.556146 S    
C48   C69   1.401537 A    
N52   O155  1.301174 A    
C46   C213  1.470567 S    
C92   C116  1.538975 S    
C130  C170  1.416148 A    
Zn16  O28   1.928751 S    
C137  N53   1.439412 S    
C96   C120  1.200656 T    
Zn1   O37   1.932327 S    
N16   O84   1.301030 A    
N20   O91   1.301305 A    
Zn3   O39   1.932213 S    
C126  C166  1.416804 A    
Zn4   O40   1.932210 S    
C100  C124  1.200659 T    
C141  C149  1.406307 A    
C178  C186  1.399949 A    
C183  C191  1.401403 A    
C74   C200  1.414277 A    
N27   O106  1.300185 A    
C174  C182  1.400101 A    
N14   O80   1.301030 A    
C32   N24   1.436306 S    
N1    O53   1.301512 A    
Zn7   O33   1.928230 S    
C81   N37   1.457153 S    
N38   O127  1.300218 A    
C57   C64   1.406956 A    
C137  C145  1.411377 A    
N17   O86   1.301011 A    
Zn11  O1    1.938852 S    
C66   C67   1.394375 A    
C78   C90   1.530331 S    
N36   O124  1.300211 A    
C135  C143  1.411381 A    
C54   C61   1.406966 A    
O40   C12   1.275963 A    
C86   C105  1.550705 S    
C38   C44   1.404856 A    
C141  C194  1.473500 S    
C4    C94   1.426745 S    
N35   O122  1.300207 A    
C186  C194  1.401377 A    
Zn16  O4    1.938850 S    
N7    O65   1.301509 A    
N55   O162  1.301281 A    
C177  N5    1.441628 S    
O46   C2    1.276290 A    
C90   C101  1.550708 S    
O35   C23   1.275027 A    
N15   O81   1.301293 A    
O32   C22   1.275041 A    
N3    O57   1.301501 A    
N18   O87   1.301313 A    
C148  C191  1.471491 S    
C90   C114  1.538967 S    
C18   C73   1.473625 S    
C55   Cl27  1.767824 S    
N21   O94   1.301014 A    
N53   O157  1.301035 A    
C157  C165  1.401232 A    
C30   C38   1.403871 A    
C144  C195  1.471505 S    
C212  Cl16  1.769534 S    
O13   C9    1.279860 A    
C145  C190  1.473922 S    
N42   O136  1.301156 A    
C140  C148  1.411756 A    
N10   O72   1.301029 A    
N43   O138  1.301085 A    
C31   N23   1.436312 S    
N51   O153  1.301028 A    
C133  N49   1.438866 S    
C82   C113  1.539000 S    
C148  C156  1.405170 A    
Zn3   O5    1.917932 S    
C60   Cl32  1.767839 S    
N33   O118  1.300208 A    
N28   O107  1.300217 A    
N50   O151  1.301177 A    
Zn15  O3    1.938852 S    
C97   C121  1.200648 T    
C197  N9    1.436645 S    
C53   C62   1.406983 A    
C10   C171  1.481785 S    
Zn10  O22   1.928665 S    
C57   C60   1.401180 A    
C207  Cl11  1.769533 S    
C83   N39   1.457159 S    
C134  N50   1.437911 S    
C42   C61   1.473198 S    
Zn14  O18   1.928653 S    
Zn10  O2    1.939022 S    
N26   O104  1.300182 A    
C201  C209  1.404728 A    
N25   O102  1.300180 A    
Zn1   O1    1.931384 S    
O31   C21   1.274952 A    
C175  C196  1.413229 A    
C59   Cl31  1.767832 S    
C146  C189  1.473506 S    
C201  N13   1.436645 S    
C12   C169  1.481802 S    
N24   O100  1.301024 A    
Zn4   O2    1.931709 S    
C40   Cl24  1.769032 S    
C142  C193  1.471504 S    
C129  N45   1.432233 S    
Zn5   O35   1.928393 S    
Zn6   O36   1.928393 S    
H2    C66   1.083209 S    
C92   N32   1.457084 S    
Zn5   O41   1.932327 S    
H8    C72   1.083208 S    
N43   O137  1.300692 A    
N47   O146  1.301082 A    
O29   C21   1.274966 A    
C20   C75   1.473621 S    
C27   N19   1.436395 S    
C38   Cl22  1.769033 S    
O19   C15   1.279921 A    
C212  C216  1.406266 A    
C35   Cl19  1.769006 S    
C184  C192  1.401237 A    
N56   O164  1.300833 A    
C132  N48   1.436265 S    
C163  H23   1.083390 S    
C86   C110  1.538961 S    
C115  C123  1.458997 S    
C185  C193  1.401412 A    
C44   C63   1.473051 S    
C128  N44   1.436260 S    
N44   O140  1.301159 A    
N3    O58   1.301192 A    
C31   C39   1.403901 A    
C79   C107  1.550717 S    
C198  C206  1.404724 A    
Zn13  O25   1.928665 S    
C80   C108  1.550726 S    
C149  C157  1.392513 A    
O21   C17   1.278908 A    
Zn8   O44   1.932210 S    
C94   C118  1.200638 T    
C83   C87   1.530337 S    
C146  C154  1.406307 A    
C84   C104  1.550723 S    
N32   O116  1.300183 A    
C183  H27   1.083850 S    
N54   O160  1.300687 A    
H3    C67   1.083209 S    
C160  H20   1.083678 S    
O39   C11   1.275667 A    
C206  Cl10  1.769538 S    
C186  H30   1.083849 S    
N38   O128  1.300207 A    
C147  C155  1.405595 A    
C131  C139  1.408804 A    
C164  H24   1.083670 S    
O7    C3    1.276236 A    
C87   N27   1.457082 S    
N13   O77   1.301295 A    
N40   O132  1.300205 A    
C126  C134  1.410190 A    
C152  C160  1.392280 A    
C176  C195  1.414177 A    
C177  C190  1.413225 A    
C175  N3    1.441626 S    
C36   C42   1.404940 A    
C200  C208  1.404727 A    
N8    O67   1.300757 A    
O12   C8    1.276208 A    
C173  C194  1.413386 A    
N45   O142  1.301084 A    
O28   C20   1.278918 A    
N12   O75   1.301295 A    
H1    C65   1.083208 S    
C144  C152  1.405173 A    
N34   O120  1.300212 A    
C82   C86   1.530328 S    
C37   Cl21  1.769042 S    
O6    C2    1.276362 A    
C180  N8    1.443370 S    
Zn6   O42   1.932330 S    
C28   C50   1.414400 A    
C104  C112  1.556152 S    
N9    O70   1.301030 A    
N29   O109  1.300220 A    
C47   C216  1.470563 S    
N39   O130  1.300212 A    
Zn13  O3    1.939020 S    
Zn14  O4    1.939022 S    
O9    C5    1.276375 A    
Zn4   O6    1.917929 S    
Zn2   O38   1.932330 S    
C174  N2    1.443375 S    
