data_mof_unit_18019.cif
_audit_creation_date              2012-12-10T17:31:21-0500
_audit_creation_method            fapswitch 2.2
_symmetry_space_group_name_H-M    P1
_symmetry_Int_Tables_number       1
_space_group_crystal_system       triclinic
_cell_length_a                    18.970539
_cell_length_b                    18.689925
_cell_length_c                    12.415999
_cell_angle_alpha                 90.209059
_cell_angle_beta                  130.267044
_cell_angle_gamma                 89.84014
_cell_volume                      3359.02606662

loop_
_atom_site_label
_atom_site_type_symbol
_atom_type_description
_atom_site_fract_x
_atom_site_fract_y
_atom_site_fract_z
_atom_type_partial_charge
C1    C     C_R   0.613386 0.898949 0.654645 0.846213
C2    C     C_R   0.613254 0.101025 0.654419 0.851710
C3    C     C_R   0.113387 0.398949 0.654645 0.846210
C4    C     C_R   0.113258 0.601022 0.654423 0.851693
C5    C     C_R   0.252716 0.761676 0.059751 0.045230
C6    C     C_R   0.253087 0.239287 0.061604 0.045728
C7    C     C_R   0.752746 0.261648 0.059804 0.045231
C8    C     C_R   0.753094 0.739293 0.061618 0.045734
C9    C     C_R   0.668888 0.260610 0.036570 0.065797
C10   C     C_R   0.669733 0.741195 0.039603 0.060431
C11   C     C_R   0.168828 0.760691 0.036426 0.065784
C12   C     C_R   0.169721 0.241183 0.039577 0.060436
C13   C     C_R   0.589977 0.230366 0.911846 0.358650
C14   C     C_R   0.590756 0.771643 0.915394 0.330191
C15   C     C_R   0.089923 0.730459 0.911677 0.358683
C16   C     C_R   0.090746 0.271636 0.915371 0.330194
C17   C     C_R   0.594619 0.204164 0.812023 -0.156334
C18   C     C_R   0.594921 0.797335 0.814929 -0.197413
C19   C     C_R   0.094598 0.704210 0.811919 -0.156341
C20   C     C_R   0.094915 0.297332 0.814912 -0.197414
C21   C     C_R   0.321003 0.809795 0.158759 -0.149708
C22   C     C_R   0.320995 0.190488 0.159259 -0.157322
C23   C     C_R   0.821011 0.309795 0.158760 -0.149712
C24   C     C_R   0.820996 0.690489 0.159261 -0.157328
C25   C     C_R   0.238033 0.837103 0.240803 -0.169564
C26   C     C_R   0.239147 0.164814 0.243477 -0.158849
C27   C     C_R   0.738107 0.337019 0.240954 -0.169561
C28   C     C_R   0.739163 0.664828 0.243508 -0.158829
C29   C     C_R   0.686238 0.152408 0.754722 -0.082160
C30   C     C_R   0.686222 0.847413 0.755646 -0.086337
C31   C     C_R   0.186248 0.652400 0.754731 -0.082133
C32   C     C_R   0.186219 0.347409 0.755637 -0.086304
C33   C     C_R   0.677773 0.954906 0.288096 0.271294
C34   C     C_R   0.177771 0.454899 0.288094 0.271297
C35   C     C_R   0.342851 0.010592 0.623078 0.024596
C36   C     C_R   0.842851 0.510590 0.623078 0.024579
C37   C     C_R   0.303322 0.004473 0.685784 0.102935
C38   C     C_R   0.803321 0.504468 0.685782 0.102917
C39   C     C_R   0.384535 0.099198 0.343168 0.784288
C40   C     C_R   0.384478 0.900991 0.342896 0.788746
C41   C     C_R   0.884536 0.599198 0.343169 0.784303
C42   C     C_R   0.884483 0.400987 0.342904 0.788761
C43   C     C_R   0.358602 0.988626 0.830624 0.142313
C44   C     C_R   0.858601 0.488622 0.830622 0.142305
C45   C     C_R   0.456407 0.986520 0.915897 -0.055268
C46   C     C_R   0.956406 0.486517 0.915896 -0.055322
C47   C     C_R   0.493349 0.988039 0.844040 0.192771
C48   C     C_R   0.993348 0.488036 0.844040 0.192735
C49   C     C_R   0.520124 0.981341 0.069246 -0.029045
C50   C     C_R   0.020123 0.481337 0.069244 -0.029066
C51   C     C_R   0.610901 0.956287 0.139447 -0.052166
C52   C     C_R   0.110898 0.456280 0.139444 -0.052140
C53   C     C_R   0.637585 0.941014 0.061354 -0.166225
C54   C     C_R   0.137581 0.441005 0.061351 -0.166196
C55   C     C_R   0.589647 0.970579 0.928961 0.371666
C56   C     C_R   0.089646 0.470574 0.928960 0.371659
C57   C     C_R   0.500486 0.003294 0.157563 -0.008312
C58   C     C_R   0.000486 0.503292 0.157563 -0.008351
C59   C     C_R   0.654774 0.981069 0.366961 0.514337
C60   C     C_R   0.154773 0.481065 0.366960 0.514343
C61   C     C_R   0.664548 0.295065 0.133083 -0.105104
C62   C     C_R   0.665874 0.707323 0.136694 -0.094037
C63   C     C_R   0.164459 0.795180 0.132882 -0.105071
C64   C     C_R   0.165854 0.207303 0.136655 -0.094030
C65   C     C_R   0.314501 0.847302 0.249087 -0.052166
C66   C     C_R   0.314866 0.153406 0.250123 -0.049539
C67   C     C_R   0.814528 0.347278 0.249129 -0.052189
C68   C     C_R   0.814871 0.653410 0.250131 -0.049542
C69   C     C_R   0.770662 0.146934 0.783953 -0.141889
C70   C     C_R   0.770667 0.851794 0.784862 -0.137414
C71   C     C_R   0.270683 0.646902 0.784006 -0.141853
C72   C     C_R   0.270660 0.351780 0.784839 -0.137521
C73   C     C_R   0.351210 0.670543 0.912331 -0.058849
C74   C     C_R   0.351223 0.328897 0.913788 -0.065488
C75   C     C_R   0.851197 0.170576 0.912266 -0.058848
C76   C     C_R   0.851231 0.828919 0.913820 -0.065485
C77   C     C_R   0.348796 0.703308 0.010889 0.166581
C78   C     C_R   0.348793 0.297018 0.012559 0.155667
C79   C     C_R   0.848804 0.203331 0.010852 0.166603
C80   C     C_R   0.848800 0.797030 0.012580 0.155593
C81   C     C_R   0.761921 0.220747 0.973100 0.049500
C82   C     C_R   0.762002 0.779976 0.974825 0.031554
C83   C     C_R   0.261907 0.720751 0.973087 0.049523
C84   C     C_R   0.261997 0.279970 0.974811 0.031547
C85   C     C_R   0.680272 0.193363 0.844691 0.016975
C86   C     C_R   0.680335 0.807467 0.846563 0.005176
C87   C     C_R   0.180265 0.693376 0.844658 0.016938
C88   C     C_R   0.180330 0.307463 0.846551 0.005171
Cu1   Cu    Cu3+1 0.526340 0.000000 0.421010 1.024716
Cu2   Cu    Cu3+1 0.026340 0.500000 0.421010 1.024719
Cu3   Cu    Cu3+1 0.473640 1.000000 0.578990 1.004472
Cu4   Cu    Cu3+1 0.973640 0.500000 0.578990 1.004477
H1    H     H_    0.231979 0.865656 0.310586 0.175584
H2    H     H_    0.233372 0.136805 0.313703 0.169083
H3    H     H_    0.732074 0.365543 0.310784 0.175622
H4    H     H_    0.733393 0.636824 0.313743 0.169090
H5    H     H_    0.706398 0.920793 0.113445 0.233073
H6    H     H_    0.206393 0.420782 0.113439 0.233068
H7    H     H_    0.434418 0.025650 0.113213 0.175881
H8    H     H_    0.934416 0.525648 0.113211 0.175875
H9    H     H_    0.298745 0.020175 0.510814 0.148255
H10   H     H_    0.798745 0.520173 0.510813 0.148269
H11   H     H_    0.603174 0.292781 0.122011 0.198825
H12   H     H_    0.604983 0.710453 0.126789 0.200277
H13   H     H_    0.103055 0.792946 0.121727 0.198767
H14   H     H_    0.104954 0.210425 0.126732 0.200287
H15   H     H_    0.376419 0.822444 0.158720 0.191948
H16   H     H_    0.375917 0.177306 0.158088 0.178692
H17   H     H_    0.876392 0.322479 0.158646 0.191975
H18   H     H_    0.875911 0.677302 0.158075 0.178681
H19   H     H_    0.776477 0.116532 0.715765 0.218073
H20   H     H_    0.776596 0.880754 0.716070 0.225522
H21   H     H_    0.276509 0.616486 0.715845 0.218070
H22   H     H_    0.276589 0.380737 0.716043 0.225508
H23   H     H_    0.416782 0.657229 0.940234 0.194459
H24   H     H_    0.416809 0.341940 0.941744 0.197353
H25   H     H_    0.916764 0.157273 0.940138 0.194493
H26   H     H_    0.916819 0.841973 0.941788 0.197331
H27   H     H_    0.530049 0.190398 0.709606 0.190556
H28   H     H_    0.530174 0.811086 0.712899 0.196090
H29   H     H_    0.030041 0.690438 0.709491 0.190535
H30   H     H_    0.030169 0.311085 0.712882 0.196084
N1    N     N_R   0.566260 0.000000 0.302220 -0.245391
N2    N     N_R   0.066260 0.500000 0.302220 -0.245377
N3    N     N_R   0.434410 1.000000 0.697680 -0.208173
N4    N     N_R   0.934410 0.500000 0.697680 -0.208169
O1    O     O_R   0.608610 0.924520 0.551740 -0.542561
O2    O     O_R   0.608610 0.075480 0.551740 -0.537610
O3    O     O_R   0.108610 0.424520 0.551740 -0.542563
O4    O     O_R   0.108610 0.575480 0.551740 -0.537608
O5    O     O_R   0.564110 0.924510 0.685150 -0.556346
O6    O     O_R   0.564110 0.075490 0.685150 -0.530442
O7    O     O_R   0.064110 0.424510 0.685150 -0.556350
O8    O     O_R   0.064110 0.575490 0.685150 -0.530424
O9    O     O_R   0.435880 0.075470 0.314850 -0.583682
O10   O     O_R   0.435880 0.924530 0.314850 -0.571992
O11   O     O_R   0.935880 0.575470 0.314850 -0.583681
O12   O     O_R   0.935880 0.424530 0.314850 -0.571989
O13   O     O_R   0.391380 0.075460 0.448260 -0.598158
O14   O     O_R   0.391380 0.924540 0.448260 -0.592331
O15   O     O_R   0.891380 0.575460 0.448260 -0.598149
O16   O     O_R   0.891380 0.424540 0.448260 -0.592347
Cl1   Cl    Cl    0.792408 0.924519 0.378559 -0.490503
Cl2   Cl    Cl    0.292404 0.424506 0.378555 -0.490538
I1    I     I_    0.288950 0.944907 0.899299 -0.288988
I2    I     I_    0.788951 0.444899 0.899298 -0.289017
I3    I     I_    0.157344 0.016450 0.549198 -0.173582
I4    I     I_    0.657342 0.516437 0.549194 -0.173568
Cl3   Cl    Cl    0.672459 0.005784 0.922321 -0.588721
Cl4   Cl    Cl    0.172458 0.505784 0.922324 -0.588714
Cl5   Cl    Cl    0.481841 0.228204 0.870035 -0.640271
Cl6   Cl    Cl    0.483161 0.774810 0.875323 -0.648059
Cl7   Cl    Cl    0.981754 0.728366 0.869752 -0.640192
Cl8   Cl    Cl    0.983151 0.274814 0.875299 -0.648101
I5    I     I_    0.479518 0.702275 0.220515 -0.313437
I6    I     I_    0.479152 0.298422 0.222485 -0.301470
I7    I     I_    0.979560 0.202340 0.220447 -0.313498
I8    I     I_    0.979162 0.798420 0.222507 -0.301471
Cl9   Cl    Cl    0.742241 0.993891 0.549673 -0.560183
Cl10  Cl    Cl    0.242242 0.493885 0.549672 -0.560209

loop_
_geom_bond_atom_site_label_1
_geom_bond_atom_site_label_2
_ccdc_geom_bond_type
C26   H2    S    
C83   C87   A    
C25   H1    S    
Cu1   O9    S    
C42   O12   A    
C14   C18   A    
C27   H3    S    
Cu4   O7    S    
C75   H25   S    
C48   C56   A    
C80   I8    S    
C32   C72   A    
C39   O9    A    
C33   Cl1   S    
C15   C19   A    
C40   O10   A    
C34   Cl2   S    
C18   C86   A    
C2    C29   S    
C9    C61   A    
C47   C55   A    
C28   C68   A    
C5    C11   A    
C19   C87   A    
C6    C12   A    
C12   C64   A    
C22   H16   S    
Cu3   O5    S    
C77   C83   A    
C44   I2    S    
C57   H7    S    
C72   H22   S    
C71   C73   A    
C49   C57   A    
C71   H21   S    
C36   H10   S    
C25   C63   A    
C45   C47   A    
C23   C67   A    
C50   C52   A    
C35   N3    A    
C29   C69   A    
C26   C64   A    
C22   C66   A    
C9    C13   A    
C27   C61   A    
C30   C70   A    
Cu2   O3    S    
C11   C15   A    
C12   C16   A    
C44   C46   A    
C49   C51   A    
C42   O16   A    
C2    O6    A    
C76   C80   A    
C55   Cl3   S    
C30   C86   A    
Cu4   O16   S    
C29   C85   A    
C21   C65   A    
C31   C71   A    
C33   C59   A    
Cu1   O10   S    
C34   C60   A    
C10   C62   A    
C59   Cl9   S    
C24   H18   S    
C1    O5    A    
Cu2   O12   S    
C52   C54   A    
C47   N3    A    
C41   C68   S    
C46   C48   A    
C53   C55   A    
C59   N1    A    
C23   H17   S    
C54   C56   A    
C31   C87   A    
C28   C62   A    
C26   C66   A    
C60   Cl10  S    
C6    C84   A    
C13   Cl5   S    
C80   C82   A    
C10   C14   A    
C79   C81   A    
C24   C68   A    
C4    O4    A    
Cu3   O6    S    
Cu1   N1    S    
C53   H5    S    
C82   C86   A    
C62   H12   S    
C76   H26   S    
C3    O7    A    
C84   C88   A    
C37   C43   A    
C38   C44   A    
C43   I1    S    
C57   N1    A    
Cu2   Cu4   S    
C45   C49   A    
C16   C20   A    
C74   H24   S    
C50   C58   A    
C58   H8    S    
C37   I3    S    
Cu4   O15   S    
C43   C45   A    
C38   I4    S    
C21   H15   S    
C70   H20   S    
Cu3   O13   S    
C72   C74   A    
C7    C81   A    
Cu4   O8    S    
C40   C65   S    
C16   Cl8   S    
C42   C67   S    
C39   C66   S    
C17   C85   A    
C32   C88   A    
C60   N2    A    
C69   C75   A    
C56   Cl4   S    
C18   H28   S    
Cu2   O11   S    
C35   C37   A    
C4    O8    A    
Cu1   O1    S    
C7    C9    A    
C19   H29   S    
Cu2   N2    S    
Cu3   N3    S    
C61   H11   S    
C3    O3    A    
C41   O11   A    
C36   N4    A    
C1    O1    A    
C58   N2    A    
C35   H9    S    
Cu4   N4    S    
C79   I7    S    
C5    C83   A    
C64   H14   S    
C33   C51   A    
C41   O15   A    
C46   C50   A    
C34   C52   A    
C20   H30   S    
C73   H23   S    
C13   C17   A    
C28   H4    S    
C36   C38   A    
C77   I5    S    
C70   C76   A    
C69   H19   S    
C78   I6    S    
C7    C23   A    
C20   C88   A    
C1    C30   S    
C8    C24   A    
C40   O14   A    
C3    C32   S    
C15   Cl7   S    
C4    C31   S    
C27   C67   A    
C63   H13   S    
C17   H27   S    
C48   N4    A    
Cu3   O14   S    
Cu2   O4    S    
C78   C84   A    
C8    C82   A    
C5    C21   A    
C8    C10   A    
Cu1   Cu3   S    
C74   C78   A    
C14   Cl6   S    
C25   C65   A    
C73   C77   A    
C54   H6    S    
C51   C53   A    
C11   C63   A    
C75   C79   A    
C39   O13   A    
C81   C85   A    
C2    O2    A    
Cu1   O2    S    
C6    C22   A    
