data_mof_unit_14728.cif
_audit_creation_date              2012-12-10T17:50:41-0500
_audit_creation_method            fapswitch 2.2
_symmetry_space_group_name_H-M    P1
_symmetry_Int_Tables_number       1
_space_group_crystal_system       triclinic
_cell_length_a                    15.70677
_cell_length_b                    10.622188
_cell_length_c                    9.935046
_cell_angle_alpha                 89.866267
_cell_angle_beta                  89.838693
_cell_angle_gamma                 91.542265
_cell_volume                      1656.95384973

loop_
_atom_site_label
_atom_site_type_symbol
_atom_type_description
_atom_site_fract_x
_atom_site_fract_y
_atom_site_fract_z
_atom_type_partial_charge
C1    C     C_R   0.502056 0.260759 0.500159 0.844526
C2    C     C_R   0.716682 0.072988 0.667306 -0.140288
C3    C     C_R   0.717324 0.941386 0.666149 0.274476
C4    C     C_R   0.338020 0.499723 0.500171 0.888581
C5    C     C_R   0.648103 0.873750 0.611358 -0.207267
C6    C     C_R   0.577541 0.936739 0.557692 0.046004
C7    C     C_R   0.577432 0.068592 0.558555 0.097665
C8    C     C_R   0.507464 0.128593 0.500088 -0.066421
C9    C     C_R   0.441061 0.062222 0.437868 -0.221475
C10   C     C_R   0.441059 0.933565 0.437458 -0.198717
C11   C     C_R   0.507528 0.871894 0.499064 -0.078873
C12   C     C_3   0.082571 0.500598 0.501467 0.210367
C13   C     C_R   0.388968 0.334337 0.140581 -0.144010
C14   C     C_R   0.334494 0.252457 0.070902 -0.199130
C15   C     C_R   0.334481 0.252515 0.931587 -0.191310
C16   C     C_R   0.501864 0.739364 0.499773 0.863489
C17   C     C_R   0.388981 0.334402 0.861063 -0.141814
C18   C     C_R   0.445361 0.418355 0.928181 0.165286
C19   C     C_R   0.445367 0.418372 0.072637 0.169206
C20   C     C_R   0.552290 0.578114 0.070974 -0.109148
C21   C     C_R   0.552277 0.578082 0.928009 -0.108217
C22   C     C_R   0.661968 0.500612 0.499887 0.879031
C23   C     C_3   0.973167 0.582446 0.594645 -0.168836
C24   C     C_3   0.969337 0.384611 0.529855 -0.167117
C25   C     C_3   0.026686 0.419598 0.407851 -0.164950
C26   C     C_1   0.248960 0.499802 0.500696 -0.187613
C27   C     C_1   0.750996 0.501187 0.499843 -0.187227
C28   C     C_3   0.027013 0.465613 0.623499 -0.163636
C29   C     C_3   0.791631 0.871979 0.721238 -0.961111
C30   C     C_3   0.917328 0.501432 0.500982 0.210184
C31   C     C_3   0.030543 0.617428 0.472635 -0.163738
C32   C     C_3   0.972889 0.536420 0.378995 -0.160544
C33   C     C_1   0.173554 0.500084 0.501192 -0.085739
C34   C     C_1   0.826382 0.501504 0.500337 -0.084776
C35   C     C_R   0.647769 0.136176 0.613740 -0.231537
H1    H     H_    0.050754 0.353046 0.331547 0.131153
H2    H     H_    0.942054 0.289525 0.553256 0.131070
H3    H     H_    0.948566 0.565378 0.279101 0.133535
H4    H     H_    0.057738 0.712559 0.449273 0.131892
H5    H     H_    0.949070 0.648976 0.670949 0.135853
H6    H     H_    0.051348 0.436654 0.723386 0.133447
H7    H     H_    0.388405 0.110313 0.391941 0.133848
H8    H     H_    0.650916 0.237926 0.614201 0.162219
H9    H     H_    0.769908 0.127105 0.708407 0.136586
H10   H     H_    0.841700 0.937771 0.760684 0.238108
H11   H     H_    0.769771 0.808901 0.804418 0.244081
H12   H     H_    0.650910 0.772112 0.609209 0.149107
H13   H     H_    0.820011 0.814257 0.640461 0.243060
H14   H     H_    0.388348 0.881699 0.391437 0.148462
H15   H     H_    0.595047 0.642046 0.124132 0.148562
H16   H     H_    0.384823 0.329033 0.247314 0.196795
H17   H     H_    0.291894 0.188729 0.125548 0.142714
H18   H     H_    0.291849 0.188854 0.877620 0.147074
H19   H     H_    0.384928 0.329238 0.754338 0.201244
H20   H     H_    0.595021 0.642010 0.874061 0.146921
N1    N     N_R   0.499210 0.498800 0.142780 -0.121479
N2    N     N_R   0.499180 0.498720 0.857170 -0.121003
O1    O     O_R   0.500000 0.316780 0.614690 -0.639544
O2    O     O_R   0.499990 0.316750 0.385360 -0.629557
O3    O     O_R   0.376780 0.500000 0.614650 -0.627793
O4    O     O_R   0.376770 0.499980 0.385310 -0.632305
O5    O     O_R   0.500010 0.683250 0.614640 -0.614489
O6    O     O_R   0.500000 0.683220 0.385310 -0.612080
O7    O     O_R   0.623230 0.500020 0.614690 -0.623613
O8    O     O_R   0.623220 0.500000 0.385350 -0.605528
Zn1   Zn    Zn3+2 0.500010 0.500020 0.653130 0.934816
Zn2   Zn    Zn3+2 0.499990 0.499980 0.346870 0.941523

loop_
_geom_bond_atom_site_label_1
_geom_bond_atom_site_label_2
_ccdc_geom_bond_type
C2    C35   A    
C19   N1    A    
C29   H11   S    
C4    C26   S    
C22   O8    A    
C21   N2    A    
C6    C7    A    
C16   O6    A    
C32   H3    S    
N1    Zn2   S    
C35   H8    S    
C9    C10   A    
O4    Zn2   S    
C26   C33   T    
C31   C32   S    
N2    Zn1   S    
C20   N1    A    
C4    O3    A    
C25   C32   S    
C2    C3    A    
C12   C33   S    
C3    C5    A    
O3    Zn1   S    
C7    C8    A    
C27   C34   T    
C13   C14   A    
C24   C25   S    
C30   C32   S    
C5    H12   S    
C3    C29   S    
C9    H7    S    
C16   O5    A    
C12   C28   S    
C15   H18   S    
C14   H17   S    
C31   H4    S    
C17   C18   A    
C24   C30   S    
C22   C27   S    
C1    O2    A    
C12   C31   S    
C5    C6    A    
O6    Zn2   S    
C23   C28   S    
C10   C11   A    
O5    Zn1   S    
C12   C25   S    
C22   O7    A    
C23   H5    S    
C1    C8    S    
C23   C30   S    
C1    O1    A    
C28   H6    S    
C29   H13   S    
C20   C21   A    
C24   H2    S    
C18   C19   A    
C11   C16   S    
C2    H9    S    
C6    C11   A    
C15   C17   A    
C13   C19   A    
C30   C34   S    
C14   C15   A    
C21   H20   S    
C20   H15   S    
C18   N2    A    
O2    Zn2   S    
C25   H1    S    
C13   H16   S    
C10   H14   S    
C7    C35   A    
C4    O4    A    
O1    Zn1   S    
C17   H19   S    
C24   C28   S    
C29   H10   S    
C8    C9    A    
O8    Zn2   S    
C23   C31   S    
O7    Zn1   S    
