data_mof_unit_67402.cif
_audit_creation_date              2013-03-05T15:39:48-0500
_audit_creation_method            fapswitch 2.2
_symmetry_space_group_name_H-M    P1
_symmetry_Int_Tables_number       1
_space_group_crystal_system       triclinic
_cell_length_a                    11.985553
_cell_length_b                    12.918059
_cell_length_c                    7.608165
_cell_angle_alpha                 90.977336
_cell_angle_beta                  108.235018
_cell_angle_gamma                 89.158263
_cell_volume                      1118.59913948

loop_
_atom_site_label
_atom_site_type_symbol
_atom_site_description
_atom_site_fract_x
_atom_site_fract_y
_atom_site_fract_z
_atom_type_partial_charge
O1    O     O_R   0.398880 0.887420 0.621600 -0.598847
O2    O     O_R   0.601120 0.112580 0.378400 -0.598842
O3    O     O_R   0.601120 0.887420 0.378400 -0.606275
O4    O     O_R   0.398880 0.112580 0.621600 -0.606268
O5    O     O_R   0.898880 0.387420 0.621600 -0.598847
O6    O     O_R   0.101120 0.612580 0.378400 -0.598841
O7    O     O_R   0.101120 0.387420 0.378400 -0.606275
O8    O     O_R   0.898880 0.612580 0.621600 -0.606268
O9    O     O_R   0.369080 0.887420 0.305440 -0.582032
O10   O     O_R   0.630920 0.112580 0.694560 -0.582022
O11   O     O_R   0.630920 0.887420 0.694560 -0.600265
O12   O     O_R   0.369080 0.112580 0.305440 -0.600278
O13   O     O_R   0.869080 0.387420 0.305440 -0.582032
O14   O     O_R   0.130920 0.612580 0.694560 -0.582021
O15   O     O_R   0.130920 0.387420 0.694560 -0.600265
O16   O     O_R   0.869080 0.612580 0.305440 -0.600277
C1    C     C_R   0.347654 0.853422 0.453297 0.806524
C2    C     C_R   0.652347 0.146577 0.546703 0.806523
C3    C     C_R   0.653534 0.854822 0.545409 0.811267
C4    C     C_R   0.346464 0.145176 0.454590 0.811274
C5    C     C_R   0.847654 0.353422 0.453297 0.806525
C6    C     C_R   0.152347 0.646577 0.546703 0.806521
C7    C     C_R   0.153534 0.354822 0.545409 0.811267
C8    C     C_R   0.846464 0.645177 0.454590 0.811274
Cu1   Cu    Cu3+1 0.517640 0.000000 0.687200 0.954368
Cu2   Cu    Cu3+1 0.482360 0.000000 0.312800 0.954354
Cu3   Cu    Cu3+1 0.017640 0.500000 0.687200 0.954368
Cu4   Cu    Cu3+1 0.982360 0.500000 0.312800 0.954354
C9    C     C_2   0.248784 0.214052 0.434250 -0.242312
C10   C     C_2   0.751212 0.785944 0.565748 -0.242329
C11   C     C_2   0.741459 0.224843 0.572694 -0.254425
C12   C     C_2   0.258544 0.775154 0.427306 -0.254426
C13   C     C_2   0.748784 0.714052 0.434250 -0.242315
C14   C     C_2   0.251212 0.285944 0.565748 -0.242328
C15   C     C_2   0.241459 0.724843 0.572694 -0.254425
C16   C     C_2   0.758543 0.275155 0.427306 -0.254426
N1    N     N_2   0.455760 0.000000 0.031460 -0.099235
N2    N     N_2   0.544240 1.000000 0.968540 -0.099227
N3    N     N_2   0.955760 0.500000 0.031460 -0.099236
N4    N     N_2   0.044240 0.500000 0.968540 -0.099227
C17   C     C_1   0.643346 0.688675 0.285707 0.245189
N5    N     N_1   0.559544 0.667025 0.167371 -0.274414
C18   C     C_1   0.356650 0.311315 0.714296 0.245204
N6    N     N_1   0.440454 0.332955 0.832636 -0.274418
C19   C     C_1   0.312216 0.742433 0.763477 0.296593
N7    N     N_1   0.367872 0.756745 0.915751 -0.240375
C20   C     C_1   0.687792 0.257559 0.236521 0.296560
N8    N     N_1   0.632141 0.243242 0.084246 -0.240354
C21   C     C_1   0.143345 0.188673 0.285711 0.245187
N9    N     N_1   0.059541 0.167022 0.167380 -0.274415
C22   C     C_1   0.856648 0.811313 0.714300 0.245205
N10   N     N_1   0.940452 0.832952 0.832643 -0.274418
C23   C     C_1   0.812217 0.242432 0.763477 0.296592
N11   N     N_1   0.867874 0.256744 0.915750 -0.240375
C24   C     C_1   0.187793 0.757558 0.236521 0.296560
N12   N     N_1   0.132143 0.743241 0.084245 -0.240354
C25   C     C_3   0.341674 0.035798 0.911836 -0.043341
C26   C     C_3   0.234931 0.993650 0.958417 -0.379754
C27   C     C_3   0.120957 0.035972 0.822865 -0.882054
H1    H     H_    0.122197 0.121971 0.821214 0.268275
H2    H     H_    0.109127 0.005391 0.680815 0.247014
H3    H     H_    0.044920 0.012556 0.865966 0.279760
H4    H     H_    0.233586 0.908128 0.947517 0.247015
H5    H     H_    0.233791 0.014542 0.098190 0.260820
H6    H     H_    0.339236 0.121805 0.913987 0.177305
H7    H     H_    0.325322 0.005139 0.772857 0.209203
C28   C     C_3   0.658323 0.964195 0.088163 -0.043301
C29   C     C_3   0.765074 0.006334 0.041595 -0.379808
C30   C     C_3   0.879031 0.963922 0.177040 -0.882085
H8    H     H_    0.890865 0.994381 0.319160 0.247004
H9    H     H_    0.877762 0.877924 0.178464 0.268339
H10   H     H_    0.955080 0.987390 0.134014 0.279757
H11   H     H_    0.766179 0.985507 0.901782 0.260861
H12   H     H_    0.766476 0.091849 0.052634 0.246976
H13   H     H_    0.674679 0.994855 0.227143 0.209174
H14   H     H_    0.660749 0.878187 0.086008 0.177333
C31   C     C_3   0.841674 0.535798 0.911836 -0.043342
C32   C     C_3   0.734932 0.493650 0.958417 -0.379754
C33   C     C_3   0.620957 0.535970 0.822862 -0.882054
H15   H     H_    0.622198 0.621968 0.821202 0.268273
H16   H     H_    0.609127 0.505383 0.680816 0.247015
H17   H     H_    0.544920 0.512557 0.865967 0.279762
H18   H     H_    0.733588 0.408128 0.947520 0.247016
H19   H     H_    0.733790 0.514544 0.098188 0.260819
H20   H     H_    0.839236 0.621805 0.913987 0.177305
H21   H     H_    0.825322 0.505139 0.772857 0.209204
C34   C     C_3   0.158323 0.464195 0.088163 -0.043299
C35   C     C_3   0.265074 0.506334 0.041595 -0.379810
C36   C     C_3   0.379031 0.463919 0.177036 -0.882090
H22   H     H_    0.390864 0.494371 0.319160 0.247003
H23   H     H_    0.377762 0.377921 0.178449 0.268342
H24   H     H_    0.455080 0.487392 0.134015 0.279756
H25   H     H_    0.266178 0.485509 0.901781 0.260862
H26   H     H_    0.266478 0.591848 0.052639 0.246975
H27   H     H_    0.174679 0.494855 0.227143 0.209173
H28   H     H_    0.160749 0.378187 0.086008 0.177333

loop_
_geom_bond_atom_site_label_1
_geom_bond_atom_site_label_2
_geom_bond_distance
_ccdc_geom_bond_type
O16   Cu4   1.964375 S    
C24   N12   1.154994 T    
O2    C2    1.306213 A    
C17   N5    1.153853 T    
C25   H7    1.082409 S    
C10   C22   1.444793 S    
O4    Cu1   1.977258 S    
C5    C16   1.447340 S    
C9    C21   1.444791 S    
C31   C32   1.539353 S    
C6    C15   1.447340 S    
O11   C3    1.308172 A    
N3    C31   1.459060 S    
N4    C34   1.459060 S    
O11   Cu1   1.964375 S    
C29   H12   1.106423 S    
O6    C6    1.306213 A    
C16   C20   1.449744 S    
C30   H9    1.111539 S    
O5    Cu3   1.995413 S    
C32   H18   1.106449 S    
O6    Cu4   1.995411 S    
C29   C30   1.531026 S    
C34   H27   1.082414 S    
O13   Cu4   1.992296 S    
O3    C3    1.302849 A    
O14   Cu3   1.992294 S    
C36   H23   1.111536 S    
C12   C24   1.449744 S    
O15   C7    1.308173 A    
C31   H20   1.110985 S    
C27   H1    1.111589 S    
O16   C8    1.308170 A    
O1    Cu1   1.995413 S    
O9    Cu2   1.992296 S    
C4    C9    1.430716 S    
C26   H5    1.096849 S    
C35   H26   1.106422 S    
C27   H2    1.111461 S    
C28   C29   1.539357 S    
C12   C15   1.363108 D    
N2    C28   1.459060 S    
N3    N4    1.292859 D    
C33   H16   1.111458 S    
C32   C33   1.531070 S    
Cu4   N3    2.063062 S    
Cu1   Cu2   2.745712 S    
C19   N7    1.154993 T    
C9    C14   1.347271 D    
O7    Cu4   1.977258 S    
C22   N10   1.153856 T    
O12   Cu2   1.964375 S    
C30   H10   1.108198 S    
C18   N6    1.153854 T    
N1    N2    1.292859 D    
Cu1   N2    2.063063 S    
O15   Cu3   1.964375 S    
C20   N8    1.154994 T    
Cu3   N4    2.063063 S    
C7    C14   1.430711 S    
C34   H28   1.110985 S    
O12   C4    1.308169 A    
O13   C5    1.313480 A    
O2    Cu2   1.995411 S    
C11   C23   1.449742 S    
C36   H24   1.108200 S    
O10   Cu1   1.992294 S    
O9    C1    1.313479 A    
C31   H21   1.082409 S    
C26   C27   1.531072 S    
C28   H13   1.082413 S    
C15   C19   1.449742 S    
C26   H4    1.106449 S    
C1    C12   1.447341 S    
C35   H25   1.096819 S    
C27   H3    1.108199 S    
C10   C13   1.347271 D    
O3    Cu2   1.977258 S    
C14   C18   1.444792 S    
C25   H6    1.110985 S    
C33   H17   1.108198 S    
Cu2   N1    2.063062 S    
C23   N11   1.154993 T    
C28   H14   1.110984 S    
O1    C1    1.306214 A    
C8    C13   1.430714 S    
C13   C17   1.444792 S    
O14   C6    1.313483 A    
C29   H11   1.096821 S    
C25   C26   1.539354 S    
O10   C2    1.313482 A    
O7    C7    1.302849 A    
O8    C8    1.302850 A    
C30   H8    1.111411 S    
C33   H15   1.111587 S    
O4    C4    1.302850 A    
C32   H19   1.096848 S    
O5    C5    1.306215 A    
C35   C36   1.531024 S    
C34   C35   1.539357 S    
C21   N9    1.153851 T    
Cu3   Cu4   2.745712 S    
O8    Cu3   1.977258 S    
C11   C16   1.363108 D    
C2    C11   1.447341 S    
C36   H22   1.111409 S    
C3    C10   1.430711 S    
N1    C25   1.459061 S    
