data_mof_unit_29645.cif
_audit_creation_date              2012-12-10T17:19:55-0500
_audit_creation_method            fapswitch 2.2
_symmetry_space_group_name_H-M    P1
_symmetry_Int_Tables_number       1
_space_group_crystal_system       triclinic
_cell_length_a                    9.643846
_cell_length_b                    10.784504
_cell_length_c                    15.4357
_cell_angle_alpha                 87.248098
_cell_angle_beta                  73.893328
_cell_angle_gamma                 89.403895
_cell_volume                      1540.5741916

loop_
_atom_site_label
_atom_site_type_symbol
_atom_type_description
_atom_site_fract_x
_atom_site_fract_y
_atom_site_fract_z
_atom_type_partial_charge
C1    C     C_R   0.000691 0.262814 0.499378 0.888253
C2    C     C_R   0.675336 0.502717 0.910455 0.058012
C3    C     C_R   0.774200 0.471020 0.961442 0.139442
C4    C     C_R   0.527774 0.524841 0.954800 0.076691
C5    C     C_R   0.474806 0.495270 0.048474 0.054358
C6    C     C_R   0.574718 0.466597 0.097970 -0.289148
C7    C     C_R   0.721662 0.451159 0.056233 -0.045620
C8    C     C_R   0.433449 0.582659 0.909426 -0.209940
C9    C     C_R   0.291948 0.610003 0.955119 -0.225919
C10   C     C_R   0.237168 0.574453 0.046012 0.166069
C11   C     C_R   0.324285 0.506266 0.091714 0.025756
C12   C     C_R   0.917975 0.498885 0.672235 0.760791
C13   C     C_R   0.097139 0.609177 0.092382 -0.171894
C14   C     C_R   0.045550 0.581870 0.184530 -0.248801
C15   C     C_R   0.257360 0.454621 0.179540 -0.003422
C16   C     C_R   0.056824 0.120811 0.649251 -0.184294
C17   C     C_R   0.084890 0.052304 0.721400 -0.124097
C18   C     C_R   0.084987 0.923335 0.722713 -0.131373
C19   C     C_R   0.056389 0.862169 0.652057 -0.167965
C20   C     C_R   0.029053 0.929805 0.577724 0.104242
C21   C     C_R   0.030150 0.060904 0.575638 0.053392
C22   C     C_R   0.000199 0.128320 0.501529 -0.120286
C23   C     C_R   0.998281 0.736641 0.502854 0.753901
C24   C     C_R   0.964603 0.065577 0.431750 -0.004420
C25   C     C_R   0.963024 0.936928 0.436067 -0.309954
C26   C     C_R   0.996166 0.869880 0.506716 -0.077674
C27   C     C_R   0.687090 0.688775 0.404004 -0.129412
C28   C     C_R   0.631288 0.802703 0.385631 -0.202873
C29   C     C_R   0.484770 0.813686 0.396882 -0.222470
C30   C     C_R   0.401548 0.705378 0.410698 0.036037
C31   C     C_R   0.446128 0.596998 0.454133 0.177611
C32   C     C_R   0.595569 0.593750 0.453120 0.193750
C33   C     C_R   0.554773 0.410040 0.544667 -0.050374
C34   C     C_R   0.081729 0.498604 0.328091 0.897388
C35   C     C_R   0.407536 0.409514 0.544075 -0.052775
C36   C     C_R   0.872257 0.495412 0.771457 -0.042728
C37   C     C_R   0.126157 0.507026 0.229212 0.003233
C38   C     C_R   0.922862 0.464234 0.915908 -0.157814
C39   C     C_R   0.971110 0.476758 0.822041 -0.235753
C40   C     C_R   0.726136 0.508705 0.815861 -0.235248
Cu1   Cu    Cu3+1 0.140660 0.499990 0.500010 0.968018
Cu2   Cu    Cu3+1 0.859340 0.500010 0.499990 0.955908
H1    H     H_    0.030970 0.663871 0.058561 0.135559
H2    H     H_    0.054267 0.220643 0.652962 0.131015
H3    H     H_    0.105257 0.099592 0.776971 0.141864
H4    H     H_    0.053831 0.761849 0.657110 0.145525
H5    H     H_    0.940120 0.887491 0.382003 0.117739
H6    H     H_    0.593638 0.336362 0.581807 0.137837
H7    H     H_    0.801219 0.678005 0.378901 0.175951
H8    H     H_    0.702426 0.879470 0.355427 0.145176
H9    H     H_    0.446483 0.899142 0.371453 0.154931
H10   H     H_    0.337429 0.335427 0.580628 0.134738
H11   H     H_    0.942979 0.620348 0.221041 0.136758
H12   H     H_    0.003959 0.450846 0.951555 0.191276
H13   H     H_    0.085490 0.468925 0.789106 0.158026
H14   H     H_    0.651950 0.518941 0.775142 0.154609
H15   H     H_    0.539561 0.458056 0.170873 0.179058
H16   H     H_    0.468815 0.616770 0.839983 0.143347
N1    N     N_R   0.648320 0.501210 0.499140 -0.195318
N2    N     N_R   0.352470 0.501290 0.499110 -0.197888
O1    O     O_R   0.118810 0.319640 0.500010 -0.567191
O2    O     O_R   0.881240 0.319660 0.500000 -0.563191
O3    O     O_R   0.055570 0.499980 0.629840 -0.598741
O4    O     O_R   0.818000 0.500010 0.629830 -0.583533
O5    O     O_R   0.118760 0.680340 0.500000 -0.617242
O6    O     O_R   0.881190 0.680360 0.499990 -0.588709
O7    O     O_R   0.182000 0.499990 0.370170 -0.537698
O8    O     O_R   0.944430 0.500020 0.370160 -0.589981
C41   C     C_2   0.812029 0.408623 0.115719 0.356416
H17   H     H_    0.782482 0.434551 0.185586 0.101151
O9    O     O_2   0.913264 0.337954 0.090137 -0.537699
C42   C     C_2   0.930507 0.127164 0.351590 0.412532
H18   H     H_    0.886878 0.072329 0.308019 0.054163
O10   O     O_2   0.952872 0.237151 0.331249 -0.511059
H19   H     H_    0.105560 0.870397 0.779229 0.133938
C43   C     C_2   0.309809 0.333882 0.210588 0.375419
H20   H     H_    0.392681 0.282251 0.163982 0.069623
O11   O     O_2   0.258369 0.287449 0.286236 -0.512097
C44   C     C_2   0.334457 0.698959 0.336739 0.454644
H21   H     H_    0.238813 0.752965 0.336886 0.032688
O12   O     O_2   0.395304 0.643227 0.269779 -0.579775
H22   H     H_    0.225353 0.660321 0.919184 0.137542

loop_
_geom_bond_atom_site_label_1
_geom_bond_atom_site_label_2
_ccdc_geom_bond_type
C16   C21   A    
C34   C37   S    
Cu1   Cu2   S    
C19   C20   A    
Cu1   O1    S    
C4    C8    A    
C1    O2    A    
C19   H4    S    
Cu1   O7    S    
C18   H19   S    
C23   O6    A    
C28   C29   A    
C43   O11   D    
C5    C11   A    
C3    C7    A    
C5    C6    A    
C12   O4    A    
C18   C19   A    
C23   C26   S    
C41   O9    D    
C15   C37   A    
C8    H16   S    
C11   C15   A    
C39   H13   S    
C3    C38   A    
C8    C9    A    
C40   H14   S    
C12   C36   S    
C9    C10   A    
C16   H2    S    
C9    H22   S    
C15   C43   S    
C1    C22   S    
C33   N1    A    
C21   C22   A    
Cu2   O8    S    
C6    H15   S    
C28   H8    S    
C38   C39   A    
C36   C40   A    
C43   H20   S    
C42   O10   D    
C34   O8    A    
C44   O12   D    
C12   O3    A    
C16   C17   A    
Cu1   O5    S    
C25   C26   A    
C35   N2    A    
C31   N2    A    
Cu2   N1    S    
C2    C4    A    
C29   C30   A    
C31   C32   A    
C38   H12   S    
C17   C18   A    
C24   C25   A    
C30   C44   S    
C22   C24   A    
Cu1   O3    S    
Cu2   O4    S    
C13   H1    S    
C24   C42   S    
C29   H9    S    
Cu2   O2    S    
C25   H5    S    
C27   C32   A    
C36   C39   A    
Cu1   N2    S    
C17   H3    S    
C42   H18   S    
C10   C13   A    
C1    O1    A    
C34   O7    A    
C7    C41   S    
C6    C7    A    
C23   O5    A    
C2    C3    A    
C14   C37   A    
C35   H10   S    
C30   C31   A    
C20   C26   A    
C33   C35   A    
C41   H17   S    
C10   C11   A    
C44   H21   S    
C2    C40   A    
C4    C5    A    
C14   H11   S    
C20   C21   A    
C27   C28   A    
Cu2   O6    S    
C33   H6    S    
C32   N1    A    
C13   C14   A    
C27   H7    S    
