data_mof_unit_15827.cif
_audit_creation_date              2012-12-11T14:17:45-0500
_audit_creation_method            fapswitch 2.2
_symmetry_space_group_name_H-M    P1
_symmetry_Int_Tables_number       1
_space_group_crystal_system       monoclinic
_cell_length_a                    11.033396
_cell_length_b                    11.033396
_cell_length_c                    18.883256
_cell_angle_alpha                 90.0
_cell_angle_beta                  90.0
_cell_angle_gamma                 120.000166
_cell_volume                      1990.7888405

loop_
_atom_site_label
_atom_site_type_symbol
_atom_type_description
_atom_site_fract_x
_atom_site_fract_y
_atom_site_fract_z
_atom_type_partial_charge
C1    C     C_R   0.521620 0.453095 0.145366 0.531339
C2    C     C_R   0.546905 0.068525 0.145366 0.531338
C3    C     C_R   0.931475 0.478380 0.145366 0.531338
C4    C     C_R   0.459646 0.520747 0.852773 0.528169
C5    C     C_R   0.061100 0.540354 0.852773 0.528168
C6    C     C_R   0.479253 0.938899 0.852773 0.528169
C7    C     C_R   0.391290 0.949607 0.456709 0.378073
C8    C     C_R   0.050393 0.441683 0.456709 0.378073
C9    C     C_R   0.558317 0.608710 0.456709 0.378072
C10   C     C_R   0.071505 0.447402 0.529223 0.378070
C11   C     C_R   0.375897 0.928495 0.529223 0.378070
C12   C     C_R   0.552598 0.624103 0.529223 0.378071
C13   C     C_R   0.749647 0.125269 0.588104 -0.091303
C14   C     C_R   0.874730 0.624376 0.588105 -0.091304
C15   C     C_R   0.375623 0.250354 0.588105 -0.091304
C16   C     C_R   0.940899 0.712402 0.448917 0.008363
C17   C     C_R   0.771503 0.059100 0.448916 0.008364
C18   C     C_R   0.287597 0.228496 0.448916 0.008363
C19   C     C_R   0.875153 0.141055 0.563846 -0.087701
C20   C     C_R   0.858944 0.734096 0.563846 -0.087702
C21   C     C_R   0.265902 0.124847 0.563846 -0.087701
C22   C     C_R   0.893560 0.779024 0.494461 -0.080867
C23   C     C_R   0.885465 0.106439 0.494461 -0.080865
C24   C     C_R   0.220974 0.114535 0.494461 -0.080866
C25   C     C_R   0.516400 0.453678 0.354373 0.581147
C26   C     C_R   0.546322 0.062722 0.354373 0.581145
C27   C     C_R   0.937277 0.483600 0.354374 0.581145
C28   C     C_R   0.457010 0.520460 0.645943 0.583376
C29   C     C_R   0.063449 0.542989 0.645943 0.583376
C30   C     C_R   0.479540 0.936551 0.645943 0.583376
C31   C     C_R   0.493676 0.003102 0.923047 -0.002246
C32   C     C_R   0.996898 0.490573 0.923047 -0.002246
C33   C     C_R   0.509427 0.506325 0.923047 -0.002246
C34   C     C_R   0.968395 0.490476 0.070494 0.009738
C35   C     C_R   0.522081 0.031605 0.070494 0.009738
C36   C     C_R   0.509524 0.477919 0.070494 0.009738
C37   C     C_R   0.374082 0.969050 0.966173 -0.067433
C38   C     C_R   0.030950 0.405032 0.966173 -0.067433
C39   C     C_R   0.594968 0.625919 0.966173 -0.067433
C40   C     C_R   0.029876 0.417165 0.040763 -0.078701
C41   C     C_R   0.387288 0.970124 0.040762 -0.078701
C42   C     C_R   0.582836 0.612712 0.040763 -0.078701
C43   C     C_R   0.640131 0.090121 0.025959 -0.111942
C44   C     C_R   0.909879 0.550010 0.025959 -0.111943
C45   C     C_R   0.449990 0.359868 0.025959 -0.111942
C46   C     C_R   0.927226 0.553233 0.953367 -0.145557
C47   C     C_R   0.626008 0.072775 0.953367 -0.145557
C48   C     C_R   0.446766 0.373992 0.953367 -0.145557
C49   C     C_R   0.242317 0.935904 0.938051 -0.074374
C50   C     C_R   0.064097 0.306414 0.938051 -0.074373
C51   C     C_R   0.693586 0.757683 0.938051 -0.074373
C52   C     C_R   0.085008 0.350880 0.083479 -0.113366
C53   C     C_R   0.265872 0.914993 0.083478 -0.113366
C54   C     C_R   0.649121 0.734128 0.083478 -0.113365
C55   C     C_R   0.125629 0.889097 0.981355 0.480555
C56   C     C_R   0.110904 0.236533 0.981355 0.480555
C57   C     C_R   0.763468 0.874371 0.981355 0.480555
C58   C     C_R   0.122030 0.258810 0.053928 0.458466
C59   C     C_R   0.136779 0.877970 0.053928 0.458466
C60   C     C_R   0.741191 0.863221 0.053928 0.458467
C61   C     C_R   0.494419 0.989890 0.574172 -0.033714
C62   C     C_R   0.010110 0.504529 0.574172 -0.033714
C63   C     C_R   0.495471 0.505581 0.574172 -0.033714
C64   C     C_R   0.989410 0.513673 0.427257 -0.012582
C65   C     C_R   0.524262 0.010589 0.427257 -0.012582
C66   C     C_R   0.486327 0.475738 0.427257 -0.012581
C67   C     C_R   0.628964 0.060487 0.544875 -0.030847
C68   C     C_R   0.939512 0.568476 0.544875 -0.030847
C69   C     C_R   0.431523 0.371036 0.544875 -0.030847
C70   C     C_R   0.954845 0.597332 0.472173 -0.001303
C71   C     C_R   0.642486 0.045154 0.472172 -0.001303
C72   C     C_R   0.402668 0.357514 0.472173 -0.001303
Cr1   Cr    Cr6+3 0.768550 0.541320 0.250660 1.100845
Cr2   Cr    Cr6+3 0.458680 0.227230 0.250660 1.100845
Cr3   Cr    Cr6+3 0.772770 0.231450 0.250660 1.100845
Cr4   Cr    Cr6+3 0.541320 0.768550 0.749340 1.054270
Cr5   Cr    Cr6+3 0.227230 0.458680 0.749340 1.054271
Cr6   Cr    Cr6+3 0.231450 0.772770 0.749340 1.054270
H1    H     H_    0.744977 0.149329 0.047366 0.202833
H2    H     H_    0.850671 0.595647 0.047366 0.202833
H3    H     H_    0.404352 0.255023 0.047366 0.202833
H4    H     H_    0.889433 0.608099 0.920773 0.182020
H5    H     H_    0.718668 0.110567 0.920773 0.182020
H6    H     H_    0.391900 0.281332 0.920773 0.182020
H7    H     H_    0.227876 0.954756 0.883540 0.189852
H8    H     H_    0.045245 0.273121 0.883541 0.189854
H9    H     H_    0.726880 0.772125 0.883541 0.189853
H10   H     H_    0.098130 0.367582 0.140013 0.170156
H11   H     H_    0.269451 0.901871 0.140012 0.170156
H12   H     H_    0.632419 0.730548 0.140013 0.170156
H13   H     H_    0.744158 0.152249 0.642711 0.107158
H14   H     H_    0.847750 0.591906 0.642712 0.107158
H15   H     H_    0.408092 0.255843 0.642711 0.107158
H16   H     H_    0.976168 0.761103 0.397799 0.193010
H17   H     H_    0.784933 0.023830 0.397798 0.193011
H18   H     H_    0.238897 0.215065 0.397799 0.193010
H19   H     H_    0.963278 0.177068 0.599476 0.175211
H20   H     H_    0.822931 0.786208 0.599476 0.175210
H21   H     H_    0.213790 0.036722 0.599476 0.175211
H22   H     H_    0.883179 0.865397 0.475443 0.149309
H23   H     H_    0.982219 0.116820 0.475442 0.149307
H24   H     H_    0.134601 0.017780 0.475442 0.149308
O1    O     O_R   0.910960 0.572410 0.171010 -0.459501
O2    O     O_R   0.427590 0.338550 0.171010 -0.459500
O3    O     O_R   0.661450 0.089040 0.171010 -0.459501
O4    O     O_R   0.572410 0.910960 0.828990 -0.514543
O5    O     O_R   0.338550 0.427590 0.828990 -0.514543
O6    O     O_R   0.089040 0.661450 0.828990 -0.514543
O7    O     O_R   0.639750 0.528530 0.175600 -0.507083
O8    O     O_R   0.471470 0.111220 0.175600 -0.507084
O9    O     O_R   0.888780 0.360250 0.175600 -0.507083
O10   O     O_R   0.528530 0.639750 0.824400 -0.532464
O11   O     O_R   0.111220 0.471470 0.824400 -0.532465
O12   O     O_R   0.360250 0.888780 0.824400 -0.532464
O13   O     O_R   0.909330 0.572400 0.331540 -0.536805
O14   O     O_R   0.427600 0.336930 0.331540 -0.536806
O15   O     O_R   0.663070 0.090670 0.331540 -0.536806
O16   O     O_R   0.572400 0.909330 0.668460 -0.470379
O17   O     O_R   0.336930 0.427600 0.668460 -0.470379
O18   O     O_R   0.090670 0.663070 0.668460 -0.470378
O19   O     O_R   0.638240 0.528520 0.324410 -0.461809
O20   O     O_R   0.471480 0.109720 0.324410 -0.461809
O21   O     O_R   0.890280 0.361760 0.324410 -0.461809
O22   O     O_R   0.528520 0.638240 0.675590 -0.463495
O23   O     O_R   0.109720 0.471480 0.675590 -0.463495
O24   O     O_R   0.361760 0.890280 0.675590 -0.463494
O25   O     O_3   0.666667 0.333333 0.250630 -0.306667
O26   O     O_3   0.333333 0.666667 0.749370 -0.256718
F1    F     F_    0.001862 0.858003 0.952142 -0.593570
F2    F     F_    0.141997 0.143859 0.952143 -0.593569
F3    F     F_    0.856142 0.998139 0.952143 -0.593570
F4    F     F_    0.162270 0.186135 0.096333 -0.567112
F5    F     F_    0.023864 0.837731 0.096332 -0.567112
F6    F     F_    0.813867 0.976136 0.096333 -0.567112
F7    F     F_    0.276374 0.901682 0.414779 -0.625757
F8    F     F_    0.098318 0.374692 0.414778 -0.625757
F9    F     F_    0.625308 0.723626 0.414778 -0.625758
F10   F     F_    0.156253 0.401373 0.554784 -0.609711
F11   F     F_    0.245119 0.843747 0.554784 -0.609711
F12   F     F_    0.598627 0.754880 0.554784 -0.609712

loop_
_geom_bond_atom_site_label_1
_geom_bond_atom_site_label_2
_ccdc_geom_bond_type
C2    C35   S    
C39   C51   A    
C30   O24   A    
C29   O23   A    
C8    F8    S    
C18   H18   S    
C36   C42   A    
Cr3   O15   S    
C26   O15   A    
Cr6   O26   S    
C53   C59   A    
C54   C60   A    
C7    C11   A    
C17   C23   A    
C34   C40   A    
C54   H12   S    
C55   C59   A    
C32   C38   A    
C21   H21   S    
C4    C33   S    
C43   H1    S    
Cr6   O6    S    
C11   F11   S    
C9    C66   A    
C6    O12   A    
C1    O7    A    
C46   H4    S    
C9    F9    S    
C66   C72   A    
C63   C69   A    
C65   C71   A    
C55   F1    S    
Cr1   O1    S    
C16   C22   A    
C12   F12   S    
C51   C57   A    
C64   C70   A    
C35   C43   A    
C24   H24   S    
C5    C32   S    
C6    C31   S    
C4    O10   A    
C31   C47   A    
C13   H13   S    
C18   C72   A    
Cr3   O9    S    
C10   C62   A    
Cr5   O11   S    
C29   O18   A    
C44   C46   A    
C39   C42   A    
C19   H19   S    
C15   C69   A    
C4    O5    A    
C22   H22   S    
C13   C19   A    
Cr4   O22   S    
C14   C20   A    
Cr5   O5    S    
C16   C70   A    
C18   C24   A    
C25   O14   A    
C51   H9    S    
C12   C63   A    
C27   O21   A    
C19   C23   A    
C3    O9    A    
C57   C60   A    
C30   O16   A    
C3    C34   S    
Cr5   O17   S    
Cr1   O25   S    
C59   F5    S    
Cr4   O16   S    
C31   C37   A    
C69   C72   A    
Cr6   O18   S    
C7    F7    S    
C49   H7    S    
C7    C65   A    
C37   C49   A    
C61   C67   A    
Cr2   O25   S    
C44   H2    S    
Cr4   O10   S    
Cr2   O14   S    
C6    O4    A    
C34   C44   A    
C36   C45   A    
C33   C39   A    
C1    O2    A    
C14   H14   S    
Cr5   O26   S    
C52   C58   A    
C8    C64   A    
C17   H17   S    
C68   C70   A    
Cr2   O20   S    
C20   C22   A    
C17   C71   A    
Cr1   O19   S    
C53   H11   S    
Cr4   O26   S    
Cr3   O21   S    
C21   C24   A    
Cr6   O24   S    
C60   F6    S    
Cr5   O23   S    
Cr2   O2    S    
C13   C67   A    
C45   C48   A    
C3    O1    A    
C29   C62   S    
Cr6   O12   S    
Cr4   O4    S    
C5    O11   A    
C26   C65   S    
C32   C46   A    
C57   F3    S    
C45   H3    S    
C25   C66   S    
C11   C61   A    
C28   O17   A    
C15   H15   S    
C28   O22   A    
Cr1   O7    S    
C38   C50   A    
C10   F10   S    
C2    O3    A    
C16   H16   S    
Cr1   O13   S    
C62   C68   A    
C40   C52   A    
C42   C54   A    
C38   C40   A    
Cr3   O25   S    
C23   H23   S    
C43   C47   A    
C52   H10   S    
C56   C58   A    
C67   C71   A    
C49   C55   A    
C37   C41   A    
C35   C41   A    
C9    C12   A    
C50   C56   A    
C27   C64   S    
C50   H8    S    
C58   F4    S    
C47   H5    S    
C41   C53   A    
C28   C63   S    
C48   H6    S    
C15   C21   A    
C20   H20   S    
C8    C10   A    
C30   C61   S    
C33   C48   A    
C14   C68   A    
C26   O20   A    
Cr3   O3    S    
Cr2   O8    S    
C25   O19   A    
C56   F2    S    
C1    C36   S    
C27   O13   A    
C5    O6    A    
C2    O8    A    
