data_mof_unit_37002.cif
_audit_creation_date              2012-12-11T15:39:23-0500
_audit_creation_method            fapswitch 2.2
_symmetry_space_group_name_H-M    P1
_symmetry_Int_Tables_number       1
_space_group_crystal_system       triclinic
_cell_length_a                    17.379375
_cell_length_b                    24.210941
_cell_length_c                    14.962311
_cell_angle_alpha                 89.88062
_cell_angle_beta                  125.04427
_cell_angle_gamma                 90.128129
_cell_volume                      5154.33417535

loop_
_atom_site_label
_atom_site_type_symbol
_atom_type_description
_atom_site_fract_x
_atom_site_fract_y
_atom_site_fract_z
_atom_type_partial_charge
C1    C     C_R   0.311619 0.374185 0.905994 -0.100315
C2    C     C_R   0.646369 0.347884 0.092197 -0.124486
C3    C     C_R   0.852140 0.848387 0.906876 -0.110561
C4    C     C_R   0.184321 0.869766 0.089541 -0.089916
C5    C     C_R   0.380904 0.683956 0.999620 0.174912
C6    C     C_R   0.686547 0.638594 0.998006 0.165820
C7    C     C_R   0.814871 0.143377 0.997325 0.173010
C8    C     C_R   0.111470 0.185650 0.995596 0.126823
C9    C     C_R   0.462588 0.500695 0.289215 0.050006
C10   C     C_R   0.435248 0.499867 0.633901 0.057598
C11   C     C_R   0.960656 0.998874 0.287189 0.050856
C12   C     C_R   0.935188 0.999955 0.633717 0.049922
C13   C     C_R   0.204085 0.501684 0.631380 0.023827
C14   C     C_R   0.824368 0.500906 0.325318 0.021481
C15   C     C_R   0.703411 0.001088 0.633380 0.011038
C16   C     C_R   0.326147 0.002219 0.301707 -0.005398
C17   C     C_R   0.070102 0.554664 0.484017 0.200760
C18   C     C_R   0.973621 0.553614 0.415730 0.190611
C19   C     C_R   0.564714 0.053174 0.506178 0.189524
C20   C     C_R   0.470311 0.052898 0.428233 0.235397
C21   C     C_R   0.120480 0.504952 0.520740 0.058422
C22   C     C_R   0.925687 0.503189 0.381510 0.034693
C23   C     C_R   0.617847 0.005711 0.526822 0.064704
C24   C     C_R   0.426758 0.005145 0.367997 0.032450
C25   C     C_R   0.075010 0.456267 0.463824 -0.204335
C26   C     C_R   0.977152 0.455296 0.394431 -0.188306
C27   C     C_R   0.578110 0.960692 0.455418 -0.216870
C28   C     C_R   0.481611 0.960619 0.374768 -0.198639
C29   C     C_3   0.964667 0.601776 0.471649 -0.422633
C30   C     C_3   0.069452 0.603350 0.545805 -0.492195
C31   C     C_3   0.450911 0.085131 0.499077 -0.482934
C32   C     C_3   0.554839 0.085680 0.584384 -0.463820
C33   C     C_R   0.304409 0.773274 0.903612 0.356235
C34   C     C_R   0.849121 0.679770 0.091580 0.363967
C35   C     C_R   0.651967 0.184793 0.901702 0.368420
C36   C     C_R   0.185665 0.276339 0.087297 0.365184
C37   C     C_R   0.597127 0.225722 0.907255 0.290361
C38   C     C_R   0.241267 0.319339 0.088434 0.305728
C39   C     C_R   0.251392 0.817923 0.901815 0.297828
C40   C     C_R   0.901478 0.723469 0.087887 0.287513
C41   C     C_R   0.636371 0.255009 0.005442 -0.063194
C42   C     C_R   0.232848 0.332134 0.991068 -0.070883
C43   C     C_R   0.262499 0.832858 0.999879 -0.061657
C44   C     C_R   0.860366 0.754687 0.991085 -0.070159
C45   C     C_R   0.443243 0.652291 0.090482 -0.166883
C46   C     C_R   0.597485 0.624440 0.907467 -0.136501
C47   C     C_R   0.905310 0.131873 0.088849 -0.143130
C48   C     C_R   0.055013 0.151890 0.906715 -0.152967
C49   C     C_R   0.707519 0.229266 0.103709 0.493282
C50   C     C_R   0.152800 0.313026 0.891029 0.488687
C51   C     C_R   0.342932 0.814355 0.099635 0.489675
C52   C     C_R   0.788291 0.729897 0.891848 0.492480
C53   C     C_R   0.386991 0.766710 0.099180 -0.438960
C54   C     C_R   0.738805 0.685814 0.895542 -0.431610
C55   C     C_R   0.758648 0.186786 0.098695 -0.437239
C56   C     C_R   0.105705 0.267018 0.892747 -0.429588
C57   C     C_R   0.358689 0.742233 0.000296 -0.010988
C58   C     C_R   0.760870 0.666379 0.995591 -0.007766
C59   C     C_R   0.739627 0.170692 0.998178 -0.010477
C60   C     C_R   0.131541 0.244267 0.992115 -0.005734
C61   C     C_R   0.395399 0.550280 0.468924 -0.149333
C62   C     C_R   0.403859 0.550533 0.382655 -0.170151
C63   C     C_R   0.893450 0.049078 0.466504 -0.147923
C64   C     C_R   0.900065 0.048676 0.378750 -0.163208
C65   C     C_R   0.419085 0.500626 0.348043 0.142544
C66   C     C_R   0.402456 0.500110 0.520087 0.142282
C67   C     C_R   0.916943 0.998640 0.345876 0.139920
C68   C     C_R   0.902661 0.999362 0.519842 0.136315
C69   C     C_R   0.404399 0.450493 0.383003 -0.129776
C70   C     C_R   0.395844 0.450204 0.469086 -0.185335
C71   C     C_R   0.904691 0.948659 0.383373 -0.159199
C72   C     C_R   0.897328 0.949016 0.470397 -0.156638
C73   C     C_R   0.494615 0.454623 0.264914 -0.095582
C74   C     C_R   0.452195 0.453922 0.697644 -0.127781
C75   C     C_R   0.984906 0.953038 0.253273 -0.120081
C76   C     C_R   0.950671 0.954143 0.696927 -0.110697
C77   C     C_R   0.253937 0.546213 0.694462 0.457517
C78   C     C_R   0.764516 0.546051 0.285647 0.500256
C79   C     C_R   0.752626 0.045897 0.695388 0.467412
C80   C     C_R   0.267388 0.046982 0.263288 0.494171
C81   C     C_R   0.486241 0.546711 0.254735 -0.127983
C82   C     C_R   0.451687 0.545745 0.697107 -0.129035
C83   C     C_R   0.993441 0.045065 0.263817 -0.131777
C84   C     C_R   0.952689 0.045958 0.697508 -0.101487
C85   C     C_R   0.246763 0.455092 0.694975 -0.224704
C86   C     C_R   0.768374 0.454086 0.276895 -0.233898
C87   C     C_R   0.745808 0.954507 0.696304 -0.240223
C88   C     C_R   0.270558 0.955220 0.270070 -0.219543
C89   C     C_R   0.348551 0.651109 0.909019 -0.129210
C90   C     C_R   0.687524 0.627047 0.089700 -0.142086
C91   C     C_R   0.812111 0.126770 0.906984 -0.140993
C92   C     C_R   0.142467 0.153965 0.087301 -0.031306
C93   C     C_R   0.402851 0.369123 0.087676 -0.089389
C94   C     C_R   0.556793 0.347094 0.910690 -0.110415
C95   C     C_R   0.943052 0.846439 0.088119 -0.131099
C96   C     C_R   0.096785 0.874446 0.907569 -0.101993
C97   C     C_R   0.311736 0.358627 0.995111 0.145952
C98   C     C_R   0.614632 0.314240 0.002778 0.138958
C99   C     C_R   0.883565 0.814093 0.995496 0.146639
C100  C     C_R   0.185293 0.859429 0.998588 0.139947
H1    H     H_    0.257321 0.370382 0.820571 0.181966
H2    H     H_    0.683257 0.336436 0.176695 0.177736
H3    H     H_    0.814332 0.837957 0.821890 0.177779
H4    H     H_    0.233151 0.855613 0.171470 0.160157
H5    H     H_    0.935352 0.639050 0.418754 0.232614
H6    H     H_    0.095467 0.594192 0.631674 0.199162
H7    H     H_    0.424232 0.127547 0.468739 0.240697
H8    H     H_    0.575472 0.062202 0.659051 0.213291
H9    H     H_    0.932933 0.590677 0.516104 0.230864
H10   H     H_    0.099112 0.641240 0.534232 0.239568
H11   H     H_    0.411094 0.060997 0.523335 0.195534
H12   H     H_    0.585980 0.127671 0.599421 0.238484
H13   H     H_    0.439227 0.747719 0.176403 0.154938
H14   H     H_    0.678455 0.670320 0.819523 0.155050
H15   H     H_    0.817277 0.169552 0.174214 0.150641
H16   H     H_    0.053457 0.247466 0.816218 0.156323
H17   H     H_    0.393751 0.589637 0.501643 0.119062
H18   H     H_    0.407943 0.589996 0.351731 0.114288
H19   H     H_    0.890807 0.088568 0.498181 0.117111
H20   H     H_    0.901129 0.087857 0.344648 0.105875
H21   H     H_    0.409155 0.411234 0.352584 0.149315
H22   H     H_    0.394720 0.410693 0.502023 0.115797
H23   H     H_    0.910529 0.909167 0.354240 0.113874
H24   H     H_    0.898015 0.909674 0.504989 0.113216
H25   H     H_    0.491070 0.666485 0.173454 0.095119
H26   H     H_    0.570355 0.628338 0.822493 0.100224
H27   H     H_    0.936041 0.146113 0.170576 0.095316
H28   H     H_    0.008765 0.164120 0.822164 0.098820
H29   H     H_    0.499433 0.413092 0.293053 0.094755
H30   H     H_    0.435743 0.411379 0.671662 0.092354
H31   H     H_    0.973308 0.910032 0.260886 0.094036
H32   H     H_    0.931676 0.911896 0.669895 0.086098
H33   H     H_    0.475320 0.589663 0.263217 0.097274
H34   H     H_    0.434354 0.588078 0.670019 0.106704
H35   H     H_    0.998161 0.086410 0.292430 0.088116
H36   H     H_    0.937088 0.088510 0.671232 0.100015
H37   H     H_    0.234362 0.412837 0.666758 0.127523
H38   H     H_    0.789430 0.411250 0.291177 0.132397
H39   H     H_    0.731287 0.912007 0.669271 0.133065
H40   H     H_    0.295146 0.913818 0.298326 0.145125
H41   H     H_    0.303575 0.663104 0.824607 0.178612
H42   H     H_    0.742284 0.636638 0.172649 0.192249
H43   H     H_    0.755908 0.130659 0.822069 0.183129
H44   H     H_    0.174055 0.169995 0.167742 0.182579
H45   H     H_    0.432588 0.354336 0.168886 0.145835
H46   H     H_    0.513644 0.334326 0.826431 0.169284
H47   H     H_    0.987143 0.832694 0.171730 0.173102
H48   H     H_    0.068396 0.869829 0.822513 0.168322
H49   H     H_    0.112705 0.417620 0.483768 0.139286
H50   H     H_    0.943014 0.416115 0.359624 0.140654
H51   H     H_    0.618950 0.924028 0.468516 0.141822
H52   H     H_    0.449318 0.924390 0.324553 0.194427
N1    N     N_R   0.394180 0.396910 0.943210 -0.055827
N2    N     N_R   0.605820 0.396910 0.056790 -0.052374
N3    N     N_R   0.894180 0.896910 0.943210 -0.053100
N4    N     N_R   0.105820 0.896910 0.056790 -0.051468
N5    N     N_R   0.450950 0.603070 0.056740 -0.042057
N6    N     N_R   0.549050 0.603070 0.943260 -0.044978
N7    N     N_R   0.950950 0.103070 0.056740 -0.044084
N8    N     N_R   0.049050 0.103070 0.943260 -0.048079
N9    N     N_R   0.525650 0.471570 0.206150 -0.042901
N10   N     N_R   0.474350 0.471570 0.793850 -0.038877
N11   N     N_R   0.025650 0.971570 0.206150 -0.040350
N12   N     N_R   0.974350 0.971570 0.793850 -0.040938
N13   N     N_R   0.319480 0.528420 0.793810 -0.098383
N14   N     N_R   0.680520 0.528420 0.206190 -0.102350
N15   N     N_R   0.819480 0.028420 0.793810 -0.099831
N16   N     N_R   0.180520 0.028420 0.206190 -0.102247
N17   N     N_R   0.525640 0.528390 0.206120 -0.045825
N18   N     N_R   0.474360 0.528390 0.793880 -0.046302
N19   N     N_R   0.025640 0.028390 0.206120 -0.045603
N20   N     N_R   0.974360 0.028390 0.793880 -0.044775
N21   N     N_R   0.319490 0.471590 0.793840 -0.059982
N22   N     N_R   0.680510 0.471590 0.206160 -0.060205
N23   N     N_R   0.819490 0.971590 0.793840 -0.056847
N24   N     N_R   0.180510 0.971590 0.206160 -0.062639
N25   N     N_R   0.394130 0.603080 0.943110 -0.062306
N26   N     N_R   0.605870 0.603080 0.056890 -0.062243
N27   N     N_R   0.894130 0.103080 0.943110 -0.065527
N28   N     N_R   0.105870 0.103080 0.056890 -0.060251
N29   N     N_R   0.450990 0.396900 0.056840 -0.055303
N30   N     N_R   0.549010 0.396900 0.943160 -0.054292
N31   N     N_R   0.950990 0.896900 0.056840 -0.054079
N32   N     N_R   0.049010 0.896900 0.943160 -0.057998
Ni1   Ni    Ni4+2 0.434860 0.434850 0.869700 0.217777
Ni2   Ni    Ni4+2 0.565140 0.434850 0.130300 0.221676
Ni3   Ni    Ni4+2 0.934860 0.934850 0.869700 0.214594
Ni4   Ni    Ni4+2 0.065140 0.934850 0.130300 0.223005
Ni5   Ni    Ni4+2 0.565130 0.565140 0.130240 0.206281
Ni6   Ni    Ni4+2 0.434870 0.565140 0.869760 0.219015
Ni7   Ni    Ni4+2 0.065130 0.065140 0.130240 0.210447
Ni8   Ni    Ni4+2 0.934870 0.065140 0.869760 0.209644
O1    O     O_3   0.305180 0.759844 0.814532 -0.778895
H53   H     H_    0.292879 0.793599 0.770737 0.335703
O2    O     O_3   0.881533 0.650826 0.186483 -0.777394
H54   H     H_    0.922316 0.675356 0.249715 0.317689
O3    O     O_3   0.622164 0.159506 0.804418 -0.792644
H55   H     H_    0.582242 0.185609 0.743728 0.321987
O4    O     O_3   0.182330 0.265556 0.175600 -0.785832
H56   H     H_    0.195431 0.300122 0.217377 0.332497
O5    O     O_3   0.506419 0.237358 0.820050 -0.775802
H57   H     H_    0.478474 0.203793 0.774520 0.336614
O6    O     O_3   0.304108 0.348361 0.182397 -0.786784
H58   H     H_    0.327016 0.323906 0.246142 0.317377
O7    O     O_3   0.188896 0.846426 0.806845 -0.768260
H59   H     H_    0.163835 0.821071 0.744014 0.323518
O8    O     O_3   0.991819 0.735677 0.175265 -0.775730
H60   H     H_    0.022024 0.701481 0.217654 0.336540
O9    O     O_3   0.727861 0.246490 0.202983 -0.780543
H61   H     H_    0.779101 0.223545 0.262475 0.319685
O10   O     O_3   0.123712 0.337719 0.793182 -0.778043
H62   H     H_    0.065972 0.319293 0.732484 0.322049
O11   O     O_3   0.374697 0.841373 0.196100 -0.799897
H63   H     H_    0.432054 0.822866 0.257201 0.313233
O12   O     O_3   0.765030 0.749627 0.792640 -0.785202
H64   H     H_    0.713906 0.726918 0.732446 0.320711
O13   O     O_3   0.261776 0.594787 0.652290 -0.784043
H65   H     H_    0.319472 0.613789 0.711154 0.308994
O14   O     O_3   0.778613 0.595293 0.338213 -0.806667
H66   H     H_    0.716597 0.613602 0.303019 0.304183
O15   O     O_3   0.753864 0.096338 0.653446 -0.784492
H67   H     H_    0.809272 0.117014 0.712580 0.301409
O16   O     O_3   0.292192 0.101167 0.288581 -0.788407
H68   H     H_    0.248299 0.116324 0.304452 0.292306

loop_
_geom_bond_atom_site_label_1
_geom_bond_atom_site_label_2
_ccdc_geom_bond_type
C34   O2    S    
C94   H46   S    
O6    H58   S    
C82   N18   A    
C55   C59   A    
C16   C80   A    
O5    H57   S    
C6    C58   S    
C19   C20   A    
C36   O4    S    
N17   Ni5   S    
C56   C60   A    
N12   Ni3   S    
N7    N27   A    
C90   N26   A    
N4    N32   A    
C34   C58   A    
C47   N7    A    
O11   H63   S    
N20   Ni8   S    
C3    H3    S    
N15   Ni8   S    
C12   C68   S    
N21   Ni1   S    
N9    Ni2   S    
N16   Ni7   S    
N1    Ni1   S    
C96   C100  A    
C30   H10   S    
C36   C60   A    
C34   C40   A    
C71   H23   S    
C35   C37   A    
C38   C42   A    
N6    Ni6   S    
C95   H47   S    
C6    C46   A    
C44   C99   S    
N3    N31   A    
C94   C98   A    
C95   C99   A    
N13   N21   A    
C46   N6    A    
N2    N30   A    
C65   C69   A    
C63   H19   S    
C12   C84   A    
C25   H49   S    
C41   C49   A    
C88   H40   S    
C73   N9    A    
C92   N28   A    
C93   N29   A    
C61   C66   A    
C33   C39   A    
N8    N28   A    
N27   Ni8   S    
C20   C24   A    
C45   H25   S    
C83   N19   A    
C17   C18   A    
C85   N21   A    
C93   H45   S    
C8    C92   A    
C89   N25   A    
C29   C30   S    
N11   N19   A    
C83   H35   S    
C61   C62   A    
N9    N17   A    
C44   C52   A    
C15   C23   S    
C40   O8    S    
C33   O1    S    
O4    H56   S    
C16   C24   S    
C72   H24   S    
C37   C41   A    
C17   C30   S    
C29   H5    S    
O3    H55   S    
C9    C73   A    
C96   N32   A    
C92   H44   S    
C19   C32   S    
N22   Ni2   S    
C7    C59   S    
C75   H31   S    
C79   O15   S    
C91   H43   S    
N4    Ni4   S    
C96   H48   S    
C35   C59   A    
C73   H29   S    
C78   N14   A    
N14   N22   A    
C61   H17   S    
O8    H60   S    
C64   C67   A    
N7    Ni7   S    
C26   H50   S    
C45   N5    A    
C43   C100  S    
C14   C86   A    
O16   H68   S    
O9    H61   S    
C42   C97   S    
C1    C97   A    
O14   H66   S    
C74   N10   A    
N26   Ni5   S    
C53   C57   A    
C39   C43   A    
C11   C83   A    
C25   C26   A    
O7    H59   S    
C5    C45   A    
C15   C79   A    
C10   C82   A    
C52   O12   S    
C50   C56   A    
C63   C64   A    
C91   N27   A    
N11   Ni4   S    
C86   N22   A    
N30   Ni1   S    
C7    C47   A    
C82   H34   S    
C19   C23   A    
O12   H64   S    
C8    C48   A    
O10   H62   S    
C37   O5    S    
O15   H67   S    
C30   H6    S    
C78   O14   S    
C48   H28   S    
C48   N8    A    
C70   H22   S    
C53   H13   S    
C31   C32   S    
N10   N18   A    
C69   H21   S    
C68   C72   A    
C7    C91   A    
C9    C65   S    
C3    N3    A    
N13   Ni6   S    
C56   H16   S    
C13   C21   S    
C18   C29   S    
N5    N25   A    
C1    N1    A    
N8    Ni8   S    
C90   H42   S    
C42   C50   A    
C75   N11   A    
C4    N4    A    
N1    N29   A    
C50   O10   S    
C28   H52   S    
C1    H1    S    
C23   C27   A    
C38   O6    S    
C4    C100  A    
C13   C77   A    
C32   H8    S    
C76   N12   A    
C11   C67   S    
C49   O9    S    
C74   H30   S    
C93   C97   A    
C35   O3    S    
N15   N23   A    
C51   O11   S    
C54   C58   A    
C85   H37   S    
C29   H9    S    
N16   N24   A    
N12   N20   A    
C21   C25   A    
C63   C68   A    
C84   H36   S    
N24   Ni4   S    
C31   H11   S    
N25   Ni6   S    
C32   H12   S    
C62   C65   A    
C27   H51   S    
C18   C22   A    
C31   H7    S    
C46   H26   S    
C24   C28   A    
C87   H39   S    
C84   N20   A    
N28   Ni7   S    
C64   H20   S    
C54   H14   S    
N10   Ni1   S    
N29   Ni2   S    
C10   C74   A    
C81   H33   S    
C33   C57   A    
C87   N23   A    
N18   Ni6   S    
C81   N17   A    
C88   N24   A    
N32   Ni3   S    
C5    C57   S    
N14   Ni5   S    
C79   N15   A    
C14   C22   S    
C12   C76   A    
N6    N26   A    
C10   C66   S    
C71   C72   A    
C11   C75   A    
N31   Ni4   S    
C8    C60   S    
C80   O16   S    
C76   H32   S    
C77   O13   S    
C66   C70   A    
C55   H15   S    
C47   H27   S    
C43   C51   A    
C89   H41   S    
C39   O7    S    
O13   H65   S    
C36   C38   A    
C52   C54   A    
C4    H4    S    
C67   C71   A    
C14   C78   A    
C49   C55   A    
C95   N31   A    
C69   C70   A    
N19   Ni7   S    
N5    Ni5   S    
C62   H18   S    
N2    Ni2   S    
C86   H38   S    
N23   Ni3   S    
O2    H54   S    
C3    C99   A    
C40   C44   A    
C6    C90   A    
C2    C98   A    
C2    N2    A    
O1    H53   S    
C22   C26   A    
C15   C87   A    
C13   C85   A    
C27   C28   A    
C16   C88   A    
C2    H2    S    
C41   C98   S    
N3    Ni3   S    
C94   N30   A    
C51   C53   A    
C77   N13   A    
C80   N16   A    
C5    C89   A    
C9    C81   A    
C20   C31   S    
C17   C21   A    
