data_mof_unit_14686.cif
_audit_creation_date              2012-12-10T17:15:54-0500
_audit_creation_method            fapswitch 2.2
_symmetry_space_group_name_H-M    P1
_symmetry_Int_Tables_number       1
_space_group_crystal_system       triclinic
_cell_length_a                    10.126008
_cell_length_b                    10.739673
_cell_length_c                    10.689179
_cell_angle_alpha                 90.123717
_cell_angle_beta                  94.85801
_cell_angle_gamma                 81.09384
_cell_volume                      1144.23657965

loop_
_atom_site_label
_atom_site_type_symbol
_atom_type_description
_atom_site_fract_x
_atom_site_fract_y
_atom_site_fract_z
_atom_type_partial_charge
C1    C     C_R   0.443806 0.508269 0.265993 0.921703
C2    C     C_2   0.489612 0.428226 0.931341 -0.176100
C3    C     C_2   0.072049 0.496165 0.481162 -0.090546
C4    C     C_R   0.503399 0.259396 0.509714 0.874213
C5    C     C_2   0.921202 0.528929 0.480481 -0.184430
C6    C     C_R   0.555707 0.486354 0.733578 0.934684
C7    C     C_R   0.497766 0.740031 0.488363 0.872687
C8    C     C_R   0.760070 0.074091 0.514184 -0.151814
C9    C     C_R   0.868492 0.999272 0.465394 -0.164470
C10   C     C_R   0.848344 0.891698 0.398710 -0.175491
C11   C     C_R   0.723112 0.852410 0.392294 -0.167235
C12   C     C_R   0.629028 0.041765 0.496292 0.107818
C13   C     C_R   0.616075 0.921105 0.453114 0.106081
C14   C     C_3   0.287127 0.582261 0.063679 -0.427401
C15   C     C_3   0.199027 0.671227 0.145676 -0.850302
C16   C     C_3   0.104078 0.660179 0.625167 -0.201761
C17   C     C_3   0.197496 0.682411 0.738959 -0.808698
C18   C     C_R   0.509544 0.124755 0.517638 -0.129583
C19   C     C_R   0.388487 0.079268 0.524936 -0.218499
C20   C     C_R   0.383735 0.953558 0.508747 -0.224817
C21   C     C_R   0.497405 0.873402 0.475726 -0.133825
C22   C     C_2   0.411336 0.503218 0.130888 -0.002051
C23   C     C_2   0.502619 0.430788 0.066595 -0.226856
C24   C     C_2   0.586214 0.461044 0.866807 -0.368654
H1    H     H_    0.296980 0.140657 0.543569 0.166889
H2    H     H_    0.392916 0.415216 0.885249 0.180695
H3    H     H_    0.594653 0.379632 0.113335 0.178561
H4    H     H_    0.683300 0.473413 0.912517 0.158013
H5    H     H_    0.145381 0.617119 0.207699 0.273138
H6    H     H_    0.260000 0.732007 0.202394 0.255634
H7    H     H_    0.122068 0.733226 0.084472 0.238160
H8    H     H_    0.321803 0.642167 0.992503 0.228522
H9    H     H_    0.223689 0.518437 0.014682 0.209827
H10   H     H_    0.224969 0.593804 0.794287 0.250008
H11   H     H_    0.287581 0.718745 0.712391 0.284174
H12   H     H_    0.875024 0.620651 0.509919 0.179061
H13   H     H_    0.144514 0.754525 0.799513 0.207021
H14   H     H_    0.083194 0.746240 0.564772 0.169093
H15   H     H_    0.011136 0.644907 0.667047 0.166171
H16   H     H_    0.111795 0.420083 0.421377 0.142915
H17   H     H_    0.888352 0.360573 0.423844 0.164260
H18   H     H_    0.781398 0.154803 0.568280 0.157512
H19   H     H_    0.967410 0.026360 0.476946 0.128502
H20   H     H_    0.930597 0.836578 0.355180 0.138009
H21   H     H_    0.710992 0.769188 0.338136 0.161946
H22   H     H_    0.290884 0.919292 0.523108 0.167473
N1    N     N_2   0.157290 0.551390 0.551110 -0.046988
N2    N     N_2   0.842740 0.448550 0.448960 -0.197628
O1    O     O_R   0.568950 0.489660 0.307530 -0.625229
O2    O     O_R   0.348880 0.522640 0.340350 -0.603574
O3    O     O_R   0.610060 0.300270 0.483590 -0.626890
O4    O     O_R   0.389990 0.333260 0.516410 -0.621077
O5    O     O_R   0.651120 0.477360 0.659650 -0.604587
O6    O     O_R   0.431050 0.510340 0.692470 -0.607081
O7    O     O_R   0.610010 0.666740 0.483590 -0.625167
O8    O     O_R   0.389940 0.699730 0.516410 -0.618644
Zn1   Zn    Zn3+2 0.646940 0.477980 0.478090 0.924781
Zn2   Zn    Zn3+2 0.353060 0.522020 0.521910 0.931846

loop_
_geom_bond_atom_site_label_1
_geom_bond_atom_site_label_2
_ccdc_geom_bond_type
C15   H7    S    
O3    Zn1   S    
C23   H3    S    
C9    C10   A    
C19   C20   A    
C7    O7    A    
C8    C12   A    
C6    C24   S    
C14   C22   S    
C14   H9    S    
O6    Zn2   S    
C13   C21   A    
N2    Zn1   S    
C2    H2    S    
C14   H8    S    
C17   H13   S    
C20   C21   A    
N1    Zn2   S    
C7    C21   S    
C11   C13   A    
C17   H10   S    
O4    Zn2   S    
C7    O8    A    
C6    O6    A    
C4    O3    A    
C16   N1    S    
C3    N1    D    
H17   N2    S    
C8    H18   S    
C3    H16   S    
C15   H5    S    
C4    O4    A    
O7    Zn1   S    
C2    C24   D    
C19   H1    S    
C5    N2    D    
C6    O5    A    
C9    H19   S    
C11   H21   S    
C10   C11   A    
C16   H15   S    
C10   H20   S    
O2    Zn2   S    
C5    H12   S    
C1    C22   S    
O1    Zn1   S    
C12   C13   A    
C15   H6    S    
C18   C19   A    
C1    O2    A    
C12   C18   A    
C2    C23   S    
O5    Zn1   S    
C22   C23   D    
C8    C9    A    
C17   H11   S    
C16   H14   S    
C14   C15   S    
C1    O1    A    
C4    C18   S    
C20   H22   S    
C24   H4    S    
O8    Zn2   S    
C16   C17   S    
C3    C5    S    
