data_mof_unit_53845.cif
_audit_creation_date              2013-03-05T16:48:16-0500
_audit_creation_method            fapswitch 2.2
_symmetry_space_group_name_H-M    P1
_symmetry_Int_Tables_number       1
_space_group_crystal_system       triclinic
_cell_length_a                    23.461065
_cell_length_b                    8.923886
_cell_length_c                    8.09124
_cell_angle_alpha                 89.862044
_cell_angle_beta                  90.10563
_cell_angle_gamma                 90.105985
_cell_volume                      1694.00264182

loop_
_atom_site_label
_atom_site_type_symbol
_atom_site_description
_atom_site_fract_x
_atom_site_fract_y
_atom_site_fract_z
_atom_type_partial_charge
O1    O     O_R   0.500000 0.285350 0.636850 -0.614663
O2    O     O_R   0.500000 0.714650 0.363150 -0.618236
O3    O     O_R   0.500000 0.714650 0.636850 -0.613868
O4    O     O_R   0.500000 0.285350 0.363150 -0.621504
C1    C     C_R   0.500039 0.217953 0.500121 0.928545
C2    C     C_R   0.500039 0.782050 0.499870 0.935734
O5    O     O_R   0.416160 0.500000 0.636910 -0.599067
O6    O     O_R   0.583840 0.500000 0.363090 -0.636993
O7    O     O_R   0.583840 0.500000 0.636910 -0.600848
O8    O     O_R   0.416160 0.500000 0.363090 -0.602321
C3    C     C_R   0.206705 0.504442 0.482327 0.076828
C4    C     C_R   0.791584 0.457304 0.496295 0.060752
C5    C     C_R   0.388755 0.503252 0.499659 0.941804
C6    C     C_R   0.610945 0.496360 0.499905 0.939315
Zn1   Zn    Zn3+2 0.500000 0.500000 0.682780 1.008160
Zn2   Zn    Zn3+2 0.500000 0.500000 0.317220 0.992147
C7    C     C_R   0.297472 0.555942 0.350347 -0.063815
C8    C     C_R   0.699850 0.386120 0.383038 -0.092804
C9    C     C_R   0.294033 0.472190 0.638984 0.018079
C10   C     C_R   0.705677 0.559304 0.617473 0.023092
C11   C     C_R   0.325961 0.510372 0.496866 -0.202335
C12   C     C_R   0.673020 0.481390 0.499228 -0.201961
C13   C     C_R   0.877359 0.580653 0.409666 0.622941
C14   C     C_R   0.121095 0.354475 0.493460 0.612823
C15   C     C_R   0.882303 0.335648 0.528084 0.623885
C16   C     C_R   0.115166 0.614583 0.426713 0.627767
N1    N     N_R   0.852114 0.458315 0.479420 -0.353042
N2    N     N_R   0.146072 0.490986 0.468859 -0.353227
C17   C     C_R   0.941421 0.329441 0.501088 -0.151148
C18   C     C_R   0.056472 0.602226 0.397010 -0.160233
C19   C     C_R   0.936905 0.587194 0.394077 -0.120348
C20   C     C_R   0.061360 0.340600 0.489921 -0.130089
C21   C     C_R   0.969096 0.460765 0.444231 -0.138907
C22   C     C_R   0.028950 0.467245 0.442135 -0.137996
C23   C     C_R   0.973699 0.198453 0.534429 0.334801
C24   C     C_R   0.024538 0.721917 0.328618 0.337827
C25   C     C_R   0.964601 0.715477 0.329415 0.474187
C26   C     C_R   0.033725 0.204788 0.532305 0.483396
C27   C     C_1   0.500075 0.065201 0.500162 -0.183032
C28   C     C_1   0.500071 0.934806 0.499803 -0.181781
C29   C     C_R   0.237971 0.538141 0.339743 0.450185
C30   C     C_R   0.759579 0.376322 0.380742 0.509906
C31   C     C_R   0.234480 0.477603 0.634383 0.398022
C32   C     C_R   0.765016 0.545875 0.618142 0.404879
N3    N     N_1   0.500000 0.500000 0.073640 -0.029344
N4    N     N_1   0.500000 0.500000 0.926360 -0.026783
O9    O     O_2   0.844465 0.695934 0.358908 -0.443341
O10   O     O_2   0.154333 0.234162 0.523530 -0.428923
O11   O     O_2   0.854975 0.223162 0.606863 -0.484928
O12   O     O_2   0.141310 0.749307 0.418682 -0.464692
O13   O     O_3   0.947935 0.062446 0.566514 -0.715479
H1    H     H_    0.916808 0.049589 0.484849 0.403275
O14   O     O_3   0.050619 0.843818 0.255404 -0.709913
H2    H     H_    0.082554 0.805683 0.187434 0.385777
O15   O     O_3   0.932235 0.831269 0.264455 -0.678967
H3    H     H_    0.956867 0.914766 0.227078 0.382770
O16   O     O_3   0.066254 0.079999 0.570912 -0.636772
H4    H     H_    0.041696 0.994327 0.602196 0.388988
O17   O     O_3   0.208822 0.551771 0.192066 -0.724775
H5    H     H_    0.234011 0.517070 0.101905 0.360636
O18   O     O_3   0.788808 0.291611 0.265582 -0.714716
H6    H     H_    0.761921 0.244991 0.186636 0.373029
O19   O     O_3   0.204968 0.451160 0.779327 -0.740046
H7    H     H_    0.164986 0.484370 0.766229 0.350665
O20   O     O_3   0.795525 0.623438 0.736892 -0.713887
H8    H     H_    0.835925 0.591888 0.734911 0.353012
N5    N     N_3   0.328794 0.625867 0.217336 -0.414875
H9    H     H_    0.351609 0.715581 0.268015 0.200570
H10   H     H_    0.301433 0.678001 0.133195 0.204278
N6    N     N_3   0.667339 0.295813 0.270126 -0.448984
H11   H     H_    0.647712 0.365173 0.182899 0.227497
H12   H     H_    0.636532 0.235384 0.335723 0.202607
N7    N     N_3   0.322053 0.428460 0.789273 -0.394504
H13   H     H_    0.307388 0.322030 0.823146 0.233095
H14   H     H_    0.310685 0.504009 0.881941 0.216668
N8    N     N_3   0.678364 0.655314 0.735207 -0.409349
H15   H     H_    0.694573 0.763755 0.720535 0.237201
H16   H     H_    0.688838 0.617883 0.853992 0.233351

loop_
_geom_bond_atom_site_label_1
_geom_bond_atom_site_label_2
_geom_bond_distance
_ccdc_geom_bond_type
C8    N6    1.436875 S    
O15   H3    0.989227 S    
N7    H13   1.045675 S    
O3    C2    1.259745 A    
C31   O19   1.382585 S    
N3    N4    1.191677 T    
O1    C1    1.260501 A    
C24   C25   1.407275 A    
C9    C11   1.414158 A    
N8    H16   1.045746 S    
C16   O12   1.350148 S    
C17   C21   1.415017 A    
C10   N8    1.435391 S    
C4    C30   1.399603 A    
C24   O14   1.380030 S    
C19   C21   1.416960 A    
C3    C31   1.411342 A    
N6    H11   1.044525 S    
O1    Zn1   1.952108 S    
C20   C26   1.415182 A    
O2    Zn2   1.952107 S    
O5    Zn1   2.001015 S    
O17   H5    0.990283 S    
O6    Zn2   2.001012 S    
N7    H14   1.044836 S    
C32   O20   1.383285 S    
O2    C2    1.260446 A    
N5    H9    1.046327 S    
C10   C32   1.397523 A    
C9    C31   1.398527 A    
C7    C29   1.407157 A    
C15   C17   1.405674 A    
C7    N5    1.444174 S    
C13   O9    1.349929 S    
C18   C22   1.413179 A    
C4    N1    1.426924 S    
O13   H1    0.990638 S    
C14   O10   1.349505 S    
C9    N7    1.434874 S    
C23   C26   1.409455 A    
N8    H15   1.045667 S    
C29   O17   1.380879 S    
C27   C28   1.163647 T    
O14   H2    0.991438 S    
C7    C11   1.418918 A    
C19   C25   1.414960 A    
N5    H10   1.044014 S    
C13   C19   1.404033 A    
O4    Zn2   1.950351 S    
O7    C6    1.279505 A    
C14   C20   1.406918 A    
C26   O16   1.385895 S    
C21   C22   1.405465 A    
C5    C11   1.474823 S    
C30   O18   1.384771 S    
C10   C12   1.408667 A    
C16   C18   1.401587 A    
C13   N1    1.362734 A    
C1    C27   1.363136 S    
C23   O13   1.379199 S    
C2    C28   1.363176 S    
O3    Zn1   1.950350 S    
O6    C6    1.276005 A    
C8    C12   1.418050 A    
C14   N2    1.365162 A    
O4    C1    1.259674 A    
O8    C5    1.279900 A    
Zn2   N3    1.970864 S    
C15   N1    1.361894 A    
C17   C23   1.419013 A    
C16   N2    1.363391 A    
C18   C24   1.416674 A    
C6    C12   1.462746 S    
C8    C30   1.404334 A    
O7    Zn1   2.002357 S    
C4    C32   1.411761 A    
O8    Zn2   2.002360 S    
O16   H4    0.989192 S    
C3    N2    1.431314 S    
C3    C29   1.400040 A    
O18   H6    0.988850 S    
C15   O11   1.349471 S    
O19   H7    0.989658 S    
C25   O15   1.385434 S    
O5    C5    1.282493 A    
O20   H8    0.989427 S    
N6    H12   1.045707 S    
Zn1   N4    1.970864 S    
C20   C22   1.415952 A    
