data_mof_unit_32471.cif
_audit_creation_date              2012-12-10T18:24:44-0500
_audit_creation_method            fapswitch 2.2
_symmetry_space_group_name_H-M    P1
_symmetry_Int_Tables_number       1
_space_group_crystal_system       triclinic
_cell_length_a                    14.164132
_cell_length_b                    14.896874
_cell_length_c                    16.595282
_cell_angle_alpha                 88.231303
_cell_angle_beta                  85.922975
_cell_angle_gamma                 91.95794
_cell_volume                      3488.77809957

loop_
_atom_site_label
_atom_site_type_symbol
_atom_type_description
_atom_site_fract_x
_atom_site_fract_y
_atom_site_fract_z
_atom_type_partial_charge
C1    C     C_R   0.501151 0.672927 0.501720 0.958283
C2    C     C_R   0.498538 0.326979 0.501024 0.928233
C3    C     C_R   0.520135 0.186173 0.572440 -0.126256
C4    C     C_R   0.457542 0.813723 0.444964 -0.126798
C5    C     C_R   0.494318 0.231040 0.503480 -0.144045
C6    C     C_R   0.501798 0.768664 0.504961 -0.161840
C7    C     C_R   0.461371 0.185370 0.438783 0.429555
C8    C     C_R   0.535054 0.812714 0.570991 0.416715
C9    C     C_R   0.444611 0.092513 0.446330 -0.093607
C10   C     C_R   0.517808 0.904609 0.579015 -0.137424
C11   C     C_R   0.480816 0.045562 0.512428 -0.047465
C12   C     C_R   0.482637 0.952146 0.512470 -0.037760
C13   C     C_R   0.518507 0.092480 0.576734 -0.027375
C14   C     C_R   0.451699 0.906347 0.444784 -0.031829
C15   C     C_R   0.396305 0.045279 0.388292 0.338699
C16   C     C_R   0.535677 0.950892 0.650087 0.275629
C17   C     C_R   0.411489 0.953251 0.380724 0.294892
C18   C     C_R   0.549371 0.045003 0.644779 0.321891
C19   C     C_R   0.196248 0.436816 0.547307 0.515660
C20   C     C_R   0.804887 0.566175 0.456905 0.519432
C21   C     C_R   0.207473 0.564928 0.457700 0.485485
C22   C     C_R   0.792560 0.434226 0.541806 0.499493
C23   C     C_R   0.487960 0.507946 0.653321 1.002328
C24   C     C_R   0.511274 0.492807 0.346226 1.022367
C25   C     C_R   0.107556 0.570999 0.464109 -0.179756
C26   C     C_R   0.893064 0.429616 0.538246 -0.172473
C27   C     C_R   0.050784 0.500835 0.503456 -0.050889
C28   C     C_R   0.949926 0.500207 0.499506 -0.052729
C29   C     C_R   0.094405 0.434338 0.550029 -0.187261
C30   C     C_R   0.906607 0.568001 0.454233 -0.191753
C31   C     C_R   0.062830 0.644459 0.430740 0.366841
C32   C     C_R   0.938521 0.357789 0.574564 0.364500
C33   C     C_R   0.967650 0.636825 0.413057 0.364307
C34   C     C_R   0.033494 0.367301 0.593331 0.364661
C35   C     C_R   0.482410 0.519412 0.741656 -0.378903
C36   C     C_R   0.511004 0.459205 0.262237 -0.382609
C37   C     C_R   0.565166 0.516955 0.784748 0.360994
C38   C     C_R   0.426449 0.416700 0.235804 0.365759
C39   C     C_R   0.556777 0.498619 0.867889 0.328619
C40   C     C_R   0.427809 0.377912 0.160222 0.349514
C41   C     C_R   0.466678 0.480153 0.907224 -0.196484
C42   C     C_R   0.511549 0.379354 0.110597 -0.176152
C43   C     C_R   0.385072 0.499670 0.867459 0.315844
C44   C     C_R   0.596880 0.408320 0.140137 0.351608
C45   C     C_R   0.393960 0.527702 0.785638 0.333315
C46   C     C_R   0.595766 0.457751 0.210992 0.282754
C47   C     C_2   0.457472 0.452467 0.992771 -0.016969
C48   C     C_2   0.505129 0.384170 0.022833 0.013659
H1    H     H_    0.551296 0.345017 0.983617 0.224536
H2    H     H_    0.413929 0.493041 0.033010 0.204310
H3    H     H_    0.541080 0.226036 0.621911 0.222550
H4    H     H_    0.427806 0.774480 0.398689 0.239701
N1    N     N_R   0.249970 0.499930 0.499970 -0.179461
N2    N     N_R   0.750030 0.500070 0.500030 -0.185797
O1    O     O_R   0.419720 0.632140 0.499990 -0.599523
O2    O     O_R   0.580280 0.367860 0.500010 -0.590255
O3    O     O_R   0.580270 0.632160 0.499980 -0.545196
O4    O     O_R   0.419730 0.367840 0.500020 -0.553606
O5    O     O_R   0.410240 0.500000 0.615800 -0.557079
O6    O     O_R   0.589760 0.500000 0.384200 -0.554752
O7    O     O_R   0.570790 0.500020 0.615800 -0.555043
O8    O     O_R   0.429210 0.499980 0.384200 -0.548964
Zn1   Zn    Zn3+2 0.392800 0.499980 0.500010 1.124116
Zn2   Zn    Zn3+2 0.607200 0.500020 0.499990 1.141322
Cl1   Cl    Cl    0.679667 0.544902 0.738606 -0.333788
Cl2   Cl    Cl    0.315229 0.409345 0.293177 -0.393320
Cl3   Cl    Cl    0.257979 0.353849 0.596384 -0.429935
Cl4   Cl    Cl    0.746557 0.657034 0.417110 -0.373542
Cl5   Cl    Cl    0.277806 0.629006 0.383449 -0.421378
Cl6   Cl    Cl    0.720965 0.367884 0.613383 -0.407145
Cl7   Cl    Cl    0.117944 0.753548 0.427880 -0.359753
Cl8   Cl    Cl    0.885973 0.247673 0.579857 -0.339985
S1    S     S_3+6 0.939756 0.704697 0.327815 0.170845
O9    O     O_2   0.895306 0.789434 0.356210 -0.166795
O10   O     O_2   0.028516 0.729886 0.275685 -0.172366
O11   O     O_3   0.866899 0.648702 0.270185 -0.456342
H5    H     H_    0.853588 0.692464 0.226642 0.421380
S2    S     S_3+6 0.062126 0.303500 0.680895 0.172451
O12   O     O_2   0.973257 0.277156 0.732422 -0.167004
O13   O     O_2   0.109958 0.219375 0.655227 -0.185165
O14   O     O_3   0.132153 0.363755 0.738291 -0.436085
H6    H     H_    0.149679 0.320979 0.781139 0.414088
S3    S     S_3+6 0.694879 0.529294 0.226427 0.142915
O15   O     O_2   0.661099 0.615240 0.261580 -0.200909
O16   O     O_2   0.756063 0.482801 0.284025 -0.253043
O17   O     O_3   0.758746 0.556239 0.138985 -0.426578
H7    H     H_    0.823448 0.535764 0.146451 0.418695
S4    S     S_3+6 0.301542 0.588607 0.744351 0.146628
O18   O     O_2   0.229411 0.524068 0.714505 -0.218159
O19   O     O_2   0.254247 0.644747 0.808100 -0.161005
O20   O     O_3   0.344963 0.657523 0.667382 -0.540991
H8    H     H_    0.288571 0.680177 0.642358 0.381174
Cl9   Cl    Cl    0.271766 0.485754 0.919626 -0.358099
Cl10  Cl    Cl    0.704192 0.381393 0.086828 -0.367933
Cl11  Cl    Cl    0.323317 0.328723 0.124875 -0.338912
Cl12  Cl    Cl    0.659280 0.504919 0.922828 -0.349339
Cl13  Cl    Cl    0.465083 0.242032 0.343630 -0.527861
Cl14  Cl    Cl    0.607062 0.753561 0.636004 -0.395900
S5    S     S_3+6 0.295631 0.093211 0.346888 0.175514
O21   O     O_2   0.321833 0.133596 0.263846 -0.131976
O22   O     O_2   0.218523 0.022198 0.341705 -0.168896
O23   O     O_3   0.254166 0.174045 0.407125 -0.490777
H9    H     H_    0.206012 0.204062 0.376414 0.415294
S6    S     S_3+6 0.506349 0.897778 0.747103 0.172106
O24   O     O_2   0.593396 0.862242 0.781774 -0.094894
O25   O     O_2   0.462817 0.963544 0.804414 -0.195668
O26   O     O_3   0.427900 0.811788 0.739433 -0.453858
H10   H     H_    0.371394 0.839591 0.718872 0.367947
S7    S     S_3+6 0.387447 0.899301 0.289116 0.136008
O27   O     O_2   0.467567 0.840024 0.264290 -0.249854
O28   O     O_2   0.297580 0.842705 0.303231 -0.164672
O29   O     O_3   0.376089 0.973822 0.212678 -0.432702
H11   H     H_    0.356115 0.937412 0.167500 0.415049
S8    S     S_3+6 0.610219 0.102167 0.720077 0.131450
O30   O     O_2   0.683586 0.166934 0.679471 -0.193392
O31   O     O_2   0.540168 0.153434 0.771214 -0.252423
O32   O     O_3   0.666076 0.031299 0.779661 -0.423377
H12   H     H_    0.692604 0.069543 0.820943 0.414755

loop_
_geom_bond_atom_site_label_1
_geom_bond_atom_site_label_2
_ccdc_geom_bond_type
C25   C31   A    
C21   N1    A    
C26   C32   A    
C27   C29   A    
N1    Zn1   S    
S1    O10   D    
S1    O9    D    
S4    O19   D    
C18   S8    S    
S6    O25   D    
S8    O30   D    
C39   C41   A    
C20   C30   A    
C23   O5    A    
C24   C36   S    
C13   C18   A    
C4    H4    S    
C35   C37   A    
S7    O28   D    
S2    O13   D    
C7    C9    A    
C8    Cl14  S    
S6    O24   D    
C16   S6    S    
C47   C48   D    
C37   Cl1   S    
O26   H10   S    
O2    Zn2   S    
C36   C46   A    
C3    C13   A    
C19   N1    A    
C31   Cl7   S    
C4    C14   A    
C41   C43   A    
C14   C17   A    
C42   C44   A    
O29   H11   S    
C44   C46   A    
O14   H6    S    
C47   H2    S    
C1    C6    S    
C38   Cl2   S    
C45   S4    S    
O11   H5    S    
C20   N2    A    
S7    O29   S    
O20   H8    S    
C5    C7    A    
C3    H3    S    
S2    O12   D    
C6    C8    A    
C29   C34   A    
O1    Zn1   S    
C32   C34   A    
O7    Zn2   S    
O8    Zn1   S    
C1    O3    A    
C43   C45   A    
S3    O15   D    
S4    O20   S    
C24   O6    A    
S5    O23   S    
C31   C33   A    
C41   C47   S    
C16   C18   A    
C42   C48   S    
C19   Cl3   S    
C9    C11   A    
C10   C12   A    
C4    C6    A    
C48   H1    S    
S3    O16   D    
C12   C14   A    
C23   C35   S    
C22   N2    A    
S1    O11   S    
C2    C5    S    
C40   Cl11  S    
C19   C29   A    
O3    Zn2   S    
C33   S1    S    
O4    Zn1   S    
C15   C17   A    
C21   C25   A    
C24   O8    A    
C7    Cl13  S    
C30   C33   A    
S5    O22   D    
O17   H7    S    
C26   C28   A    
C20   Cl4   S    
C15   S5    S    
C40   C42   A    
C3    C5    A    
C17   S7    S    
S8    O31   D    
C11   C12   A    
C2    O4    A    
C25   C27   A    
O5    Zn1   S    
S5    O21   D    
O6    Zn2   S    
C36   C38   A    
C9    C15   A    
C37   C39   A    
C2    O2    A    
O32   H12   S    
C34   S2    S    
C38   C40   A    
C11   C13   A    
S2    O14   S    
N2    Zn2   S    
C28   C30   A    
C43   Cl9   S    
C1    O1    A    
O23   H9    S    
C39   Cl12  S    
S8    O32   S    
C44   Cl10  S    
C46   S3    S    
C23   O7    A    
S3    O17   S    
S4    O18   D    
C8    C10   A    
C22   C26   A    
C21   Cl5   S    
C27   C28   A    
C10   C16   A    
S7    O27   D    
C22   Cl6   S    
S6    O26   S    
C32   Cl8   S    
C35   C45   A    
