data_mof_unit_18859.cif
_audit_creation_date              2013-03-05T15:51:25-0500
_audit_creation_method            fapswitch 2.2
_symmetry_space_group_name_H-M    P1
_symmetry_Int_Tables_number       1
_space_group_crystal_system       triclinic
_cell_length_a                    22.37357
_cell_length_b                    30.585351
_cell_length_c                    18.674446
_cell_angle_alpha                 89.674272
_cell_angle_beta                  126.494577
_cell_angle_gamma                 90.224991
_cell_volume                      10273.0286846

loop_
_atom_site_label
_atom_site_type_symbol
_atom_site_description
_atom_site_fract_x
_atom_site_fract_y
_atom_site_fract_z
_atom_type_partial_charge
C1    C     C_R   0.954603 0.620615 0.072624 -0.168284
C2    C     C_R   0.041609 0.378788 0.926301 -0.137221
C3    C     C_R   0.065847 0.606386 0.922689 -0.148056
C4    C     C_R   0.950347 0.380734 0.073040 -0.163162
C5    C     C_R   0.442169 0.114609 0.073953 -0.139821
C6    C     C_R   0.572772 0.898538 0.925671 -0.157589
C7    C     C_R   0.572948 0.101014 0.925078 -0.147646
C8    C     C_R   0.457160 0.879850 0.075652 -0.173247
H1    H     H_    0.989900 0.632060 0.140401 0.114445
H2    H     H_    0.005356 0.370061 0.857497 0.109192
H3    H     H_    0.043249 0.609165 0.853415 0.118008
H4    H     H_    0.985848 0.367732 0.140068 0.109180
H5    H     H_    0.470690 0.125166 0.141834 0.099285
H6    H     H_    0.548781 0.892735 0.856745 0.115622
H7    H     H_    0.547737 0.107112 0.856062 0.106231
H8    H     H_    0.498037 0.868436 0.142658 0.113781
N1    N     N_R   0.963040 0.582050 0.045950 -0.039703
N2    N     N_R   0.036960 0.417950 0.954050 -0.040161
N3    N     N_R   0.036960 0.582050 0.954050 -0.039736
N4    N     N_R   0.963040 0.417950 0.045950 -0.037586
N5    N     N_R   0.463040 0.082050 0.045950 -0.039175
N6    N     N_R   0.536960 0.917950 0.954050 -0.039495
N7    N     N_R   0.536960 0.082050 0.954050 -0.042479
N8    N     N_R   0.463040 0.917950 0.045950 -0.038054
C9    C     C_R   0.874985 0.382511 0.924610 -0.156819
C10   C     C_R   0.137227 0.610647 0.071087 -0.157536
C11   C     C_R   0.111571 0.378257 0.073595 -0.141615
C12   C     C_R   0.881282 0.619872 0.924536 -0.139095
C13   C     C_R   0.381939 0.879369 0.928363 -0.140152
C14   C     C_R   0.647846 0.098947 0.073707 -0.133041
C15   C     C_R   0.647439 0.900301 0.074505 -0.134841
C16   C     C_R   0.367762 0.114085 0.925718 -0.150047
H9    H     H_    0.841311 0.371708 0.856180 0.105715
H10   H     H_    0.178415 0.621909 0.137955 0.099052
H11   H     H_    0.137535 0.367623 0.141282 0.087777
H12   H     H_    0.850207 0.630983 0.856152 0.098795
H13   H     H_    0.350314 0.867385 0.860813 0.092492
H14   H     H_    0.695410 0.100986 0.142499 0.099100
H15   H     H_    0.694765 0.897761 0.143467 0.103030
H16   H     H_    0.327943 0.124563 0.857652 0.098815
N9    N     N_R   0.917940 0.418000 0.954160 -0.034383
N10   N     N_R   0.082060 0.582000 0.045840 -0.036499
N11   N     N_R   0.082060 0.418000 0.045840 -0.039208
N12   N     N_R   0.917940 0.582000 0.954160 -0.038988
N13   N     N_R   0.417940 0.918000 0.954160 -0.038259
N14   N     N_R   0.582060 0.082000 0.045840 -0.041818
N15   N     N_R   0.582060 0.918000 0.045840 -0.040517
N16   N     N_R   0.417940 0.082000 0.954160 -0.037756
C17   C     C_R   0.797368 0.536956 0.759211 -0.130459
C18   C     C_R   0.210534 0.462548 0.204297 -0.125007
C19   C     C_R   0.212733 0.535549 0.209082 -0.123703
C20   C     C_R   0.797071 0.464095 0.757599 -0.128627
C21   C     C_R   0.287560 0.035609 0.793002 -0.129973
C22   C     C_R   0.701750 0.964035 0.243872 -0.135417
C23   C     C_R   0.701275 0.036572 0.242537 -0.146589
C24   C     C_R   0.289380 0.962581 0.795657 -0.127220
H17   H     H_    0.789555 0.570458 0.736416 0.088730
H18   H     H_    0.225413 0.428545 0.209377 0.098575
H19   H     H_    0.232654 0.568598 0.226307 0.090370
H20   H     H_    0.787749 0.430841 0.733788 0.087316
H21   H     H_    0.268015 0.068784 0.778527 0.090897
H22   H     H_    0.710335 0.930793 0.268102 0.087780
H23   H     H_    0.708066 0.069746 0.266046 0.093800
H24   H     H_    0.274065 0.928592 0.789312 0.096308
N17   N     N_R   0.858490 0.522630 0.835610 -0.037493
N18   N     N_R   0.141510 0.477370 0.164390 -0.040264
N19   N     N_R   0.141510 0.522630 0.164390 -0.038114
N20   N     N_R   0.858490 0.477370 0.835610 -0.037357
N21   N     N_R   0.358490 0.022630 0.835610 -0.037327
N22   N     N_R   0.641510 0.977370 0.164390 -0.038505
N23   N     N_R   0.641510 0.022630 0.164390 -0.037698
N24   N     N_R   0.358490 0.977370 0.835610 -0.038068
C25   C     C_R   0.987582 0.463476 0.198941 -0.122971
C26   C     C_R   0.957997 0.536321 0.756165 -0.137360
C27   C     C_R   0.959064 0.463699 0.756909 -0.120237
C28   C     C_R   0.987722 0.536467 0.198669 -0.119609
C29   C     C_R   0.490123 0.962927 0.201518 -0.129655
C30   C     C_R   0.456503 0.036381 0.755562 -0.131509
C31   C     C_R   0.456551 0.963884 0.755791 -0.147416
C32   C     C_R   0.493013 0.035816 0.205416 -0.119176
H25   H     H_    0.978594 0.429664 0.206299 0.098472
H26   H     H_    0.941629 0.569614 0.733290 0.087193
H27   H     H_    0.944777 0.430150 0.735379 0.083908
H28   H     H_    0.978810 0.570315 0.205226 0.097712
H29   H     H_    0.480691 0.929000 0.207571 0.092506
H30   H     H_    0.440677 0.069778 0.733187 0.087935
H31   H     H_    0.441002 0.930470 0.733942 0.094755
H32   H     H_    0.489565 0.069135 0.219962 0.090347
N25   N     N_R   0.022480 0.477420 0.164500 -0.041826
N26   N     N_R   0.977520 0.522580 0.835500 -0.038120
N27   N     N_R   0.977520 0.477420 0.835500 -0.038505
N28   N     N_R   0.022480 0.522580 0.164500 -0.041412
N29   N     N_R   0.522480 0.977420 0.164500 -0.038707
N30   N     N_R   0.477520 0.022580 0.835500 -0.038050
N31   N     N_R   0.477520 0.977420 0.835500 -0.037059
N32   N     N_R   0.522480 0.022580 0.164500 -0.039205
C33   C     C_R   0.904306 0.645260 0.997577 0.094668
C34   C     C_R   0.086653 0.351873 0.000280 0.094478
C35   C     C_R   0.129755 0.624896 0.994803 0.091541
C36   C     C_R   0.893755 0.358629 0.998157 0.088586
C37   C     C_R   0.379938 0.133533 0.999942 0.081928
C38   C     C_R   0.644314 0.888573 0.000265 0.092214
C39   C     C_R   0.644984 0.110520 0.999179 0.084807
C40   C     C_R   0.404417 0.854966 0.004132 0.099592
C41   C     C_R   0.757987 0.500976 0.707759 0.035090
C42   C     C_R   0.256650 0.498527 0.231062 0.033513
C43   C     C_R   0.243549 0.998510 0.770326 0.033091
C44   C     C_R   0.740407 0.000639 0.294269 0.044150
C45   C     C_R   0.962728 0.499965 0.218490 0.051080
C46   C     C_R   0.944657 0.500084 0.704154 0.060015
C47   C     C_R   0.468264 0.999114 0.225063 0.052313
C48   C     C_R   0.441416 0.000217 0.702903 0.047716
Ni1   Ni    Ni4+2 0.051820 0.551870 0.104030 0.213788
Ni2   Ni    Ni4+2 0.948180 0.448130 0.895970 0.206783
Ni3   Ni    Ni4+2 0.948180 0.551870 0.895970 0.206737
Ni4   Ni    Ni4+2 0.051820 0.448130 0.104030 0.211941
Ni5   Ni    Ni4+2 0.551820 0.051870 0.104030 0.213681
Ni6   Ni    Ni4+2 0.448180 0.948130 0.895970 0.209863
Ni7   Ni    Ni4+2 0.448180 0.051870 0.895970 0.210944
Ni8   Ni    Ni4+2 0.551820 0.948130 0.104030 0.209069
C49   C     C_R   0.891660 0.460855 0.561013 -0.160072
C50   C     C_R   0.900216 0.539810 0.273261 -0.160507
C51   C     C_R   0.390734 0.039892 0.560449 -0.165542
C52   C     C_R   0.404757 0.959521 0.279861 -0.168479
C53   C     C_R   0.908720 0.500301 0.607519 0.074621
C54   C     C_R   0.918224 0.500112 0.253106 0.076857
C55   C     C_R   0.404794 0.000305 0.606266 0.074641
C56   C     C_R   0.424654 0.998985 0.260576 0.080710
C57   C     C_R   0.895056 0.540022 0.562243 -0.159203
C58   C     C_R   0.898993 0.460657 0.273289 -0.159599
C59   C     C_R   0.388698 0.960687 0.560631 -0.173401
C60   C     C_R   0.405895 0.038633 0.279591 -0.164670
C61   C     C_R   0.874501 0.540642 0.475474 -0.073374
C62   C     C_R   0.874741 0.460409 0.327167 -0.075479
C63   C     C_R   0.370782 0.960016 0.475187 -0.066038
C64   C     C_R   0.379469 0.039431 0.330881 -0.076772
C65   C     C_R   0.868502 0.500607 0.434417 -0.076807
C66   C     C_R   0.869793 0.500532 0.360351 -0.077527
C67   C     C_R   0.368090 0.999936 0.435155 -0.075763
C68   C     C_R   0.371876 0.999584 0.363054 -0.080020
C69   C     C_R   0.871571 0.460547 0.474360 -0.071725
C70   C     C_R   0.876536 0.540507 0.327598 -0.077490
C71   C     C_R   0.372280 0.040160 0.474666 -0.072130
C72   C     C_R   0.378397 0.959377 0.331489 -0.069569
C73   C     C_R   0.867237 0.580587 0.432587 0.447794
C74   C     C_R   0.863449 0.420661 0.356483 0.443194
C75   C     C_R   0.363154 0.920024 0.433013 0.432445
C76   C     C_R   0.368549 0.079524 0.358651 0.447028
C77   C     C_R   0.867806 0.580496 0.357900 0.450272
C78   C     C_R   0.861775 0.420751 0.430449 0.446631
C79   C     C_R   0.366339 0.919749 0.360267 0.453656
C80   C     C_R   0.365678 0.079913 0.431598 0.447759
H33   H     H_    0.899474 0.430079 0.594146 0.147512
H34   H     H_    0.911000 0.570438 0.253864 0.149635
H35   H     H_    0.400104 0.070669 0.593693 0.149869
H36   H     H_    0.415386 0.928777 0.261285 0.142469
H37   H     H_    0.905968 0.570674 0.596404 0.149597
H38   H     H_    0.908940 0.429905 0.253908 0.149168
H39   H     H_    0.396244 0.930010 0.593895 0.153046
H40   H     H_    0.417252 0.069229 0.260796 0.149791
C81   C     C_R   0.909200 0.237238 0.037489 0.685275
C82   C     C_R   0.316073 0.654643 0.052022 0.608986
C83   C     C_R   0.192182 0.247027 0.099866 0.599639
C84   C     C_R   0.785767 0.744429 0.929491 0.629373
C85   C     C_R   0.351700 0.737443 0.934428 0.609754
C86   C     C_R   0.813655 0.180100 0.085638 0.636092
C87   C     C_R   0.806643 0.815018 0.079942 0.633167
C88   C     C_R   0.207226 0.158632 0.978312 0.607693
C89   C     C_R   0.927589 0.281334 0.037758 -0.425471
C90   C     C_R   0.260082 0.636007 0.053684 -0.341541
C91   C     C_R   0.160308 0.287602 0.089994 -0.401597
C92   C     C_R   0.810743 0.702735 0.930661 -0.389487
C93   C     C_R   0.371894 0.780975 0.938034 -0.350700
C94   C     C_R   0.760023 0.154107 0.080406 -0.403545
C95   C     C_R   0.755912 0.842023 0.078337 -0.390273
C96   C     C_R   0.257196 0.139485 0.966636 -0.359860
H41   H     H_    0.985025 0.291105 0.072008 0.152889
H42   H     H_    0.275399 0.612519 0.105550 0.153573
H43   H     H_    0.187240 0.307328 0.149117 0.155410
H44   H     H_    0.770685 0.678524 0.884708 0.159878
H45   H     H_    0.370283 0.793736 0.882754 0.159240
H46   H     H_    0.756500 0.155768 0.135584 0.156375
H47   H     H_    0.753654 0.840461 0.134554 0.155064
H48   H     H_    0.242769 0.108504 0.932049 0.161590
C97   C     C_R   0.871976 0.313530 0.995620 0.041301
C98   C     C_R   0.185362 0.647654 0.990643 0.013550
C99   C     C_R   0.102207 0.304126 0.005463 0.035888
C100  C     C_R   0.885505 0.691441 0.993279 0.014039
C101  C     C_R   0.390393 0.808219 0.009024 0.010634
C102  C     C_R   0.707119 0.130680 0.002499 0.037809
C103  C     C_R   0.705249 0.867769 0.003051 0.019154
C104  C     C_R   0.326499 0.158919 0.002281 0.016835
C105  C     C_R   0.796620 0.302347 0.951386 0.156590
C106  C     C_R   0.165649 0.677735 0.921754 0.133110
C107  C     C_R   0.067900 0.275082 0.931161 0.121641
C108  C     C_R   0.938333 0.724079 0.049087 0.146282
C109  C     C_R   0.394677 0.789891 0.082299 0.133476
C110  C     C_R   0.714608 0.129831 0.931575 0.157642
C111  C     C_R   0.713360 0.870896 0.933052 0.163863
C112  C     C_R   0.346245 0.198603 0.049197 0.128074
C113  C     C_R   0.778746 0.258749 0.951075 -0.302344
C114  C     C_R   0.221947 0.695864 0.919801 -0.236396
C115  C     C_R   0.105094 0.236244 0.940969 -0.267850
C116  C     C_R   0.912599 0.765869 0.048304 -0.215021
C117  C     C_R   0.377137 0.745873 0.079383 -0.245465
C118  C     C_R   0.766564 0.157991 0.936473 -0.332072
C119  C     C_R   0.764984 0.843771 0.935928 -0.211562
C120  C     C_R   0.294678 0.218464 0.057381 -0.228092
H49   H     H_    0.721454 0.249811 0.921218 0.152420
H50   H     H_    0.207576 0.721472 0.871605 0.166912
H51   H     H_    0.086835 0.217151 0.882531 0.180185
H52   H     H_    0.951328 0.790733 0.093597 0.152509
H53   H     H_    0.374562 0.732941 0.131723 0.170967
H54   H     H_    0.767584 0.162116 0.879487 0.153241
H55   H     H_    0.768915 0.843622 0.880796 0.150364
H56   H     H_    0.307512 0.250369 0.088326 0.167413
C121  C     C_R   0.834303 0.226881 0.995887 -0.001299
C122  C     C_R   0.296881 0.686538 0.986675 -0.048635
C123  C     C_R   0.170783 0.224704 0.022886 -0.009425
C124  C     C_R   0.836814 0.775583 0.990987 -0.047826
C125  C     C_R   0.349834 0.720742 0.003610 -0.045873
C126  C     C_R   0.811613 0.184967 0.009860 0.026652
C127  C     C_R   0.807962 0.814353 0.005913 -0.046391
C128  C     C_R   0.225712 0.198806 0.022952 -0.042488
C129  C     C_R   0.447658 0.534205 0.309048 -0.179260
C130  C     C_R   0.618381 0.468543 0.467909 -0.189220
C131  C     C_R   0.588019 0.540645 0.490902 -0.164976
C132  C     C_R   0.453969 0.459798 0.358515 -0.157456
C133  C     C_R   0.910593 0.040095 0.510837 -0.161018
C134  C     C_R   0.046372 0.959441 0.641031 -0.162245
C135  C     C_R   0.052275 0.033049 0.692395 -0.171984
C136  C     C_R   0.882252 0.966979 0.533395 -0.179734
H57   H     H_    0.474388 0.563854 0.309199 0.130685
H58   H     H_    0.604998 0.440065 0.426640 0.111094
H59   H     H_    0.550506 0.568129 0.469285 0.121113
H60   H     H_    0.485171 0.431567 0.398900 0.118277
H61   H     H_    0.947547 0.067929 0.532425 0.116338
H62   H     H_    0.015371 0.931473 0.599834 0.119038
H63   H     H_    0.025338 0.062275 0.692896 0.127359
H64   H     H_    0.896658 0.938029 0.574312 0.115718
C137  C     C_R   0.370951 0.533981 0.264076 -0.146980
C138  C     C_R   0.682064 0.467992 0.555733 -0.163664
C139  C     C_R   0.651357 0.540102 0.578197 -0.178237
C140  C     C_R   0.377428 0.459454 0.312987 -0.165409
C141  C     C_R   0.846640 0.039812 0.423913 -0.171484
C142  C     C_R   0.122872 0.959400 0.686794 -0.168720
C143  C     C_R   0.129127 0.033065 0.738127 -0.159080
C144  C     C_R   0.818096 0.966635 0.445923 -0.161190
H65   H     H_    0.339745 0.563065 0.228348 0.115866
H66   H     H_    0.717955 0.439638 0.579685 0.104495
H67   H     H_    0.661756 0.567670 0.620311 0.114329
H68   H     H_    0.351886 0.430497 0.317493 0.111852
H69   H     H_    0.835327 0.067900 0.382054 0.109178
H70   H     H_    0.148455 0.930931 0.681356 0.111245
H71   H     H_    0.160379 0.061857 0.775376 0.117285
H72   H     H_    0.783071 0.937872 0.421906 0.110665
C145  C     C_R   0.335902 0.497319 0.269462 0.132824
C146  C     C_R   0.696726 0.502914 0.612558 0.144513
C147  C     C_R   0.801918 0.002305 0.389461 0.141200
C148  C     C_R   0.164317 0.996995 0.731824 0.135925
C149  C     C_R   0.490130 0.498076 0.361375 0.100739
C150  C     C_R   0.568662 0.503814 0.436687 0.117635
C151  C     C_R   0.931183 0.002717 0.564592 0.116446
C152  C     C_R   0.010015 0.997180 0.639165 0.105459
C153  C     C_3   0.735293 0.336266 0.911687 -0.420430
C154  C     C_3   0.738354 0.361016 0.985132 -0.223610
C155  C     C_3   0.677305 0.395493 0.945777 -0.935640
H73   H     H_    0.684045 0.419895 0.906762 0.269188
H74   H     H_    0.621694 0.379910 0.901856 0.263545
H75   H     H_    0.680856 0.412681 0.000421 0.244684
H76   H     H_    0.731354 0.337514 0.025301 0.197199
H77   H     H_    0.792941 0.377527 0.030399 0.202413
H78   H     H_    0.739025 0.359338 0.868485 0.185565
H79   H     H_    0.679962 0.320232 0.867767 0.184702
C156  C     C_3   0.087506 0.695210 0.855049 -0.452446
C157  C     C_3   0.054784 0.679469 0.760320 -0.222767
C158  C     C_3   0.971691 0.689057 0.696295 -0.912651
H80   H     H_    0.941220 0.671069 0.717318 0.248452
H81   H     H_    0.961367 0.724677 0.694506 0.261284
H82   H     H_    0.950228 0.678265 0.628225 0.285141
H83   H     H_    0.083521 0.696253 0.735669 0.207626
H84   H     H_    0.063515 0.643748 0.760181 0.197707
H85   H     H_    0.050271 0.686607 0.873700 0.196079
H86   H     H_    0.089443 0.731563 0.856017 0.183873
C159  C     C_3   0.995081 0.283299 0.840511 -0.417397
C160  C     C_3   0.930264 0.289807 0.846645 -0.240027
C161  C     C_3   0.859540 0.303359 0.756911 -0.946479
H87   H     H_    0.867473 0.335676 0.736175 0.253473
H88   H     H_    0.844641 0.278675 0.705315 0.270732
H89   H     H_    0.812972 0.305860 0.762525 0.248122
H90   H     H_    0.919518 0.258692 0.868201 0.195655
H91   H     H_    0.943934 0.315008 0.896581 0.206542
H92   H     H_    0.001146 0.310034 0.805306 0.183906
H93   H     H_    0.980155 0.254634 0.796357 0.189081
C162  C     C_3   0.021583 0.716894 0.105393 -0.452623
C163  C     C_3   0.056557 0.717797 0.205299 -0.219114
C164  C     C_3   0.137578 0.703096 0.260823 -0.929753
H94   H     H_    0.141383 0.668824 0.244439 0.256341
H95   H     H_    0.170243 0.724694 0.247851 0.264097
H96   H     H_    0.161837 0.704795 0.332696 0.257164
H97   H     H_    0.054176 0.751543 0.225235 0.202813
H98   H     H_    0.025296 0.696117 0.220258 0.201097
H99   H     H_    0.035621 0.686015 0.087711 0.201058
H100  H     H_    0.046892 0.743271 0.090193 0.182308
C165  C     C_3   0.408767 0.815484 0.160506 -0.420102
C166  C     C_3   0.486067 0.804770 0.246138 -0.289660
C167  C     C_3   0.502938 0.831511 0.324849 -0.827123
H101  H     H_    0.501159 0.866987 0.310980 0.250061
H102  H     H_    0.462091 0.823773 0.338513 0.301424
H103  H     H_    0.559400 0.823290 0.385035 0.236239
H104  H     H_    0.488866 0.769510 0.262656 0.209161
H105  H     H_    0.529772 0.811157 0.236564 0.192402
H106  H     H_    0.400805 0.851094 0.148024 0.187025
H107  H     H_    0.366108 0.806072 0.170470 0.183547
C168  C     C_3   0.668197 0.102221 0.848051 -0.410991
C169  C     C_3   0.676501 0.053057 0.867994 -0.248871
C170  C     C_3   0.636612 0.027035 0.781621 -0.913853
H108  H     H_    0.577000 0.036243 0.736545 0.273372
H109  H     H_    0.662659 0.033092 0.747113 0.261669
H110  H     H_    0.640711 0.991784 0.796885 0.256322
H111  H     H_    0.736395 0.044088 0.910455 0.200054
H112  H     H_    0.652948 0.043887 0.904062 0.209110
H113  H     H_    0.609528 0.112643 0.806411 0.176192
H114  H     H_    0.686108 0.108172 0.804547 0.193741
C171  C     C_3   0.671607 0.902916 0.856141 -0.476018
C172  C     C_3   0.616258 0.879363 0.767234 -0.215769
C173  C     C_3   0.573963 0.911702 0.689847 -0.912375
H115  H     H_    0.613066 0.929630 0.682071 0.263863
H116  H     H_    0.533225 0.893863 0.627155 0.277900
H117  H     H_    0.543481 0.935503 0.701588 0.264906
H118  H     H_    0.646286 0.856276 0.753199 0.214625
H119  H     H_    0.575912 0.859995 0.770570 0.198287
H120  H     H_    0.643387 0.928342 0.867890 0.195990
H121  H     H_    0.712777 0.920848 0.851917 0.191125
C174  C     C_3   0.419478 0.221662 0.087306 -0.445327
C175  C     C_3   0.467942 0.222615 0.189497 -0.214052
C176  C     C_3   0.544166 0.242397 0.228155 -0.932256
H122  H     H_    0.574156 0.222419 0.209300 0.262454
H123  H     H_    0.538146 0.276366 0.203314 0.261473
H124  H     H_    0.577577 0.243125 0.301942 0.254408
H125  H     H_    0.440339 0.242405 0.211878 0.211228
H126  H     H_    0.475538 0.188940 0.216241 0.199679
H127  H     H_    0.450820 0.205949 0.065541 0.198049
H128  H     H_    0.407867 0.255720 0.061142 0.188093
O1    O     O_3   0.870184 0.620271 0.469838 -0.583714
C177  C     C_3   0.799799 0.628861 0.449810 -0.245844
H129  H     H_    0.801855 0.661203 0.477780 0.172912
H130  H     H_    0.784592 0.604223 0.480492 0.127978
H131  H     H_    0.755820 0.630431 0.376715 0.127354
O2    O     O_3   0.864624 0.380940 0.322155 -0.573581
C178  C     C_3   0.795161 0.374453 0.239197 -0.214565
H132  H     H_    0.795374 0.341880 0.213523 0.180189
H133  H     H_    0.784655 0.399187 0.189035 0.118186
H134  H     H_    0.748914 0.374713 0.245747 0.118454
O3    O     O_3   0.363261 0.880509 0.469548 -0.584244
C179  C     C_3   0.290986 0.872476 0.444305 -0.214820
H135  H     H_    0.249968 0.870104 0.370743 0.126539
H136  H     H_    0.273200 0.897882 0.470423 0.118188
H137  H     H_    0.291052 0.840637 0.473085 0.172497
O4    O     O_3   0.371865 0.118985 0.324449 -0.577733
C180  C     C_3   0.305404 0.124633 0.237938 -0.244413
H138  H     H_    0.256930 0.127889 0.239828 0.119018
H139  H     H_    0.295115 0.097654 0.192283 0.111391
H140  H     H_    0.310166 0.155013 0.209104 0.221155
O5    O     O_3   0.870489 0.620109 0.323695 -0.574850
C181  C     C_3   0.800664 0.627772 0.241805 -0.247189
H141  H     H_    0.801871 0.660339 0.216334 0.159791
H142  H     H_    0.755256 0.628222 0.249840 0.121003
H143  H     H_    0.788074 0.603242 0.190816 0.125286
O6    O     O_3   0.860819 0.381136 0.465937 -0.575198
C182  C     C_3   0.789258 0.374674 0.444128 -0.226637
H144  H     H_    0.745897 0.374356 0.370799 0.122653
H145  H     H_    0.775541 0.399791 0.475117 0.116981
H146  H     H_    0.787993 0.342349 0.470432 0.173586
O7    O     O_3   0.367393 0.879937 0.326275 -0.589570
C183  C     C_3   0.298636 0.873922 0.242283 -0.251901
H147  H     H_    0.293329 0.895962 0.191279 0.132796
H148  H     H_    0.250630 0.878725 0.244795 0.118880
H149  H     H_    0.295852 0.839812 0.220704 0.167004
O8    O     O_3   0.366650 0.119694 0.467150 -0.578699
C184  C     C_3   0.294077 0.128864 0.439605 -0.248083
H150  H     H_    0.274867 0.104279 0.465990 0.126401
H151  H     H_    0.254047 0.130818 0.365785 0.122761
H152  H     H_    0.294455 0.161197 0.466472 0.170848
O9    O     O_3   0.962171 0.204467 0.083978 -0.624932
C185  C     C_3   0.020137 0.208130 0.074617 -0.288912
H153  H     H_    0.061691 0.232696 0.121712 0.150300
H154  H     H_    0.999203 0.215846 0.004987 0.141643
H155  H     H_    0.049186 0.176217 0.092213 0.168484
O10   O     O_3   0.389147 0.646254 0.122978 -0.621398
C186  C     C_3   0.425427 0.624848 0.092059 -0.280837
H156  H     H_    0.442117 0.648636 0.061849 0.139857
H157  H     H_    0.391122 0.598061 0.044403 0.128277
H158  H     H_    0.477072 0.609734 0.149970 0.172150
O11   O     O_3   0.255053 0.234106 0.182007 -0.628526
C187  C     C_3   0.235560 0.224941 0.239841 -0.284050
H159  H     H_    0.190967 0.199760 0.211279 0.113121
H160  H     H_    0.218660 0.254954 0.256825 0.141613
H161  H     H_    0.285062 0.211530 0.303019 0.213503
O12   O     O_3   0.711634 0.755120 0.866874 -0.616181
C188  C     C_3   0.669609 0.738119 0.894443 -0.274025
H162  H     H_    0.685213 0.753994 0.956784 0.129101
H163  H     H_    0.674967 0.701972 0.902883 0.131427
H164  H     H_    0.610124 0.745554 0.842195 0.180104
O13   O     O_3   0.322370 0.714760 0.856060 -0.615712
C189  C     C_3   0.364608 0.676713 0.873801 -0.255522
H165  H     H_    0.348307 0.650247 0.899921 0.140483
H166  H     H_    0.425628 0.682931 0.920016 0.112768
H167  H     H_    0.352265 0.664958 0.810197 0.177927
O14   O     O_3   0.857049 0.207879 0.157219 -0.615088
C190  C     C_3   0.913518 0.183141 0.230770 -0.203408
H168  H     H_    0.947446 0.165100 0.214904 0.155371
H169  H     H_    0.890173 0.160100 0.254595 0.116213
H170  H     H_    0.951312 0.205835 0.286183 0.175007
O15   O     O_3   0.855593 0.789539 0.154225 -0.613570
C191  C     C_3   0.817840 0.752592 0.154525 -0.271366
H171  H     H_    0.799533 0.730772 0.097477 0.126074
H172  H     H_    0.769792 0.761778 0.154558 0.128558
H173  H     H_    0.857054 0.733664 0.216370 0.192942
O16   O     O_3   0.138618 0.139363 0.940398 -0.620593
C192  C     C_3   0.141504 0.114914 0.006561 -0.280986
H174  H     H_    0.152489 0.136202 0.061364 0.126400
H175  H     H_    0.183788 0.088440 0.033370 0.136492
H176  H     H_    0.086628 0.099177 0.976055 0.180996

loop_
_geom_bond_atom_site_label_1
_geom_bond_atom_site_label_2
_geom_bond_distance
_ccdc_geom_bond_type
N13   Ni6   1.829229 S    
C186  H158  1.109278 S    
C135  C152  1.404246 A    
C61   C65   1.411453 A    
C136  C151  1.404245 A    
C81   C121  1.400732 A    
C110  C118  1.402866 A    
N17   Ni3   1.844989 S    
C64   C68   1.409467 A    
C21   N21   1.344805 A    
C31   H31   1.079375 S    
C176  H122  1.110981 S    
C85   C125  1.410032 A    
C63   C67   1.410640 A    
C160  H90   1.111083 S    
C90   H42   1.082053 S    
O16   C192  1.408872 S    
C187  H160  1.111252 S    
C72   C79   1.411801 A    
C190  H169  1.112374 S    
C105  C113  1.389671 A    
C14   H14   1.077467 S    
C96   H48   1.084340 S    
C89   H41   1.082240 S    
N5    Ni5   1.847784 S    
C74   C78   1.403877 A    
C24   N24   1.333489 A    
C161  H88   1.110740 S    
C3    N3    1.325221 A    
C172  C173  1.525353 S    
N29   Ni8   1.845677 S    
C108  C116  1.400331 A    
C5    H5    1.076658 S    
C134  C142  1.385616 A    
C183  H149  1.108643 S    
N5    N16   1.378058 A    
C118  H54   1.084543 S    
C7    H7    1.071178 S    
N6    N15   1.378055 A    
C169  H112  1.108552 S    
C112  C120  1.392759 A    
N7    N14   1.378042 A    
C138  C146  1.403776 A    
C28   H28   1.076385 S    
C58   C62   1.398591 A    
C115  C123  1.395835 A    
C25   H25   1.076309 S    
C62   C74   1.412836 A    
C180  H140  1.107445 S    
C5    C37   1.375522 A    
C86   C94   1.391170 A    
C86   O14   1.383485 S    
C111  C171  1.513229 S    
C137  H65   1.080708 S    
C9    N9    1.331963 A    
C11   H11   1.079062 S    
C141  H69   1.082537 S    
N21   Ni7   1.844989 S    
C179  H137  1.109177 S    
C165  H107  1.112175 S    
N14   Ni5   1.829227 S    
C13   N13   1.346979 A    
C169  C170  1.525884 S    
C170  H110  1.103743 S    
C185  H154  1.113023 S    
C34   C99   1.491789 S    
C144  C147  1.403227 A    
C9    C36   1.378822 A    
O3    C179  1.410292 S    
C132  C140  1.386956 A    
C67   C68   1.398588 A    
N17   N20   1.384290 A    
C116  H52   1.083943 S    
C166  C167  1.524218 S    
C39   C102  1.485882 S    
C8    C40   1.373087 A    
C49   H33   1.079557 S    
C57   C61   1.396700 A    
C31   C48   1.384788 A    
C163  C164  1.525988 S    
C184  H150  1.112681 S    
C189  H166  1.114991 S    
C185  H155  1.109229 S    
C61   C73   1.412825 A    
C133  H61   1.082947 S    
C176  H124  1.110389 S    
C73   O1    1.384132 S    
C132  C149  1.403530 A    
C95   H47   1.081416 S    
C101  C109  1.425338 A    
N6    Ni6   1.847782 S    
C109  C165  1.519373 S    
C135  C143  1.392545 A    
C175  C176  1.525772 S    
C26   C46   1.387694 A    
O7    C183  1.411196 S    
C191  H171  1.111297 S    
C26   N26   1.336780 A    
C32   H32   1.070943 S    
O5    C181  1.411087 S    
C157  H84   1.110915 S    
C30   N30   1.336842 A    
C6    C38   1.393622 A    
O2    C178  1.411340 S    
C55   C59   1.402663 A    
C3    H3    1.075843 S    
C174  C175  1.535385 S    
C4    N4    1.339418 A    
C108  C162  1.514657 S    
C53   C57   1.402856 A    
C5    N5    1.335380 A    
N24   Ni6   1.846415 S    
O13   C189  1.410255 S    
C23   N23   1.334534 A    
C131  C150  1.403275 A    
O8    C184  1.410036 S    
C106  C114  1.394381 A    
C12   C33   1.379102 A    
C77   O5    1.384126 S    
C119  C127  1.393139 A    
C41   C146  1.464151 S    
C107  C115  1.400383 A    
C178  H132  1.109321 S    
C129  C149  1.403698 A    
C94   H46   1.080636 S    
C174  H127  1.109872 S    
C188  H162  1.111123 S    
C178  H134  1.111901 S    
N1    Ni1   1.847784 S    
C163  H98   1.110662 S    
C114  H50   1.084742 S    
C70   C77   1.412623 A    
C154  H76   1.112048 S    
N7    Ni7   1.846149 S    
C149  C150  1.468661 S    
C168  H114  1.112984 S    
C155  H75   1.110546 S    
C130  C138  1.393013 A    
C17   H17   1.081480 S    
C29   C47   1.386738 A    
C48   C55   1.472834 S    
C175  H126  1.110746 S    
C20   H20   1.081114 S    
C123  C128  1.464095 S    
C67   C71   1.412070 A    
N22   Ni8   1.844989 S    
C28   C45   1.390212 A    
C23   H23   1.081566 S    
C184  H152  1.109174 S    
C24   H24   1.078185 S    
C156  H85   1.107674 S    
N3    N10   1.378042 A    
C27   N27   1.336179 A    
C10   C35   1.399100 A    
C133  C141  1.385527 A    
C104  C112  1.408330 A    
N18   N19   1.384290 A    
C29   H29   1.076733 S    
C7    C39   1.394626 A    
C158  H80   1.111099 S    
C164  H95   1.110932 S    
C115  H51   1.083462 S    
C171  H121  1.112418 S    
N30   N31   1.381231 A    
C113  H49   1.085131 S    
O4    C180  1.411471 S    
C183  H148  1.112946 S    
C69   C78   1.413327 A    
C79   O7    1.383122 S    
C134  C152  1.403001 A    
C139  H67   1.082563 S    
N23   Ni5   1.846415 S    
C191  H173  1.108995 S    
N32   Ni5   1.836922 S    
C173  H116  1.110483 S    
C87   O15   1.385025 S    
C83   C123  1.397096 A    
C13   C40   1.398767 A    
C136  C144  1.392783 A    
C139  C146  1.400637 A    
C14   C39   1.398201 A    
N21   N24   1.384290 A    
C75   C79   1.402105 A    
C49   C53   1.403394 A    
N11   Ni4   1.838105 S    
C6    H6    1.075363 S    
C51   C55   1.402871 A    
C60   C64   1.393383 A    
C182  H146  1.109215 S    
C179  H136  1.112497 S    
C19   N19   1.344924 A    
C59   H39   1.079152 S    
C181  H143  1.111904 S    
O14   C190  1.409533 S    
C64   C76   1.411613 A    
C153  H78   1.108609 S    
N15   Ni8   1.838105 S    
C20   C41   1.389635 A    
C192  H176  1.109112 S    
C63   C75   1.412446 A    
C172  H119  1.109925 S    
C84   C92   1.389130 A    
C4    H4    1.081676 S    
C188  H164  1.109158 S    
C10   N10   1.348121 A    
C177  H131  1.111641 S    
C87   C95   1.392115 A    
C122  C125  1.465073 S    
C186  H157  1.115000 S    
C27   C46   1.387633 A    
C14   N14   1.338606 A    
C76   C80   1.401531 A    
O12   C188  1.410121 S    
C155  H73   1.110961 S    
C120  C128  1.404578 A    
C1    N1    1.339890 A    
C166  H104  1.111699 S    
C130  H58   1.083221 S    
N27   Ni2   1.836919 S    
C22   C44   1.386830 A    
C23   C44   1.377362 A    
C167  H103  1.110272 S    
C114  C122  1.400335 A    
C4    C36   1.383348 A    
C36   C97   1.452725 S    
C118  C126  1.392151 A    
C7    N7    1.337320 A    
C40   C101  1.476525 S    
C8    N8    1.327075 A    
C93   H45   1.081938 S    
C3    C35   1.374935 A    
C45   C54   1.474819 S    
C157  C158  1.525791 S    
C8    H8    1.077194 S    
C158  H82   1.110333 S    
C47   C56   1.470202 S    
C16   C37   1.381389 A    
C44   C147  1.465296 S    
C83   O11   1.385161 S    
C124  C127  1.457491 S    
C9    H9    1.080479 S    
C82   C122  1.411253 A    
C109  C117  1.393110 A    
C156  C157  1.537392 S    
C86   C126  1.395563 A    
C143  C148  1.403337 A    
C151  C152  1.468642 S    
C51   H35   1.079702 S    
C180  H139  1.110784 S    
C106  C156  1.517657 S    
C192  H174  1.113038 S    
N18   Ni4   1.844989 S    
C110  C168  1.518473 S    
C116  C124  1.396586 A    
C162  H99   1.108553 S    
C54   C58   1.402519 A    
C129  C137  1.391499 A    
C182  H144  1.111893 S    
C6    N6    1.337077 A    
C78   O6    1.383922 S    
C165  H106  1.105238 S    
C88   C96   1.391778 A    
C170  H109  1.110714 S    
C181  H141  1.108521 S    
C159  H93   1.112843 S    
C42   C145  1.465399 S    
N22   N23   1.384290 A    
C83   C91   1.389478 A    
N28   Ni1   1.836922 S    
C52   C56   1.402244 A    
C92   H44   1.084039 S    
C117  H53   1.085136 S    
C168  C169  1.532279 S    
C15   N15   1.338217 A    
C190  H170  1.109226 S    
C16   N16   1.341237 A    
C26   H26   1.079534 S    
C176  H123  1.110882 S    
C98   C106  1.418024 A    
O6    C182  1.411089 S    
N16   Ni7   1.838110 S    
C133  C151  1.402807 A    
N8    Ni8   1.846150 S    
C167  H101  1.109425 S    
C18   H18   1.079544 S    
C15   C38   1.394896 A    
C49   C69   1.398442 A    
C1    H1    1.078004 S    
C187  H159  1.112964 S    
C66   C70   1.411228 A    
C162  C163  1.535503 S    
C17   C41   1.381284 A    
C22   H22   1.080880 S    
C191  H172  1.112530 S    
C31   N31   1.334914 A    
C159  C160  1.534902 S    
C21   C43   1.391819 A    
C161  H87   1.111081 S    
C82   C90   1.391263 A    
C90   C98   1.402324 A    
C119  H55   1.084202 S    
C84   O12   1.384985 S    
C161  H89   1.110409 S    
C107  C159  1.516894 S    
N26   Ni3   1.845674 S    
C87   C127  1.400472 A    
C17   N17   1.332086 A    
C94   C102  1.409940 A    
C71   C80   1.412786 A    
C169  H111  1.111857 S    
C81   O9    1.392293 S    
C102  C110  1.430860 A    
O9    C185  1.411861 S    
C65   C66   1.400518 A    
C121  C126  1.455271 S    
C65   C69   1.411290 A    
C177  H130  1.112134 S    
C140  C145  1.401631 A    
C68   C72   1.411719 A    
O11   C187  1.411059 S    
C178  H133  1.111956 S    
C25   C45   1.392473 A    
O10   C186  1.409566 S    
C160  H91   1.106476 S    
C142  H70   1.081770 S    
C58   H38   1.080065 S    
C129  H57   1.083403 S    
C91   H43   1.076784 S    
C185  H153  1.109866 S    
N1    N12   1.378058 A    
C25   N25   1.340446 A    
C173  H115  1.110676 S    
C154  H77   1.110482 S    
N2    N11   1.378055 A    
C95   C103  1.407248 A    
C155  H74   1.110792 S    
C27   H27   1.079794 S    
N26   N27   1.381231 A    
C32   C47   1.390475 A    
C29   N29   1.337065 A    
C12   N12   1.334507 A    
C171  C172  1.539476 S    
C141  C147  1.401684 A    
C142  C148  1.401496 A    
C82   O10   1.384607 S    
C89   C97   1.404723 A    
C11   N11   1.332000 A    
C12   H12   1.081901 S    
C165  C166  1.537678 S    
C13   H13   1.080632 S    
C190  H168  1.114060 S    
C184  H151  1.112193 S    
C189  H165  1.109486 S    
C30   C48   1.385281 A    
C35   C98   1.464890 S    
C73   C77   1.402369 A    
C143  H71   1.082516 S    
C33   C100  1.463438 S    
C11   C34   1.391985 A    
C76   O4    1.384554 S    
C2    N2    1.336485 A    
C164  H94   1.111272 S    
C171  H120  1.105502 S    
C187  H161  1.109339 S    
N9    Ni2   1.829229 S    
C37   C104  1.450543 S    
N2    Ni2   1.847782 S    
C57   H37   1.079449 S    
N4    N9    1.378045 A    
C158  H81   1.110761 S    
C186  H156  1.109417 S    
C60   H40   1.078857 S    
C137  C145  1.402870 A    
N8    N13   1.378045 A    
C103  C111  1.425289 A    
C59   C63   1.395208 A    
C131  C139  1.384899 A    
C160  C161  1.525417 S    
C96   C104  1.403619 A    
C157  H83   1.111568 S    
C85   C93   1.393406 A    
C135  H63   1.083233 S    
C117  C125  1.395242 A    
C168  H113  1.102552 S    
C10   H10   1.077394 S    
N12   Ni3   1.838110 S    
C182  H145  1.112376 S    
C189  H167  1.109150 S    
C22   N22   1.343063 A    
C18   C42   1.381768 A    
C32   N32   1.336858 A    
C153  C154  1.535731 S    
C130  C150  1.404231 A    
C20   N20   1.340366 A    
C30   H30   1.079503 S    
N25   Ni4   1.845677 S    
C120  H56   1.084193 S    
C50   H34   1.079458 S    
C21   H21   1.074045 S    
C88   C128  1.404752 A    
C56   C60   1.399623 A    
C174  H128  1.112061 S    
C188  H163  1.112711 S    
C38   C103  1.479310 S    
C112  C174  1.515942 S    
C81   C89   1.407651 A    
N31   Ni6   1.836919 S    
C163  H97   1.111368 S    
C80   O8    1.383265 S    
C154  C155  1.525184 S    
C1    C33   1.384687 A    
N4    Ni4   1.846150 S    
C166  H105  1.110109 S    
C85   O13   1.385405 S    
C43   C148  1.464676 S    
C167  H102  1.109660 S    
C50   C54   1.402718 A    
C24   C43   1.381566 A    
C175  H125  1.111449 S    
N30   Ni7   1.845674 S    
N10   Ni1   1.829227 S    
O15   C191  1.410179 S    
N3    Ni3   1.846149 S    
C111  C119  1.399462 A    
N25   N28   1.381231 A    
C156  H86   1.112384 S    
C18   N18   1.333596 A    
C2    C34   1.392612 A    
C28   N28   1.337262 A    
N29   N32   1.381231 A    
C52   H36   1.079194 S    
C164  H96   1.110317 S    
C134  H62   1.082935 S    
C19   H19   1.074016 S    
C50   C70   1.396640 A    
C51   C71   1.396382 A    
C2    H2    1.068928 S    
C183  H147  1.111095 S    
C75   O3    1.383791 S    
C140  H68   1.081866 S    
C99   C107  1.430167 A    
C97   C105  1.408519 A    
C62   C66   1.411918 A    
C173  H117  1.107561 S    
C144  H72   1.081754 S    
C131  H59   1.082905 S    
C180  H138  1.110767 S    
C91   C99   1.411489 A    
C105  C153  1.516915 S    
N19   Ni1   1.846415 S    
C113  C121  1.399401 A    
C84   C124  1.405327 A    
C177  H129  1.109231 S    
C92   C100  1.399274 A    
C19   C42   1.392777 A    
C93   C101  1.407226 A    
C179  H135  1.111586 S    
C15   H15   1.078516 S    
C88   O16   1.381925 S    
C16   H16   1.078279 S    
C170  H108  1.109761 S    
C74   O2    1.384459 S    
C181  H142  1.111904 S    
C132  H60   1.082936 S    
C138  H66   1.082041 S    
C46   C53   1.475506 S    
C153  H79   1.112552 S    
C100  C108  1.420207 A    
C192  H175  1.113253 S    
C159  H92   1.103797 S    
C172  H118  1.110816 S    
C136  H64   1.083210 S    
C52   C72   1.397734 A    
O1    C177  1.410790 S    
N20   Ni2   1.846415 S    
C162  H100  1.112215 S    
