data_mof_unit_7330.cif
_audit_creation_date              2012-12-10T20:41:47-0500
_audit_creation_method            fapswitch 2.2
_symmetry_space_group_name_H-M    P1
_symmetry_Int_Tables_number       1
_space_group_crystal_system       triclinic
_cell_length_a                    14.789407
_cell_length_b                    15.832703
_cell_length_c                    10.084177
_cell_angle_alpha                 89.765014
_cell_angle_beta                  90.115432
_cell_angle_gamma                 90.072735
_cell_volume                      2361.2469308

loop_
_atom_site_label
_atom_site_type_symbol
_atom_type_description
_atom_site_fract_x
_atom_site_fract_y
_atom_site_fract_z
_atom_type_partial_charge
C1    C     C_R   0.382800 0.878264 0.498675 0.868227
C2    C     C_R   0.931771 0.462905 0.073432 0.090365
C3    C     C_R   0.575475 0.019487 0.070995 0.257280
C4    C     C_R   0.075318 0.519963 0.070968 0.256019
C5    C     C_R   0.573024 0.025267 0.928831 -0.215105
C6    C     C_R   0.072790 0.525847 0.928837 -0.218505
C7    C     C_R   0.426384 0.970395 0.932690 0.088605
C8    C     C_R   0.926602 0.469933 0.932652 0.090831
C9    C     C_3   0.330697 0.007399 0.959960 0.937790
C10   C     C_3   0.830630 0.506296 0.959365 0.937481
C11   C     C_3   0.338112 0.979157 0.104307 -0.628335
C12   C     C_R   0.384313 0.123104 0.497576 0.910806
C13   C     C_3   0.838242 0.478945 0.104144 -0.626806
C14   C     C_R   0.620177 0.119283 0.499313 0.923917
C15   C     C_R   0.622668 0.882603 0.498699 0.901779
C16   C     C_R   0.119923 0.619484 0.499370 0.923385
C17   C     C_R   0.122422 0.382279 0.498813 0.900228
C18   C     C_R   0.313952 0.246100 0.597608 -0.102947
C19   C     C_R   0.295868 0.767074 0.606632 -0.090670
C20   C     C_R   0.813654 0.746109 0.597810 -0.092770
C21   C     C_R   0.797013 0.265869 0.606337 -0.090454
C22   C     C_R   0.332569 0.200728 0.486547 -0.217543
C23   C     C_R   0.882946 0.378118 0.498682 0.869891
C24   C     C_R   0.324096 0.805737 0.492133 -0.274311
C25   C     C_R   0.830482 0.699460 0.486991 -0.198643
C26   C     C_R   0.824858 0.305087 0.492038 -0.276528
C27   C     C_R   0.300202 0.233349 0.365282 0.457298
C28   C     C_R   0.291489 0.772653 0.371668 0.482261
C29   C     C_R   0.798095 0.731679 0.365428 0.457724
C30   C     C_R   0.792450 0.271969 0.371462 0.482280
C31   C     C_R   0.723847 0.786887 0.367743 0.093941
C32   C     C_R   0.715289 0.221710 0.375173 0.118004
C33   C     C_R   0.224762 0.287371 0.367969 0.088385
C34   C     C_R   0.883553 0.622614 0.497697 0.920960
C35   C     C_R   0.214290 0.722505 0.375596 0.118655
C36   C     C_R   0.701303 0.828108 0.489348 -0.259497
C37   C     C_R   0.693777 0.178503 0.494511 -0.247759
C38   C     C_R   0.200837 0.327386 0.490097 -0.252380
C39   C     C_R   0.192891 0.679325 0.494886 -0.247142
C40   C     C_R   0.759682 0.816766 0.597583 0.006594
C41   C     C_R   0.748193 0.192352 0.605998 0.038075
C42   C     C_R   0.258743 0.315878 0.598883 0.003799
C43   C     C_R   0.246819 0.693702 0.606674 0.039108
C44   C     C_3   0.740999 0.803395 0.742923 0.194661
C45   C     C_3   0.287377 0.216486 0.728870 0.398214
C46   C     C_3   0.722343 0.207810 0.747517 0.299080
C47   C     C_3   0.240295 0.300777 0.744548 0.205924
C48   C     C_3   0.220145 0.710062 0.747576 0.299762
C49   C     C_3   0.381838 0.273296 0.185486 -0.188213
C50   C     C_3   0.401184 0.741620 0.226515 -0.263540
C51   C     C_3   0.879898 0.769225 0.184429 -0.190406
C52   C     C_3   0.902417 0.241359 0.226520 -0.263012
C53   C     C_3   0.758352 0.930958 0.847916 -0.211654
C54   C     C_3   0.767012 0.180552 0.961809 -0.315259
C55   C     C_3   0.254256 0.428187 0.850185 -0.216259
C56   C     C_3   0.253205 0.800410 0.728781 0.313389
C57   C     C_3   0.263044 0.683446 0.962721 -0.313406
C58   C     C_3   0.154496 0.144089 0.643005 -0.340613
C59   C     C_3   0.183404 0.917208 0.619312 -0.184490
C60   C     C_3   0.639577 0.654871 0.688629 -0.358557
C61   C     C_3   0.682388 0.413886 0.619766 -0.175946
C62   C     C_3   0.251502 0.133173 0.001595 -0.154312
C63   C     C_3   0.181217 0.950186 0.950510 -0.268408
C64   C     C_3   0.749962 0.631327 0.998594 -0.169787
C65   C     C_3   0.681789 0.447512 0.950892 -0.270974
C66   C     C_3   0.785959 0.717302 0.729267 0.389391
C67   C     C_3   0.754759 0.298397 0.729335 0.314560
C68   C     C_R   0.431630 0.963065 0.073421 0.091360
H1    H     H_    0.332050 0.027878 0.182014 0.243171
H2    H     H_    0.302179 0.824933 0.802416 0.146645
H3    H     H_    0.846997 0.708680 0.791897 0.188030
H4    H     H_    0.803922 0.322931 0.802681 0.147136
H5    H     H_    0.631780 0.047298 0.876137 0.167233
H6    H     H_    0.131498 0.548055 0.876163 0.170065
H7    H     H_    0.421651 0.247964 0.101498 0.221689
H8    H     H_    0.429354 0.304855 0.255338 0.169503
H9    H     H_    0.334445 0.320880 0.143941 0.196611
H10   H     H_    0.380377 0.674035 0.225103 0.159858
H11   H     H_    0.455103 0.750493 0.302198 0.193824
H12   H     H_    0.302562 0.919713 0.127545 0.242259
H13   H     H_    0.429740 0.757541 0.127906 0.201400
H14   H     H_    0.920269 0.742436 0.102151 0.222495
H15   H     H_    0.927016 0.801485 0.254063 0.169339
H16   H     H_    0.833281 0.816556 0.140374 0.197160
H17   H     H_    0.881760 0.173744 0.224552 0.159592
H18   H     H_    0.956148 0.250185 0.302522 0.192912
H19   H     H_    0.931190 0.257590 0.128174 0.202296
H20   H     H_    0.701519 0.918490 0.916270 0.185144
H21   H     H_    0.736063 0.964123 0.755998 0.192947
H22   H     H_    0.807918 0.972214 0.899015 0.220787
H23   H     H_    0.832065 0.528244 0.180958 0.245612
H24   H     H_    0.696128 0.167687 0.990250 0.210838
H25   H     H_    0.784599 0.247173 0.983522 0.192082
H26   H     H_    0.812671 0.140796 0.022273 0.223296
H27   H     H_    0.196517 0.414896 0.916624 0.187579
H28   H     H_    0.232974 0.461293 0.757730 0.193487
H29   H     H_    0.302480 0.470015 0.902832 0.220370
H30   H     H_    0.192180 0.669775 0.990372 0.210855
H31   H     H_    0.279618 0.750362 0.983967 0.191305
H32   H     H_    0.308923 0.644550 0.024108 0.224873
H33   H     H_    0.172600 0.123442 0.541520 0.168401
H34   H     H_    0.802967 0.419560 0.128585 0.242835
H35   H     H_    0.118515 0.205103 0.639040 0.145402
H36   H     H_    0.104520 0.098563 0.682896 0.188832
H37   H     H_    0.178194 0.894304 0.515877 0.144229
H38   H     H_    0.245846 0.954392 0.636023 0.225895
H39   H     H_    0.125278 0.960105 0.632645 0.173269
H40   H     H_    0.607874 0.592820 0.670887 0.191220
H41   H     H_    0.629530 0.692050 0.596692 0.165755
H42   H     H_    0.602836 0.682355 0.773956 0.160242
H43   H     H_    0.677050 0.389911 0.516968 0.144077
H44   H     H_    0.744039 0.452491 0.635008 0.225902
H45   H     H_    0.669096 0.804288 0.774462 0.113808
H46   H     H_    0.623234 0.455528 0.632652 0.171606
H47   H     H_    0.258894 0.202557 0.995850 0.213539
H48   H     H_    0.239452 0.116850 0.106523 0.174273
H49   H     H_    0.189582 0.116634 0.945760 0.203040
H50   H     H_    0.123279 0.965085 0.884593 0.222052
H51   H     H_    0.170588 0.986502 0.043016 0.123136
H52   H     H_    0.178271 0.881935 0.975421 0.204428
H53   H     H_    0.756180 0.700804 0.992519 0.209591
H54   H     H_    0.737560 0.615203 0.103515 0.180117
H55   H     H_    0.688914 0.613408 0.942271 0.197944
H56   H     H_    0.648997 0.199969 0.769727 0.142732
H57   H     H_    0.623578 0.461582 0.885048 0.221864
H58   H     H_    0.670773 0.484122 0.043006 0.124046
H59   H     H_    0.679718 0.379335 0.976517 0.206803
H60   H     H_    0.168713 0.297096 0.778263 0.117184
H61   H     H_    0.146596 0.702617 0.768749 0.142006
H62   H     H_    0.348557 0.208911 0.791599 0.187478
I1    I     I_    0.640262 0.782792 0.193081 -0.481745
I2    I     I_    0.620672 0.246428 0.220849 -0.450259
I3    I     I_    0.141493 0.283296 0.193128 -0.482310
I4    I     I_    0.119053 0.747730 0.222484 -0.453925
I5    I     I_    0.703552 0.017928 0.166358 -0.407852
I6    I     I_    0.203457 0.518848 0.166056 -0.408333
N1    N     N_R   0.499140 0.000000 0.142800 -0.085939
N2    N     N_R   0.999140 0.500000 0.142800 -0.086554
N3    N     N_R   0.499160 0.000000 0.857150 -0.116536
N4    N     N_R   0.999160 0.500000 0.857150 -0.116652
O1    O     O_R   0.408400 0.908380 0.614690 -0.624638
O2    O     O_R   0.591610 0.908390 0.614650 -0.649762
O3    O     O_R   0.091610 0.591610 0.614650 -0.650616
O4    O     O_R   0.091610 0.408390 0.614650 -0.649886
O5    O     O_R   0.591590 0.091600 0.385310 -0.559479
O6    O     O_R   0.591590 0.908400 0.385310 -0.557521
O7    O     O_R   0.091590 0.591600 0.385310 -0.560200
O8    O     O_R   0.091590 0.408400 0.385310 -0.557171
O9    O     O_3   0.335061 0.205707 0.246307 -0.606152
O10   O     O_3   0.327123 0.795191 0.250768 -0.611397
O11   O     O_3   0.831910 0.702838 0.246494 -0.608252
O12   O     O_R   0.408400 0.091620 0.614690 -0.583806
O13   O     O_3   0.828137 0.294683 0.250667 -0.611026
O14   O     O_3   0.799830 0.854151 0.819574 -0.629698
O15   O     O_3   0.780819 0.159624 0.828594 -0.640420
O16   O     O_3   0.297408 0.352084 0.822870 -0.632326
O17   O     O_3   0.277862 0.662026 0.829982 -0.640349
O18   O     O_3   0.231743 0.142320 0.726703 -0.582051
O19   O     O_3   0.173690 0.850012 0.710185 -0.627427
O20   O     O_3   0.732152 0.642216 0.718546 -0.576783
O21   O     O_3   0.674718 0.347494 0.712457 -0.630208
O22   O     O_3   0.330664 0.096431 0.947172 -0.614401
O23   O     O_R   0.908400 0.408380 0.614690 -0.623658
O24   O     O_3   0.263068 0.967700 0.881647 -0.616775
O25   O     O_3   0.829771 0.595241 0.945311 -0.614398
O26   O     O_3   0.763360 0.465599 0.881607 -0.616685
O27   O     O_R   0.908400 0.591620 0.614690 -0.583098
O28   O     O_R   0.408370 0.908370 0.385350 -0.566991
O29   O     O_R   0.408370 0.091630 0.385350 -0.578467
O30   O     O_R   0.908370 0.408370 0.385350 -0.566691
O31   O     O_R   0.908370 0.591630 0.385350 -0.579885
O32   O     O_R   0.591610 0.091610 0.614650 -0.650921
Zn1   Zn    Zn3+2 0.500010 0.000000 0.653130 0.974664
Zn2   Zn    Zn3+2 0.000010 0.500000 0.653130 0.976617
Zn3   Zn    Zn3+2 0.499980 0.000000 0.346870 1.036097
Zn4   Zn    Zn3+2 0.999980 0.500000 0.346870 1.035967

loop_
_geom_bond_atom_site_label_1
_geom_bond_atom_site_label_2
_ccdc_geom_bond_type
C19   C56   S    
O28   Zn3   S    
C30   C32   A    
C21   C26   A    
C28   O10   S    
C12   O12   A    
C44   C66   S    
C50   H11   S    
C66   O20   S    
C47   H60   S    
O30   Zn4   S    
C27   C33   A    
C54   H24   S    
C46   O15   S    
C14   O5    A    
C59   H37   S    
C16   O7    A    
C61   O21   S    
C65   H59   S    
C20   C66   S    
C52   H17   S    
N1    Zn3   S    
C56   O19   S    
C18   C42   A    
N4    Zn2   S    
C20   C40   A    
C47   O16   S    
C64   H53   S    
C57   H31   S    
C12   C22   S    
C48   C56   S    
C67   H4    S    
C23   C26   S    
C2    C13   S    
C50   O10   S    
C62   H49   S    
C31   I1    S    
C60   H41   S    
C7    C68   A    
C59   O19   S    
C30   O13   S    
O5    Zn3   S    
C28   C35   A    
C54   H25   S    
C41   C46   S    
C49   H7    S    
C6    H6    S    
C3    N1    A    
C43   C48   S    
C60   H40   S    
C25   C34   S    
C4    I6    S    
C14   O32   A    
C51   O11   S    
C45   H62   S    
C27   O9    S    
C21   C67   S    
O1    Zn1   S    
C53   H22   S    
C46   H56   S    
C68   N1    A    
C55   O16   S    
C50   H10   S    
C35   I4    S    
C19   C43   A    
C5    N3    A    
O2    Zn1   S    
C23   O23   A    
C45   C47   S    
C25   C29   A    
C63   O24   S    
C59   H38   S    
C2    N2    A    
C24   C28   A    
C36   C40   A    
C16   O3    A    
C60   H42   S    
C55   H27   S    
C58   O18   S    
C54   O15   S    
C63   H50   S    
O7    Zn4   S    
C39   C43   A    
C1    O28   A    
C52   O13   S    
C57   H32   S    
C65   O26   S    
C59   H39   S    
C46   C67   S    
C65   H57   S    
C9    O24   S    
C35   C39   A    
C62   H48   S    
C64   O25   S    
C29   O11   S    
C15   O2    A    
C63   H51   S    
C67   O21   S    
N2    Zn4   S    
C66   H3    S    
C10   O26   S    
O6    Zn3   S    
C55   H29   S    
O29   Zn3   S    
C49   H8    S    
C58   H33   S    
O8    Zn4   S    
C32   C37   A    
C9    C11   S    
C51   H14   S    
O27   Zn2   S    
C21   C41   A    
O12   Zn1   S    
C4    C6    A    
C44   H45   S    
C26   C30   A    
C56   H2    S    
C22   C27   A    
C17   O4    A    
C6    N4    A    
C53   H21   S    
C48   H61   S    
N3    Zn1   S    
C58   H36   S    
C34   O27   A    
C61   H43   S    
C18   C45   S    
C51   H15   S    
C15   C36   S    
C32   I2    S    
O32   Zn1   S    
O31   Zn4   S    
C7    C9    S    
C57   O17   S    
C18   C22   A    
C52   H19   S    
C2    C8    A    
C45   O18   S    
C60   O20   S    
C55   H28   S    
C3    C5    A    
C10   C13   S    
C15   O6    A    
C11   H1    S    
C38   C42   A    
C12   O29   A    
C64   H55   S    
C5    H5    S    
C48   O17   S    
C33   C38   A    
C49   O9    S    
C8    N4    A    
C44   O14   S    
C65   H58   S    
C52   H18   S    
C19   C24   A    
C62   H47   S    
C29   C31   A    
C14   C37   S    
C7    N3    A    
C63   H52   S    
O23   Zn2   S    
C62   O22   S    
C23   O30   A    
C10   O25   S    
C64   H54   S    
C57   H30   S    
C49   H9    S    
C53   H20   S    
C3    I5    S    
C42   C47   S    
C37   C41   A    
C9    O22   S    
C54   H26   S    
C11   C68   S    
C1    O1    A    
C11   H12   S    
C16   C39   S    
C4    N2    A    
C33   I3    S    
C40   C44   S    
C17   C38   S    
C1    C24   S    
C8    C10   S    
C20   C25   A    
O4    Zn2   S    
C61   H46   S    
C31   C36   A    
C17   O8    A    
C58   H35   S    
O3    Zn2   S    
C13   H34   S    
C61   H44   S    
C53   O14   S    
C51   H16   S    
C13   H23   S    
C34   O31   A    
C50   H13   S    
