data_mof_unit_66049.cif
_audit_creation_date              2012-12-10T18:05:44-0500
_audit_creation_method            fapswitch 2.2
_symmetry_space_group_name_H-M    P1
_symmetry_Int_Tables_number       1
_space_group_crystal_system       triclinic
_cell_length_a                    25.991023
_cell_length_b                    25.988679
_cell_length_c                    22.204669
_cell_angle_alpha                 90.001945
_cell_angle_beta                  54.25923
_cell_angle_gamma                 89.998938
_cell_volume                      12173.9174932

loop_
_atom_site_label
_atom_site_type_symbol
_atom_type_description
_atom_site_fract_x
_atom_site_fract_y
_atom_site_fract_z
_atom_type_partial_charge
C1    C     C_R   0.400411 0.250011 0.699323 0.801122
C2    C     C_3   0.250231 0.703831 0.973826 0.579576
C3    C     C_3   0.248505 0.204588 0.973302 0.576149
C4    C     C_3   0.731149 0.285034 0.972996 0.568284
C5    C     C_3   0.268850 0.714966 0.027004 0.568286
C6    C     C_3   0.251495 0.295412 0.026698 0.576149
C7    C     C_3   0.748505 0.704588 0.973303 0.576149
C8    C     C_3   0.691088 0.238463 0.020928 -0.322692
C9    C     C_3   0.308911 0.761536 0.979072 -0.322694
C10   C     C_3   0.309295 0.259500 0.979269 -0.326040
C11   C     C_3   0.690705 0.740500 0.020731 -0.326042
C12   C     C_3   0.191089 0.738464 0.020928 -0.322694
C13   C     C_3   0.232570 0.286567 0.973334 0.575191
C14   C     C_3   0.808911 0.261537 0.979072 -0.322691
C15   C     C_3   0.809295 0.759500 0.979269 -0.326042
C16   C     C_3   0.190705 0.240500 0.020731 -0.326040
C17   C     C_1   0.638566 0.250190 0.221523 -0.097510
C18   C     C_1   0.361434 0.749810 0.778477 -0.097510
C19   C     C_1   0.361519 0.250354 0.778479 -0.095293
C20   C     C_1   0.638481 0.749645 0.221521 -0.095293
C21   C     C_1   0.138566 0.750190 0.221523 -0.097510
C22   C     C_1   0.861434 0.249810 0.778477 -0.097510
C23   C     C_1   0.861519 0.750354 0.778479 -0.095293
C24   C     C_3   0.767430 0.713433 0.026666 0.575193
C25   C     C_1   0.138481 0.249645 0.221521 -0.095293
C26   C     C_R   0.628190 0.225323 0.035626 0.229474
C27   C     C_R   0.625571 0.215515 0.975222 -0.038370
C28   C     C_R   0.568029 0.203024 0.986984 -0.148514
C29   C     C_R   0.512558 0.200428 0.059094 -0.100970
C30   C     C_R   0.514583 0.210372 0.119501 -0.118920
C31   C     C_R   0.572100 0.222749 0.107976 -0.100069
C32   C     C_R   0.371810 0.774676 0.964374 0.229475
C33   C     C_R   0.374428 0.784485 0.024778 -0.038369
C34   C     C_R   0.431971 0.796975 0.013016 -0.148514
C35   C     C_3   0.249769 0.796169 0.026174 0.579577
C36   C     C_R   0.487442 0.799570 0.940906 -0.100969
C37   C     C_R   0.485416 0.789625 0.880499 -0.118922
C38   C     C_R   0.427900 0.777249 0.892024 -0.100068
C39   C     C_R   0.372611 0.270298 0.964795 0.233214
C40   C     C_R   0.375515 0.278265 0.025352 -0.036643
C41   C     C_R   0.433452 0.288609 0.013792 -0.152987
C42   C     C_R   0.489021 0.290894 0.941727 -0.105153
C43   C     C_R   0.486705 0.282746 0.881169 -0.125799
C44   C     C_R   0.428802 0.272510 0.892495 -0.097783
C45   C     C_R   0.627390 0.729702 0.035205 0.233214
C46   C     C_3   0.750232 0.203831 0.973826 0.579577
C47   C     C_R   0.624485 0.721734 0.974649 -0.036642
C48   C     C_R   0.566549 0.711390 0.986209 -0.152987
C49   C     C_R   0.510979 0.709106 0.058273 -0.105154
C50   C     C_R   0.513295 0.717255 0.118832 -0.125800
C51   C     C_R   0.571198 0.727491 0.107505 -0.097783
C52   C     C_R   0.128190 0.725324 0.035626 0.229475
C53   C     C_R   0.125572 0.715515 0.975222 -0.038369
C54   C     C_R   0.068029 0.703025 0.986984 -0.148515
C55   C     C_R   0.012558 0.700429 0.059094 -0.100969
C56   C     C_R   0.014583 0.710375 0.119501 -0.118923
C57   C     C_3   0.732570 0.786566 0.973334 0.575194
C58   C     C_R   0.072100 0.722751 0.107976 -0.100068
C59   C     C_R   0.871810 0.274677 0.964374 0.229474
C60   C     C_R   0.874429 0.284486 0.024778 -0.038370
C61   C     C_R   0.931971 0.296977 0.013016 -0.148514
C62   C     C_R   0.987442 0.299572 0.940906 -0.100970
C63   C     C_R   0.985417 0.289627 0.880499 -0.118921
C64   C     C_R   0.927900 0.277250 0.892024 -0.100068
C65   C     C_R   0.872610 0.770298 0.964795 0.233214
C66   C     C_R   0.875514 0.778266 0.025351 -0.036642
C67   C     C_R   0.933451 0.788610 0.013791 -0.152988
C68   C     C_3   0.267430 0.213433 0.026665 0.575192
C69   C     C_R   0.989020 0.790893 0.941727 -0.105154
C70   C     C_R   0.986705 0.782744 0.881168 -0.125800
C71   C     C_R   0.928802 0.772508 0.892495 -0.097783
C72   C     C_R   0.127389 0.229702 0.035205 0.233214
C73   C     C_R   0.124485 0.221735 0.974648 -0.036643
C74   C     C_R   0.066548 0.211391 0.986208 -0.152988
C75   C     C_R   0.010979 0.209106 0.058273 -0.105153
C76   C     C_R   0.013295 0.217254 0.118831 -0.125798
C77   C     C_R   0.071198 0.227490 0.107505 -0.097783
C78   C     C_3   0.710087 0.249675 0.074038 -0.261782
C79   C     C_3   0.289913 0.750325 0.925962 -0.261779
C80   C     C_3   0.289989 0.250603 0.925970 -0.263051
C81   C     C_R   0.599589 0.749989 0.300677 0.801122
C82   C     C_3   0.710011 0.749397 0.074030 -0.263049
C83   C     C_3   0.210087 0.749675 0.074038 -0.261780
C84   C     C_3   0.789913 0.250324 0.925962 -0.261783
C85   C     C_3   0.789989 0.750603 0.925970 -0.263050
C86   C     C_3   0.210010 0.249397 0.074030 -0.263052
C87   C     C_1   0.670851 0.250053 0.154917 0.128149
C88   C     C_1   0.329149 0.749947 0.845083 0.128148
C89   C     C_1   0.329259 0.250531 0.845086 0.130504
C90   C     C_1   0.670741 0.749468 0.154914 0.130504
C91   C     C_1   0.170851 0.750053 0.154917 0.128148
C92   C     C_R   0.599583 0.250009 0.300679 0.805793
C93   C     C_1   0.829149 0.249947 0.845083 0.128148
C94   C     C_1   0.829259 0.750531 0.845086 0.130504
C95   C     C_1   0.170741 0.249468 0.154914 0.130504
C96   C     C_R   0.289733 0.206849 0.473872 0.521047
C97   C     C_R   0.710267 0.793151 0.526128 0.521046
C98   C     C_R   0.710415 0.206765 0.525831 0.523852
C99   C     C_R   0.289585 0.793234 0.474169 0.523851
C100  C     C_R   0.789733 0.706849 0.473872 0.521046
C101  C     C_R   0.210266 0.293151 0.526128 0.521047
C102  C     C_R   0.210415 0.706765 0.525831 0.523851
C103  C     C_R   0.400417 0.749991 0.699321 0.805793
C104  C     C_R   0.789585 0.293234 0.474169 0.523852
C105  C     C_R   0.236345 0.206828 0.473922 0.510495
C106  C     C_R   0.763655 0.793172 0.526078 0.510498
C107  C     C_R   0.763806 0.206745 0.525781 0.509643
C108  C     C_R   0.236194 0.793254 0.474219 0.509642
C109  C     C_R   0.736345 0.706828 0.473922 0.510498
C110  C     C_R   0.263655 0.293171 0.526078 0.510495
C111  C     C_R   0.263806 0.706745 0.525781 0.509642
C112  C     C_R   0.736194 0.293254 0.474219 0.509642
C113  C     C_R   0.196254 0.249982 0.500044 -0.512319
C114  C     C_R   0.900411 0.750011 0.699323 0.801122
C115  C     C_R   0.803746 0.750018 0.499955 -0.512319
C116  C     C_R   0.803747 0.249982 0.499955 -0.513589
C117  C     C_R   0.196253 0.750018 0.500045 -0.513588
C118  C     C_R   0.696254 0.749982 0.500044 -0.512319
C119  C     C_R   0.303746 0.250018 0.499955 -0.512318
C120  C     C_R   0.303747 0.749982 0.499955 -0.513588
C121  C     C_R   0.696253 0.250018 0.500045 -0.513589
C122  C     C_R   0.469483 0.026687 0.474388 0.530283
C123  C     C_R   0.530517 0.973313 0.525612 0.530283
C124  C     C_R   0.530519 0.026687 0.525609 0.531539
C125  C     C_R   0.099589 0.249989 0.300677 0.801122
C126  C     C_R   0.469481 0.973312 0.474391 0.531539
C127  C     C_R   0.969483 0.526687 0.474388 0.530281
C128  C     C_R   0.030517 0.473313 0.525612 0.530281
C129  C     C_R   0.030519 0.526687 0.525609 0.531542
C130  C     C_R   0.969481 0.473312 0.474391 0.531542
C131  C     C_R   0.499998 0.946272 0.500003 -0.519388
C132  C     C_R   0.500002 0.053728 0.499997 -0.519388
C133  C     C_R   0.999998 0.446272 0.500003 -0.519388
C134  C     C_R   0.000002 0.553728 0.499997 -0.519388
C135  C     C_R   0.640183 0.250028 0.500015 0.969187
C136  C     C_R   0.099583 0.750009 0.300679 0.805793
C137  C     C_R   0.359817 0.749972 0.499985 0.969187
C138  C     C_R   0.359816 0.250028 0.499985 0.969799
C139  C     C_R   0.640184 0.749972 0.500015 0.969799
C140  C     C_R   0.140183 0.750028 0.500015 0.969187
C141  C     C_R   0.859817 0.249972 0.499985 0.969187
C142  C     C_R   0.859816 0.750028 0.499985 0.969799
C143  C     C_R   0.140184 0.249972 0.500015 0.969799
C144  C     C_R   0.500001 0.109817 0.499999 0.978999
C145  C     C_R   0.499999 0.890183 0.500001 0.978999
C146  C     C_R   0.000001 0.609817 0.499999 0.978999
C147  C     C_R   0.900417 0.249991 0.699321 0.805793
C148  C     C_R   0.999999 0.390183 0.500001 0.978999
C149  C     C_R   0.499999 0.390235 0.500001 0.804944
C150  C     C_R   0.500001 0.609765 0.499998 0.804944
C151  C     C_R   0.999999 0.890235 0.500001 0.804944
C152  C     C_R   0.000001 0.109765 0.499998 0.804944
C153  C     C_R   0.556936 0.473306 0.453140 -0.139675
C154  C     C_R   0.443063 0.526694 0.546860 -0.139675
C155  C     C_R   0.443062 0.473311 0.546862 -0.140164
C156  C     C_R   0.556937 0.526689 0.453138 -0.140164
C157  C     C_R   0.056937 0.973306 0.453140 -0.139675
C158  C     C_3   0.749768 0.296169 0.026174 0.579577
C159  C     C_R   0.943063 0.026694 0.546860 -0.139675
C160  C     C_R   0.943062 0.973311 0.546862 -0.140164
C161  C     C_R   0.056937 0.026689 0.453138 -0.140164
C162  C     C_R   0.500001 0.553676 0.499998 -0.023336
C163  C     C_R   0.499999 0.446324 0.500002 -0.023336
C164  C     C_R   0.000001 0.053676 0.499998 -0.023336
C165  C     C_R   0.999999 0.946324 0.500002 -0.023336
C166  C     C_3   0.231149 0.785034 0.972996 0.568285
C167  C     C_3   0.768851 0.214966 0.027004 0.568283
C168  C     C_3   0.751495 0.795411 0.026697 0.576148
F1    F     F_    0.212069 0.822082 0.945176 -0.601362
F2    F     F_    0.748731 0.344430 0.053098 -0.589091
F3    F     F_    0.785000 0.674815 0.054113 -0.593161
F4    F     F_    0.215000 0.325186 0.945887 -0.593160
F5    F     F_    0.751269 0.155569 0.946901 -0.589090
F6    F     F_    0.248732 0.844430 0.053098 -0.589091
F7    F     F_    0.285000 0.174814 0.054113 -0.593160
F8    F     F_    0.715000 0.825185 0.945887 -0.593161
F9    F     F_    0.326776 0.164104 0.449852 -0.535228
F10   F     F_    0.673224 0.835896 0.550148 -0.535228
F11   F     F_    0.673523 0.163943 0.549540 -0.532787
F12   F     F_    0.787932 0.177918 0.054824 -0.601361
F13   F     F_    0.326477 0.836057 0.450460 -0.532787
F14   F     F_    0.826775 0.664104 0.449852 -0.535228
F15   F     F_    0.173224 0.335896 0.550148 -0.535228
F16   F     F_    0.173523 0.663943 0.549540 -0.532787
F17   F     F_    0.826477 0.336057 0.450460 -0.532787
F18   F     F_    0.223282 0.164059 0.449941 -0.561154
F19   F     F_    0.776717 0.835940 0.550058 -0.561155
F20   F     F_    0.777030 0.163901 0.549456 -0.561356
F21   F     F_    0.222969 0.836099 0.450544 -0.561356
F22   F     F_    0.723282 0.664060 0.449942 -0.561155
F23   F     F_    0.752269 0.842934 0.054180 -0.590339
F24   F     F_    0.276718 0.335940 0.550058 -0.561154
F25   F     F_    0.277031 0.663901 0.549456 -0.561356
F26   F     F_    0.722969 0.336099 0.450544 -0.561356
F27   F     F_    0.438327 0.051750 0.450898 -0.527301
F28   F     F_    0.561673 0.948250 0.549102 -0.527301
F29   F     F_    0.561679 0.051750 0.549094 -0.526110
F30   F     F_    0.438321 0.948250 0.450906 -0.526110
F31   F     F_    0.938326 0.551750 0.450899 -0.527300
F32   F     F_    0.061674 0.448250 0.549101 -0.527300
F33   F     F_    0.061679 0.551750 0.549094 -0.526111
F34   F     F_    0.247730 0.157066 0.945820 -0.590337
F35   F     F_    0.938321 0.448250 0.450906 -0.526111
F36   F     F_    0.712068 0.322082 0.945177 -0.601362
F37   F     F_    0.287931 0.677918 0.054824 -0.601362
F38   F     F_    0.252269 0.342934 0.054180 -0.590337
F39   F     F_    0.747731 0.657066 0.945820 -0.590339
F40   F     F_    0.251268 0.655570 0.946902 -0.589091
H1    H     H_    0.601468 0.453245 0.416507 0.194814
H2    H     H_    0.566432 0.195440 0.940168 0.165935
H3    H     H_    0.468004 0.190831 0.068149 0.169800
H4    H     H_    0.471527 0.208480 0.175361 0.169162
H5    H     H_    0.572139 0.230295 0.155682 0.144716
H6    H     H_    0.331809 0.782541 0.081033 0.164198
H7    H     H_    0.433567 0.804559 0.059832 0.165935
H8    H     H_    0.531995 0.809167 0.931851 0.169799
H9    H     H_    0.528473 0.791517 0.824639 0.169161
H10   H     H_    0.427861 0.769702 0.844318 0.144716
H11   H     H_    0.332815 0.276565 0.081568 0.160556
H12   H     H_    0.398532 0.546755 0.583493 0.194814
H13   H     H_    0.435266 0.294809 0.060724 0.156921
H14   H     H_    0.533868 0.298883 0.932819 0.163067
H15   H     H_    0.529835 0.284389 0.825344 0.156879
H16   H     H_    0.428534 0.266333 0.844675 0.139870
H17   H     H_    0.667186 0.723433 0.918432 0.160557
H18   H     H_    0.564735 0.705190 0.939276 0.156921
H19   H     H_    0.466132 0.701117 0.067182 0.163068
H20   H     H_    0.470165 0.715613 0.174656 0.156879
H21   H     H_    0.571466 0.733669 0.155324 0.139871
H22   H     H_    0.168191 0.717459 0.918967 0.164198
H23   H     H_    0.398531 0.453254 0.583496 0.195022
H24   H     H_    0.066433 0.695441 0.940168 0.165935
H25   H     H_    0.968005 0.690833 0.068149 0.169800
H26   H     H_    0.971527 0.708483 0.175361 0.169161
H27   H     H_    0.072139 0.730298 0.155682 0.144715
H28   H     H_    0.831810 0.282541 0.081033 0.164198
H29   H     H_    0.933568 0.304561 0.059832 0.165936
H30   H     H_    0.031996 0.309169 0.931851 0.169799
H31   H     H_    0.028473 0.291519 0.824639 0.169161
H32   H     H_    0.927861 0.269703 0.844318 0.144716
H33   H     H_    0.832814 0.776567 0.081568 0.160557
H34   H     H_    0.601469 0.546745 0.416504 0.195022
H35   H     H_    0.935264 0.794811 0.060723 0.156922
H36   H     H_    0.033868 0.798882 0.932818 0.163068
H37   H     H_    0.029835 0.784387 0.825344 0.156879
H38   H     H_    0.928534 0.766331 0.844676 0.139871
H39   H     H_    0.167185 0.223435 0.918431 0.160556
H40   H     H_    0.064734 0.205192 0.939276 0.156921
H41   H     H_    0.966131 0.201118 0.067181 0.163068
H42   H     H_    0.970165 0.215611 0.174656 0.156879
H43   H     H_    0.071466 0.233666 0.155325 0.139870
H44   H     H_    0.101468 0.953245 0.416507 0.194814
H45   H     H_    0.898532 0.046755 0.583493 0.194814
H46   H     H_    0.898531 0.953254 0.583496 0.195022
H47   H     H_    0.101469 0.046745 0.416504 0.195022
H48   H     H_    0.668190 0.217460 0.918967 0.164197
O1    O     O_3   0.500000 0.250030 0.500000 -0.552979
O2    O     O_R   0.112550 0.219620 0.335580 -0.622654
O3    O     O_R   0.112550 0.780380 0.335580 -0.622508
O4    O     O_R   0.887450 0.219620 0.664420 -0.622508
O5    O     O_R   0.594260 0.219670 0.543090 -0.580267
O6    O     O_R   0.405740 0.780330 0.456910 -0.580267
O7    O     O_R   0.405740 0.219670 0.456910 -0.581317
O8    O     O_R   0.594260 0.780330 0.543090 -0.581317
O9    O     O_R   0.094260 0.719670 0.543090 -0.580267
O10   O     O_R   0.905740 0.280330 0.456910 -0.580267
O11   O     O_R   0.905740 0.719670 0.456910 -0.581317
O12   O     O_3   0.500000 0.749970 0.500000 -0.552979
O13   O     O_R   0.094260 0.280330 0.543090 -0.581317
O14   O     O_R   0.508800 0.134220 0.543090 -0.576442
O15   O     O_R   0.491200 0.865780 0.456910 -0.576443
O16   O     O_R   0.491200 0.134220 0.456910 -0.577664
O17   O     O_R   0.508800 0.865780 0.543090 -0.577664
O18   O     O_R   0.008800 0.634220 0.543090 -0.576443
O19   O     O_R   0.991200 0.365780 0.456910 -0.576443
O20   O     O_R   0.991200 0.634220 0.456910 -0.577664
O21   O     O_R   0.008800 0.365780 0.543090 -0.577664
O22   O     O_R   0.448100 0.365830 0.543110 -0.631499
O23   O     O_3   0.000000 0.750030 0.500000 -0.552979
O24   O     O_R   0.551900 0.634170 0.456890 -0.631499
O25   O     O_R   0.551900 0.365830 0.456890 -0.631539
O26   O     O_R   0.448100 0.634170 0.543110 -0.631538
O27   O     O_R   0.948100 0.865830 0.543110 -0.631499
O28   O     O_R   0.051900 0.134170 0.456890 -0.631499
O29   O     O_R   0.051900 0.865830 0.456890 -0.631539
O30   O     O_R   0.948100 0.134170 0.543110 -0.631538
O31   O     O_R   0.637370 0.280400 0.456880 -0.588944
O32   O     O_R   0.362630 0.719600 0.543120 -0.588944
O33   O     O_R   0.362630 0.280400 0.543120 -0.588209
O34   O     O_3   0.000000 0.249970 0.500000 -0.552979
O35   O     O_R   0.637370 0.719600 0.456880 -0.588209
O36   O     O_R   0.137370 0.780400 0.456880 -0.588944
O37   O     O_R   0.862630 0.219600 0.543120 -0.588944
O38   O     O_R   0.862630 0.780400 0.543120 -0.588209
O39   O     O_R   0.137370 0.219600 0.456880 -0.588209
O40   O     O_R   0.448170 0.219660 0.664410 -0.625995
O41   O     O_R   0.551830 0.780340 0.335590 -0.625996
O42   O     O_R   0.551830 0.219660 0.335590 -0.631335
O43   O     O_R   0.448170 0.780340 0.664410 -0.631335
O44   O     O_R   0.948170 0.719660 0.664410 -0.625996
O45   O     O_R   0.387450 0.280380 0.664420 -0.622654
O46   O     O_R   0.051830 0.280340 0.335590 -0.625995
O47   O     O_R   0.051830 0.719660 0.335590 -0.631335
O48   O     O_R   0.948170 0.280340 0.664410 -0.631335
O49   O     O_R   0.612550 0.719620 0.335580 -0.622653
O50   O     O_R   0.612550 0.280380 0.335580 -0.622507
O51   O     O_R   0.387450 0.719620 0.664420 -0.622508
O52   O     O_R   0.887450 0.780380 0.664420 -0.622653
Zn1   Zn    Zn3+2 0.574170 0.293410 0.438410 1.032819
Zn2   Zn    Zn3+2 0.487410 0.793350 0.438420 1.074526
Zn3   Zn    Zn3+2 0.487410 0.206650 0.438420 1.070578
Zn4   Zn    Zn3+2 0.512590 0.793350 0.561580 1.070579
Zn5   Zn    Zn3+2 0.012590 0.706650 0.561580 1.074526
Zn6   Zn    Zn3+2 0.987410 0.293350 0.438420 1.074526
Zn7   Zn    Zn3+2 0.987410 0.706650 0.438420 1.070579
Zn8   Zn    Zn3+2 0.012590 0.293350 0.561580 1.070579
Zn9   Zn    Zn3+2 0.425830 0.706590 0.561590 1.032819
Zn10  Zn    Zn3+2 0.425830 0.293410 0.561590 1.033176
Zn11  Zn    Zn3+2 0.574170 0.706590 0.438410 1.033177
Zn12  Zn    Zn3+2 0.074170 0.793410 0.438410 1.032819
Zn13  Zn    Zn3+2 0.925830 0.206590 0.561590 1.032819
Zn14  Zn    Zn3+2 0.925830 0.793410 0.561590 1.033177
Zn15  Zn    Zn3+2 0.074170 0.206590 0.438410 1.033177
Zn16  Zn    Zn3+2 0.512590 0.206650 0.561580 1.074526

loop_
_geom_bond_atom_site_label_1
_geom_bond_atom_site_label_2
_ccdc_geom_bond_type
C132  C144  S    
C98   C121  A    
C75   C76   A    
O49   Zn11  S    
C8    C26   S    
C38   H10   S    
C50   H20   S    
C55   C56   A    
C76   H42   S    
O31   Zn1   S    
C139  O35   A    
C14   C59   S    
C78   C167  S    
C14   C158  S    
O26   Zn9   S    
O32   Zn9   S    
C146  O20   A    
C34   H7    S    
C63   H31   S    
O4    Zn13  S    
C152  O30   A    
C7    C24   S    
C101  C113  A    
C148  O21   A    
C73   C74   A    
C147  O4    A    
C24   F3    S    
C104  C116  A    
C13   F4    S    
O38   Zn14  S    
C14   C84   S    
C15   C85   S    
C137  O6    A    
C167  F12   S    
C100  C109  A    
C102  C111  A    
C100  C115  A    
O11   Zn7   S    
C109  C118  A    
O48   Zn8   S    
C45   C47   A    
C134  C146  S    
C46   C167  S    
C58   H27   S    
O12   Zn11  S    
C10   C80   S    
C101  C110  A    
C124  F29   S    
C144  O14   A    
C43   C44   A    
C37   C38   A    
O22   Zn10  S    
C48   H18   S    
O18   Zn5   S    
C4    C84   S    
C142  O11   A    
C153  C156  A    
C154  C155  A    
O12   Zn4   S    
C52   C58   A    
C46   C84   S    
C25   C95   T    
C123  F28   S    
C2    F40   S    
O52   Zn14  S    
C1    O40   A    
C17   C87   T    
O39   Zn15  S    
C72   C73   A    
C146  O18   A    
C62   H30   S    
O34   Zn15  S    
C69   H36   S    
C73   H39   S    
C10   C68   S    
C142  O38   A    
C83   C91   S    
C106  C115  A    
C143  O39   A    
C97   F10   S    
C125  O2    A    
C57   C85   S    
C84   C93   S    
C69   C70   A    
O41   Zn2   S    
C64   H32   S    
C86   C95   S    
C70   H37   S    
C3    F34   S    
C149  O25   A    
O23   Zn7   S    
C78   C87   S    
C153  H1    S    
O51   Zn9   S    
C127  C134  A    
O7    Zn3   S    
C128  C129  A    
O1    Zn16  S    
C136  O47   A    
C81   O49   A    
C123  C124  A    
C57   C168  S    
C53   C54   A    
C99   C108  A    
C153  C163  A    
O23   Zn14  S    
C105  C113  A    
C36   C37   A    
C144  O16   A    
C138  O33   A    
C151  O27   A    
C124  C132  A    
C9    C79   S    
C78   C158  S    
O33   Zn10  S    
C27   H48   S    
C53   H22   S    
C129  F33   S    
C126  F30   S    
C66   C67   A    
O29   Zn12  S    
C56   H26   S    
O6    Zn2   S    
C151  O29   A    
O34   Zn13  S    
C54   H24   S    
C11   C82   S    
O15   Zn2   S    
O28   Zn15  S    
C7    F39   S    
O2    Zn15  S    
C157  C165  A    
C39   C40   A    
C104  C112  A    
C158  F2    S    
C155  C163  A    
C151  C165  S    
C107  F20   S    
C18   C88   T    
C129  C134  A    
C105  F18   S    
C43   H15   S    
C5    C9    S    
C29   C30   A    
C74   H40   S    
C109  F22   S    
O20   Zn7   S    
C112  F26   S    
C102  C117  A    
C15   C24   S    
C2    C5    S    
C52   C53   A    
O34   Zn6   S    
C115  C142  S    
C54   C55   A    
O23   Zn12  S    
C143  O13   A    
C119  C138  S    
C108  C117  A    
C154  C162  A    
C127  F31   S    
C110  C119  A    
C39   C44   A    
C31   H5    S    
C66   H33   S    
C6    C86   S    
C141  O10   A    
C98   F11   S    
O16   Zn3   S    
C112  C121  A    
C75   H41   S    
C36   H8    S    
C92   O50   A    
C56   C58   A    
C131  C145  S    
C34   C36   A    
C61   C62   A    
C15   C168  S    
C8    C46   S    
C107  C116  A    
C6    F38   S    
O47   Zn7   S    
C63   C64   A    
O43   Zn4   S    
C59   C60   A    
C49   C50   A    
C13   C16   S    
C159  C164  A    
C42   H14   S    
C130  F35   S    
C152  O28   A    
C16   C86   S    
C96   C105  A    
C51   H21   S    
C41   C42   A    
C96   C119  A    
C3    C68   S    
C16   C72   S    
C37   H9    S    
C122  F27   S    
O8    Zn4   S    
C82   C168  S    
C103  O43   A    
C26   C27   A    
C28   C29   A    
O25   Zn1   S    
C106  F19   S    
C30   C31   A    
C28   H2    S    
C15   C65   S    
C35   C166  S    
C160  H46   S    
C80   C89   S    
C25   C125  S    
C2    C79   S    
C9    C32   S    
O37   Zn13  S    
C70   C71   A    
C44   H16   S    
C96   F9    S    
C49   H19   S    
C100  F14   S    
C101  F15   S    
C13   C80   S    
O46   Zn6   S    
C114  O44   A    
C3    C80   S    
C79   C88   S    
C12   C52   S    
C68   F7    S    
C29   H3    S    
O19   Zn6   S    
C150  C162  S    
C1    C19   S    
O50   Zn1   S    
O13   Zn8   S    
C67   H35   S    
C137  O32   A    
C98   C107  A    
C113  C143  S    
C12   C83   S    
C92   O42   A    
C10   C39   S    
C128  F32   S    
C62   C63   A    
O42   Zn3   S    
C140  O36   A    
C141  O37   A    
C159  C160  A    
C47   H17   S    
O44   Zn5   S    
C136  O3    A    
C50   C51   A    
C46   F5    S    
C160  C165  A    
C111  F25   S    
C97   C106  A    
C48   C49   A    
O24   Zn11  S    
C40   H11   S    
C11   C45   S    
C130  C133  A    
C42   C43   A    
C159  H45   S    
C154  H12   S    
C118  C139  S    
C157  C161  A    
C161  C164  A    
C21   C91   T    
O23   Zn5   S    
C147  O48   A    
C35   C83   S    
C123  C131  A    
C6    C10   S    
C33   H6    S    
C82   C90   S    
C32   C33   A    
C61   H29   S    
O27   Zn14  S    
C23   C114  S    
C30   H4    S    
C7    C85   S    
C18   C103  S    
C150  O24   A    
O30   Zn13  S    
C116  C141  S    
C22   C147  S    
C9    C35   S    
C60   C61   A    
O35   Zn11  S    
C120  C137  S    
C71   H38   S    
C14   C167  S    
C11   C57   S    
C41   H13   S    
C68   C86   S    
C60   H28   S    
C4    C8    S    
C2    C12   S    
O1    Zn10  S    
O3    Zn12  S    
C7    C11   S    
C104  F17   S    
C59   C64   A    
C168  F23   S    
O10   Zn6   S    
C12   C166  S    
C5    C83   S    
C4    F36   S    
C45   C51   A    
O45   Zn10  S    
C150  O26   A    
C155  H23   S    
C97   C118  A    
O1    Zn1   S    
C24   C82   S    
C99   C120  A    
C4    C158  S    
C149  C163  S    
C32   C38   A    
C21   C136  S    
O9    Zn5   S    
C156  C162  A    
C26   C31   A    
C20   C81   S    
C8    C78   S    
C1    O45   A    
C17   C92   S    
C55   H25   S    
O5    Zn16  S    
C122  C132  A    
C99   F13   S    
C74   C75   A    
C76   C77   A    
O21   Zn8   S    
C65   C71   A    
C20   C90   T    
C121  C135  S    
C111  C120  A    
C67   C69   A    
C122  C126  A    
C145  O17   A    
C72   C77   A    
C19   C89   T    
C81   O41   A    
C57   F8    S    
C85   C94   S    
C47   C48   A    
C33   C34   A    
C148  O19   A    
C133  C148  S    
C149  O22   A    
O17   Zn4   S    
C152  C164  S    
C156  H34   S    
C77   H43   S    
C125  O46   A    
C40   C41   A    
C135  O5    A    
C103  O51   A    
C22   C93   T    
C108  F21   S    
C135  O31   A    
C157  H44   S    
C161  H47   S    
C35   F6    S    
C23   C94   T    
C145  O15   A    
C102  F16   S    
O1    Zn3   S    
C127  C130  A    
C128  C133  A    
C6    C13   S    
O12   Zn9   S    
O36   Zn12  S    
C126  C131  A    
O34   Zn8   S    
C110  F24   S    
C114  O52   A    
C79   C166  S    
C3    C16   S    
C5    F37   S    
C117  C140  S    
C138  O7    A    
C166  F1    S    
C65   C66   A    
O40   Zn16  S    
C27   C28   A    
O14   Zn16  S    
C140  O9    A    
C139  O8    A    
O12   Zn2   S    
