data_mof_unit_39935.cif
_audit_creation_date              2012-12-10T19:45:03-0500
_audit_creation_method            fapswitch 2.2
_symmetry_space_group_name_H-M    P1
_symmetry_Int_Tables_number       1
_space_group_crystal_system       triclinic
_cell_length_a                    15.063422
_cell_length_b                    10.818952
_cell_length_c                    13.683356
_cell_angle_alpha                 89.959563
_cell_angle_beta                  89.380382
_cell_angle_gamma                 89.5334
_cell_volume                      2229.77777754

loop_
_atom_site_label
_atom_site_type_symbol
_atom_type_description
_atom_site_fract_x
_atom_site_fract_y
_atom_site_fract_z
_atom_type_partial_charge
C1    C     C_R   0.497688 0.262176 0.499920 0.795003
C2    C     C_R   0.587054 0.877407 0.661493 0.113713
C3    C     C_R   0.446320 0.110432 0.242724 -0.158380
C4    C     C_R   0.553644 0.889660 0.757288 -0.158432
C5    C     C_R   0.405400 0.173023 0.165672 -0.138641
C6    C     C_R   0.594555 0.827127 0.834374 -0.138641
C7    C     C_R   0.330825 0.247660 0.183637 -0.110394
C8    C     C_R   0.669126 0.752467 0.816450 -0.110424
C9    C     C_R   0.465029 0.933787 0.421917 -0.222205
C10   C     C_R   0.534973 0.066216 0.578075 -0.222221
C11   C     C_R   0.504362 0.871691 0.500294 -0.070062
C12   C     C_R   0.502311 0.737824 0.500079 0.794992
C13   C     C_R   0.495639 0.128310 0.499702 -0.070071
C14   C     C_R   0.540737 0.938195 0.578993 0.010438
C15   C     C_R   0.459258 0.061808 0.421004 0.010432
C16   C     C_R   0.328859 0.495613 0.500594 0.801087
C17   C     C_R   0.671141 0.504384 0.499406 0.801088
C18   C     C_R   0.554485 0.419955 0.792675 0.011721
C19   C     C_R   0.445513 0.580043 0.207325 0.011729
C20   C     C_R   0.445597 0.580062 0.793851 0.024877
C21   C     C_R   0.554400 0.419934 0.206149 0.024865
C22   C     C_R   0.444458 0.582217 0.896955 -0.008619
C23   C     C_R   0.040324 0.337819 0.626021 -0.158376
C24   C     C_R   0.555537 0.417777 0.103045 -0.008646
C25   C     C_R   0.500027 0.500025 0.948164 0.083063
C26   C     C_R   0.499968 0.499969 0.051836 0.083060
C27   C     C_R   0.555639 0.417862 0.895755 -0.008667
C28   C     C_R   0.444356 0.582132 0.104245 -0.008673
C29   C     C_R   0.389376 0.664289 0.949830 -0.213486
C30   C     C_R   0.610614 0.335699 0.050170 -0.213510
C31   C     C_R   0.389281 0.664195 0.052556 -0.212311
C32   C     C_R   0.610710 0.335794 0.947445 -0.212300
C33   C     C_R   0.814889 0.592423 0.438248 -0.050880
C34   C     C_R   0.959676 0.662221 0.374015 -0.158399
C35   C     C_R   0.185111 0.407575 0.561753 -0.050878
C36   C     C_R   0.767675 0.508327 0.498134 -0.144805
C37   C     C_R   0.232325 0.491676 0.501872 -0.144821
C38   C     C_R   0.812348 0.427566 0.560502 -0.250270
C39   C     C_R   0.187652 0.572461 0.439523 -0.250279
C40   C     C_R   0.904418 0.424604 0.562149 0.113922
C41   C     C_R   0.095583 0.575423 0.437877 0.113922
C42   C     C_R   0.953244 0.503070 0.499837 0.037789
C43   C     C_R   0.046756 0.496943 0.500177 0.037777
C44   C     C_R   0.908808 0.587481 0.437323 0.092983
C45   C     C_R   0.296358 0.258685 0.278516 -0.105102
C46   C     C_R   0.091192 0.412531 0.562691 0.092996
C47   C     C_R   0.948154 0.343308 0.625096 -0.224799
C48   C     C_R   0.051848 0.656743 0.374949 -0.224793
C49   C     C_2   0.765888 0.688677 0.382188 0.275051
C50   C     C_2   0.234109 0.311313 0.617807 0.275016
C51   C     C_R   0.703596 0.741356 0.721578 -0.105141
C52   C     C_R   0.336865 0.195918 0.355696 -0.096828
C53   C     C_R   0.663097 0.804068 0.644363 -0.096710
C54   C     C_R   0.412915 0.122607 0.338527 0.113706
Cu1   Cu    Cu3+1 0.500010 0.499980 0.597420 0.941193
Cu2   Cu    Cu3+1 0.499990 0.500020 0.402580 0.941204
H1    H     H_    0.435825 0.882215 0.362539 0.146849
H2    H     H_    0.225157 0.634631 0.392758 0.146275
H3    H     H_    0.910917 0.283890 0.674136 0.146751
H4    H     H_    0.089085 0.716191 0.325930 0.146752
H5    H     H_    0.070812 0.275672 0.677888 0.187355
H6    H     H_    0.929193 0.724391 0.322162 0.187371
H7    H     H_    0.299819 0.297000 0.124051 0.129004
H8    H     H_    0.700129 0.703179 0.876065 0.129015
H9    H     H_    0.238602 0.316489 0.292418 0.136774
H10   H     H_    0.761351 0.683536 0.707709 0.136765
H11   H     H_    0.310050 0.206022 0.428982 0.141121
H12   H     H_    0.564177 0.117787 0.637452 0.146856
H13   H     H_    0.689919 0.793906 0.571083 0.141078
H14   H     H_    0.504970 0.054591 0.228114 0.130221
H15   H     H_    0.494999 0.945529 0.771867 0.130240
H16   H     H_    0.432078 0.164726 0.092176 0.138541
H17   H     H_    0.567876 0.835496 0.907866 0.138533
H18   H     H_    0.710468 0.664229 0.336506 0.117387
H19   H     H_    0.289540 0.335753 0.663476 0.117387
H20   H     H_    0.346169 0.728331 0.091552 0.139229
H21   H     H_    0.653819 0.271654 0.908448 0.139230
H22   H     H_    0.596965 0.357583 0.751225 0.122134
H23   H     H_    0.403034 0.642416 0.248775 0.122134
H24   H     H_    0.403314 0.642649 0.753316 0.132567
H25   H     H_    0.596682 0.357345 0.246684 0.132565
H26   H     H_    0.346371 0.728527 0.911760 0.142765
H27   H     H_    0.653615 0.271454 0.088241 0.142766
H28   H     H_    0.774843 0.365416 0.607284 0.146281
N1    N     N_R   0.499960 0.499900 0.743810 -0.183098
N2    N     N_R   0.500040 0.500100 0.256190 -0.183091
O1    O     O_R   0.500000 0.319630 0.582270 -0.594896
O2    O     O_2   0.214245 0.202501 0.610902 -0.554453
O3    O     O_R   0.500000 0.680370 0.417730 -0.594886
O4    O     O_R   0.499990 0.319660 0.417730 -0.571741
O5    O     O_R   0.500010 0.680340 0.582270 -0.571753
O6    O     O_R   0.370260 0.499960 0.582280 -0.602122
O7    O     O_R   0.629740 0.500040 0.417720 -0.602121
O8    O     O_R   0.370250 0.499990 0.417740 -0.577591
O9    O     O_R   0.629750 0.500010 0.582260 -0.577605
O10   O     O_2   0.785733 0.797494 0.389103 -0.554454

loop_
_geom_bond_atom_site_label_1
_geom_bond_atom_site_label_2
_ccdc_geom_bond_type
C1    O1    A    
C40   C47   A    
C30   C32   A    
Cu1   Cu2   S    
C1    O4    A    
C22   C29   A    
C12   O5    A    
C19   N2    A    
C53   H13   S    
C39   C41   A    
Cu2   O8    S    
C7    C45   A    
C35   C37   A    
C24   C26   A    
C5    H16   S    
C3    C54   A    
C33   C49   S    
C34   H6    S    
C33   C36   A    
C30   H27   S    
Cu1   O5    S    
C32   H21   S    
C22   C25   A    
C17   O9    A    
C17   C36   S    
C50   O2    D    
C16   C37   S    
C40   C42   A    
C23   C46   A    
C41   C43   A    
C42   C44   A    
C52   C54   A    
C48   H4    S    
Cu2   O7    S    
C18   N1    A    
C23   C47   A    
C20   H24   S    
C15   C54   S    
C12   O3    A    
C3    H14   S    
C34   C44   A    
Cu1   O9    S    
C10   C14   A    
C5    C7    A    
C6    C8    A    
C45   C52   A    
C25   C26   A    
C39   H2    S    
C10   C13   A    
C51   C53   A    
C51   H10   S    
Cu1   N1    S    
C1    C13   S    
C2    C4    A    
Cu1   O6    S    
Cu2   N2    S    
C18   H22   S    
C20   N1    A    
C35   C50   S    
C19   H23   S    
C19   C28   A    
C9    C11   A    
C8    C51   A    
C7    H7    S    
C52   H11   S    
C8    H8    S    
C4    C6    A    
Cu2   O3    S    
C20   C22   A    
C16   O6    A    
C13   C15   A    
C45   H9    S    
C17   O7    A    
C42   C43   A    
C6    H17   S    
C21   N2    A    
C38   H28   S    
C27   C32   A    
C33   C44   A    
C16   O8    A    
C28   C31   A    
C18   C27   A    
C21   H25   S    
C3    C5    A    
C2    C53   A    
C11   C12   S    
C10   H12   S    
C25   C27   A    
C26   C28   A    
C36   C38   A    
C9    C15   A    
C29   H26   S    
C37   C39   A    
C50   H19   S    
C38   C40   A    
C31   H20   S    
Cu2   O4    S    
C11   C14   A    
C41   C48   A    
C9    H1    S    
C49   O10   D    
Cu1   O1    S    
C2    C14   S    
C43   C46   A    
C24   C30   A    
C47   H3    S    
C23   H5    S    
C34   C48   A    
C29   C31   A    
C21   C24   A    
C49   H18   S    
C35   C46   A    
C4    H15   S    
