data_mof_unit_33636.cif
_audit_creation_date              2012-12-10T20:44:48-0500
_audit_creation_method            fapswitch 2.2
_symmetry_space_group_name_H-M    P1
_symmetry_Int_Tables_number       1
_space_group_crystal_system       triclinic
_cell_length_a                    9.872333
_cell_length_b                    10.777593
_cell_length_c                    16.830524
_cell_angle_alpha                 88.98331
_cell_angle_beta                  94.392989
_cell_angle_gamma                 90.961572
_cell_volume                      1785.01175382

loop_
_atom_site_label
_atom_site_type_symbol
_atom_type_description
_atom_site_fract_x
_atom_site_fract_y
_atom_site_fract_z
_atom_type_partial_charge
C1    C     C_R   0.497101 0.260877 0.493031 0.933404
C2    C     C_R   0.486632 0.130345 0.477192 -0.145985
C3    C     C_R   0.364706 0.063272 0.488148 -0.132286
C4    C     C_R   0.517143 0.506103 0.653888 0.982885
C5    C     C_R   0.374837 0.937816 0.510238 -0.158160
C6    C     C_R   0.496389 0.873973 0.497852 -0.159580
C7    C     C_R   0.603020 0.939346 0.465629 0.086890
C8    C     C_3   0.755588 0.942423 0.483188 -0.114479
C9    C     C_3   0.748611 0.083700 0.474583 -0.533580
C10   C     C_R   0.075374 0.409486 0.540449 0.175601
C11   C     C_R   0.066675 0.574906 0.449317 -0.027265
C12   C     C_R   0.638680 0.477814 0.790740 -0.053915
C13   C     C_R   0.922782 0.574926 0.449491 -0.105141
C14   C     C_R   0.932612 0.409911 0.541327 0.095382
C15   C     C_3   0.944436 0.388666 0.629629 -0.249342
C16   C     C_R   0.500507 0.740498 0.502635 0.947562
C17   C     C_3   0.097424 0.380814 0.626696 -0.479302
C18   C     C_R   0.482396 0.501289 0.346573 0.900429
C19   C     C_R   0.521037 0.509002 0.742057 -0.158238
C20   C     C_R   0.397946 0.524332 0.778575 -0.102426
C21   C     C_R   0.384467 0.472038 0.853547 -0.159907
C22   C     C_R   0.497820 0.424859 0.898362 0.279938
C23   C     C_R   0.581853 0.488781 0.136982 -0.042169
C24   C     C_R   0.624204 0.427010 0.866730 -0.164314
C25   C     C_2   0.269917 0.884189 0.559496 1.119590
C26   C     C_2   0.807476 0.901675 0.566724 0.902837
C27   C     C_2   0.829789 0.886803 0.417453 0.896218
C28   C     C_2   0.874606 0.272259 0.657743 0.974636
C29   C     C_2   0.711518 0.486319 0.097862 0.948908
C30   C     C_2   0.773183 0.528835 0.773537 0.939185
C31   C     C_2   0.198869 0.535710 0.091319 0.945342
C32   C     C_2   0.293247 0.613603 0.747111 0.937271
C33   C     C_2   0.227999 0.119681 0.472805 0.992799
C34   C     C_R   0.588811 0.486214 0.219627 -0.232491
C35   C     C_R   0.453203 0.499722 0.093970 0.194948
C36   C     C_R   0.471827 0.500904 0.259937 -0.069556
C37   C     C_R   0.345931 0.517511 0.217455 -0.227068
C38   C     C_R   0.334895 0.517456 0.134286 -0.051894
C39   C     C_R   0.599426 0.065491 0.458174 0.087002
H1    H     H_    0.686903 0.476591 0.252610 0.202828
H2    H     H_    0.817369 0.802708 0.310791 0.349264
H3    H     H_    0.864296 0.635476 0.409254 0.172143
H4    H     H_    0.890351 0.102734 0.709871 0.362691
H5    H     H_    0.900173 0.417220 0.098125 0.368942
H6    H     H_    0.141968 0.287575 0.637446 0.267658
H7    H     H_    0.713343 0.404348 0.905585 0.202324
H8    H     H_    0.877227 0.666615 0.720801 0.335954
H9    H     H_    0.289858 0.480546 0.881317 0.244499
H10   H     H_    0.075276 0.511895 0.991323 0.373836
H11   H     H_    0.107314 0.683982 0.754685 0.342276
H12   H     H_    0.775183 0.133590 0.530703 0.231020
H13   H     H_    0.040739 0.145654 0.508947 0.345750
H14   H     H_    0.796193 0.123904 0.421895 0.214762
H15   H     H_    0.116744 0.637553 0.409613 0.188776
H16   H     H_    0.915842 0.472661 0.659922 0.182651
H17   H     H_    0.152779 0.455951 0.659453 0.220765
H18   H     H_    0.255844 0.530020 0.249243 0.202399
H19   H     H_    0.111393 0.766104 0.567803 0.348086
H20   H     H_    0.964669 0.899644 0.650491 0.353424
N1    N     N_2   0.495476 0.410426 0.981438 -0.144198
N2    N     N_2   0.443610 0.502373 0.010377 -0.111291
N3    N     N_R   0.142860 0.499130 0.500540 -0.105937
N4    N     N_R   0.857210 0.499170 0.500530 -0.116910
O1    O     O_R   0.614690 0.316790 0.499990 -0.598091
O2    O     O_R   0.170035 0.803536 0.526436 -0.743789
O3    O     O_2   0.732831 0.848196 0.611316 -0.586469
O4    O     O_R   0.941103 0.930559 0.593950 -0.732222
O5    O     O_2   0.953604 0.895257 0.419195 -0.566235
O6    O     O_R   0.756566 0.831688 0.352451 -0.803041
O7    O     O_2   0.750641 0.267363 0.655000 -0.630744
O8    O     O_R   0.950077 0.172740 0.690623 -0.741022
O9    O     O_2   0.727072 0.550771 0.038625 -0.597282
O10   O     O_R   0.817795 0.412793 0.130539 -0.778778
O11   O     O_2   0.876889 0.483789 0.805597 -0.604159
O12   O     O_R   0.385350 0.316760 0.500000 -0.615163
O13   O     O_R   0.780805 0.635773 0.725635 -0.749385
O14   O     O_2   0.109392 0.586554 0.124610 -0.607915
O15   O     O_R   0.171444 0.493810 0.013531 -0.784562
O16   O     O_2   0.320658 0.691503 0.697066 -0.594621
O17   O     O_R   0.165873 0.614134 0.778130 -0.780667
O18   O     O_2   0.201717 0.178604 0.410908 -0.600199
O19   O     O_R   0.129492 0.104793 0.527641 -0.737383
O20   O     O_R   0.627460 0.498860 0.616130 -0.569103
O21   O     O_R   0.398120 0.498820 0.616130 -0.627973
O22   O     O_R   0.614650 0.683240 0.500000 -0.597580
O23   O     O_R   0.385310 0.683210 0.500010 -0.605241
O24   O     O_R   0.601880 0.501180 0.383870 -0.627894
O25   O     O_R   0.372540 0.501140 0.383870 -0.619199
O26   O     O_2   0.267690 0.916468 0.628638 -0.534420
Zn1   Zn    Zn3+2 0.653130 0.500020 0.499990 1.013357
Zn2   Zn    Zn3+2 0.346870 0.499980 0.500010 1.014337

loop_
_geom_bond_atom_site_label_1
_geom_bond_atom_site_label_2
_ccdc_geom_bond_type
C8    C26   S    
C19   C20   A    
C9    H12   S    
O1    Zn1   S    
C11   N3    A    
C7    C8    S    
C34   H1    S    
C26   O4    S    
C23   C29   S    
C36   C37   A    
C17   H6    S    
H8    O13   S    
O23   Zn2   S    
C22   N1    S    
C5    C6    A    
C30   O11   D    
C29   O10   S    
C3    C33   S    
C10   C17   S    
C9    C39   S    
H10   O15   S    
C12   C19   A    
C1    C2    S    
C27   O5    D    
H20   O4    S    
C4    C19   S    
C2    C39   A    
C8    C9    S    
C4    O21   A    
O21   Zn2   S    
C33   O19   S    
C27   O6    S    
O12   Zn2   S    
C21   H9    S    
C21   C22   A    
C16   O23   A    
C10   N3    A    
C13   H3    S    
C31   O14   D    
C26   O3    D    
C35   C38   A    
C25   O2    S    
C10   C14   A    
C18   O25   A    
N1    N2    D    
C15   H16   S    
C37   C38   A    
C32   O17   S    
C30   O13   S    
H19   O2    S    
C13   N4    A    
O25   Zn2   S    
C23   C34   A    
N3    Zn2   S    
C35   N2    S    
H13   O19   S    
C17   H17   S    
C11   H15   S    
C5    C25   S    
C23   C35   A    
C16   O22   A    
C22   C24   A    
C28   O8    S    
C9    H14   S    
C1    O1    A    
C31   O15   S    
H2    O6    S    
C20   C32   S    
C15   C17   S    
O20   Zn1   S    
H4    O8    S    
C12   C30   S    
C28   O7    D    
C3    C5    A    
H11   O17   S    
O22   Zn1   S    
C6    C7    A    
C12   C24   A    
C25   O26   D    
C18   O24   A    
C31   C38   S    
C24   H7    S    
C29   O9    D    
C2    C3    A    
C32   O16   D    
C11   C13   A    
C15   C28   S    
C4    O20   A    
C18   C36   S    
C14   N4    A    
N4    Zn1   S    
C34   C36   A    
H5    O10   S    
C6    C16   S    
C20   C21   A    
O24   Zn1   S    
C8    C27   S    
C7    C39   A    
C14   C15   S    
C1    O12   A    
C33   O18   D    
C37   H18   S    
