data_mof_unit_58964.cif
_audit_creation_date              2012-12-10T19:42:52-0500
_audit_creation_method            fapswitch 2.2
_symmetry_space_group_name_H-M    P1
_symmetry_Int_Tables_number       1
_space_group_crystal_system       triclinic
_cell_length_a                    10.846376
_cell_length_b                    12.968456
_cell_length_c                    11.724565
_cell_angle_alpha                 101.07487
_cell_angle_beta                  94.723254
_cell_angle_gamma                 91.883507
_cell_volume                      1610.97749463

loop_
_atom_site_label
_atom_site_type_symbol
_atom_type_description
_atom_site_fract_x
_atom_site_fract_y
_atom_site_fract_z
_atom_type_partial_charge
C1    C     C_R   0.501748 0.299030 0.477348 0.867127
C2    C     C_R   0.498923 0.701022 0.522664 0.856661
C3    C     C_R   0.871826 0.497269 0.502109 -0.025056
C4    C     C_R   0.128349 0.503675 0.498286 -0.025741
C5    C     C_R   0.946852 0.470054 0.595420 0.079644
C6    C     C_R   0.053476 0.531678 0.405432 0.080771
C7    C     C_R   0.492145 0.814846 0.536960 -0.148605
C8    C     C_R   0.508215 0.185171 0.462752 -0.140844
C9    C     C_R   0.588031 0.018926 0.373131 0.224914
C10   C     C_R   0.410115 0.980545 0.625167 0.227056
C11   C     C_R   0.577403 0.127342 0.378179 0.199631
C12   C     C_R   0.426467 0.873222 0.624032 0.205544
C13   C     C_R   0.451548 0.136078 0.541902 -0.314334
C14   C     C_R   0.545757 0.863376 0.455748 -0.308912
C15   C     C_R   0.464654 0.029394 0.541830 0.016868
C16   C     C_R   0.533481 0.970168 0.456474 0.021154
C17   C     C_R   0.407127 0.384271 0.013638 -0.433182
C18   C     C_R   0.592874 0.615985 0.986133 -0.434898
C19   C     C_R   0.409939 0.396662 0.135919 0.219007
C20   C     C_R   0.588823 0.603954 0.863807 0.224611
C21   C     C_R   0.537653 0.552765 0.160412 0.003139
C22   C     C_R   0.463092 0.446946 0.839611 0.006816
C23   C     C_R   0.262274 0.502338 0.499490 0.824986
C24   C     C_R   0.737791 0.497970 0.500597 0.827851
C25   C     C_R   0.533031 0.542653 0.037021 0.068576
C26   C     C_R   0.467607 0.457273 0.962955 0.067587
C27   C     C_R   0.219956 0.692840 0.218651 -0.206403
C28   C     C_R   0.783041 0.312084 0.787029 -0.208253
C29   C     C_R   0.165922 0.668112 0.315668 0.064571
C30   C     C_R   0.835758 0.335438 0.688757 0.057033
C31   C     C_R   0.104272 0.567794 0.305099 0.101258
C32   C     C_R   0.896656 0.435688 0.696999 0.101571
C33   C     C_R   0.091931 0.498536 0.196296 -0.132315
C34   C     C_R   0.909791 0.506305 0.804891 -0.128172
C35   C     C_R   0.143920 0.525627 0.100442 -0.146777
C36   C     C_R   0.859130 0.480617 0.902046 -0.147107
C37   C     C_R   0.209162 0.621996 0.111978 -0.108703
C38   C     C_R   0.794536 0.384257 0.892760 -0.108662
C39   C     C_R   0.925932 0.527007 0.408181 -0.208820
C40   C     C_R   0.074304 0.474210 0.592321 -0.209322
Cu1   Cu    Cu3+1 0.509250 0.507730 0.615930 0.992639
Cu2   Cu    Cu3+1 0.490750 0.492270 0.384070 0.991084
H1    H     H_    0.250786 0.642202 0.037855 0.136219
H2    H     H_    0.754017 0.365086 0.967913 0.135085
H3    H     H_    0.410307 0.381554 0.783477 0.120460
H4    H     H_    0.590710 0.617980 0.216576 0.122847
H5    H     H_    0.355368 0.317865 0.957598 0.130349
H6    H     H_    0.644740 0.682387 0.041827 0.131931
H7    H     H_    0.269328 0.768028 0.224977 0.122815
H8    H     H_    0.734335 0.236897 0.782461 0.120031
H9    H     H_    0.043700 0.422398 0.186307 0.151935
H10   H     H_    0.957734 0.582361 0.813183 0.152992
H11   H     H_    0.135041 0.471138 0.017426 0.138426
H12   H     H_    0.868614 0.536135 0.984340 0.138886
H13   H     H_    0.868837 0.549456 0.337390 0.143380
H14   H     H_    0.131407 0.451821 0.663149 0.143965
H15   H     H_    0.597218 0.815883 0.391687 0.173585
H16   H     H_    0.398470 0.183332 0.604756 0.171240
N1    N     N_R   0.523180 0.519350 0.790130 -0.184131
N2    N     N_R   0.476820 0.480650 0.209870 -0.184003
O1    O     O_R   0.506570 0.354460 0.582000 -0.615937
O2    O     O_R   0.493430 0.645540 0.418000 -0.613777
O3    O     O_R   0.490940 0.341410 0.386200 -0.532251
O4    O     O_R   0.509060 0.658590 0.613800 -0.533423
O5    O     O_R   0.327460 0.506540 0.597900 -0.604521
O6    O     O_R   0.672540 0.493460 0.402100 -0.603315
O7    O     O_R   0.311830 0.493480 0.402100 -0.527722
O8    O     O_R   0.688170 0.506520 0.597900 -0.530871
C41   C     C_2   0.656630 0.689234 0.823702 0.420530
H17   H     H_    0.654485 0.769227 0.872062 0.012707
O9    O     O_2   0.724897 0.672196 0.745748 -0.531173
C42   C     C_2   0.338717 0.312214 0.174786 0.399960
H18   H     H_    0.332660 0.233558 0.121696 0.011974
O10   O     O_2   0.276237 0.328768 0.257105 -0.525091
C43   C     C_2   0.173566 0.750333 0.423550 0.266275
H19   H     H_    0.231369 0.821422 0.429514 0.081050
O11   O     O_2   0.113383 0.742082 0.505079 -0.572847
C44   C     C_2   0.827787 0.251938 0.582069 0.281907
H20   H     H_    0.769175 0.181462 0.577068 0.074383
O12   O     O_2   0.888711 0.258463 0.500549 -0.562207
N3    N     N_2   0.369591 0.821829 0.704797 -0.398643
H21   H     H_    0.274768 0.810826 0.689339 0.286188
C45   C     C_3   0.411957 0.857103 0.826971 -0.646072
H22   H     H_    0.412804 0.788543 0.870876 0.211138
H23   H     H_    0.347983 0.914310 0.869956 0.233341
H24   H     H_    0.506880 0.894750 0.838141 0.215395
N4    N     N_2   0.649069 0.180418 0.308443 -0.397117
H25   H     H_    0.742212 0.166739 0.315872 0.293842
C46   C     C_3   0.599611 0.173686 0.188651 -0.626007
H26   H     H_    0.606589 0.252875 0.166342 0.221480
H27   H     H_    0.501284 0.144194 0.174555 0.206677
H28   H     H_    0.654088 0.119795 0.128954 0.219768
N5    N     N_2   0.658275 0.961838 0.286613 -0.421065
H29   H     H_    0.726846 0.918978 0.318458 0.251504
C47   C     C_3   0.585858 0.904499 0.183185 -0.718593
H30   H     H_    0.648663 0.876069 0.115034 0.220038
H31   H     H_    0.518938 0.955885 0.147843 0.238031
H32   H     H_    0.533962 0.835749 0.202859 0.217501
N6    N     N_2   0.338757 0.037530 0.710694 -0.439628
H33   H     H_    0.379506 0.108074 0.756002 0.237468
C48   C     C_3   0.209230 0.042790 0.672593 -0.675923
H34   H     H_    0.159913 0.082238 0.747016 0.224134
H35   H     H_    0.166024 0.962466 0.640953 0.257675
H36   H     H_    0.198534 0.088289 0.601506 0.233211

loop_
_geom_bond_atom_site_label_1
_geom_bond_atom_site_label_2
_ccdc_geom_bond_type
N4    H25   S    
N5    H29   S    
C35   H11   S    
C1    C8    S    
Cu1   Cu2   S    
C47   H30   S    
Cu1   O1    S    
N3    H21   S    
C19   C42   S    
C47   H32   S    
C8    C13   A    
C45   H22   S    
C17   C26   A    
C35   C37   A    
C9    C16   A    
C10   C15   A    
C44   O12   D    
C27   C29   A    
C15   C16   A    
C23   O7    A    
C41   O9    D    
C2    C7    S    
C33   C35   A    
C28   H8    S    
C7    C14   A    
C39   H13   S    
C4    C40   A    
C11   N4    S    
C40   H14   S    
C31   C33   A    
C46   H27   S    
Cu2   O2    S    
C34   C36   A    
C24   O6    A    
C5    C32   S    
C6    C31   S    
C3    C39   A    
N5    C47   S    
C3    C24   S    
C41   H17   S    
C18   C25   A    
C1    O3    A    
N3    C45   S    
C2    O4    A    
Cu1   O8    S    
C7    C12   A    
C48   H34   S    
Cu1   N1    S    
C21   N2    A    
C4    C6    A    
Cu2   N2    S    
C22   N1    A    
C4    C23   S    
C44   H20   S    
Cu1   O5    S    
C13   H16   S    
C25   C26   A    
C18   H6    S    
C20   N1    A    
C32   C34   A    
C37   H1    S    
C43   H19   S    
C38   H2    S    
C9    C11   A    
N6    H33   S    
C28   C38   A    
C45   H24   S    
C46   H28   S    
C43   O11   D    
C10   C12   A    
C42   O10   D    
C45   H23   S    
C48   H36   S    
C13   C15   A    
Cu2   O7    S    
C14   C16   A    
C20   C41   S    
C9    N5    S    
C21   H4    S    
C14   H15   S    
C21   C25   A    
N6    C48   S    
C17   H5    S    
C42   H18   S    
C3    C5    A    
C1    O1    A    
C47   H31   S    
C29   C43   S    
C19   N2    A    
C33   H9    S    
C34   H10   S    
C23   O5    A    
C36   C38   A    
C29   C31   A    
C30   C32   A    
C27   C37   A    
C8    C11   A    
C28   C30   A    
C17   C19   A    
C12   N3    S    
C18   C20   A    
C10   N6    S    
C36   H12   S    
C24   O8    A    
C30   C44   S    
C2    O2    A    
C22   H3    S    
C48   H35   S    
C22   C26   A    
C5    C40   A    
Cu2   O6    S    
N4    C46   S    
C6    C39   A    
Cu1   O4    S    
C46   H26   S    
Cu2   O3    S    
C27   H7    S    
