data_mof_unit_57816.cif
_audit_creation_date              2012-10-26T20:37:30-0400
_audit_creation_method            fapswitch 2.2
_symmetry_space_group_name_H-M    P1
_symmetry_Int_Tables_number       1
_space_group_crystal_system       triclinic
_cell_length_a                    10.9973
_cell_length_b                    10.950735
_cell_length_c                    9.760125
_cell_angle_alpha                 90.350121
_cell_angle_beta                  102.646624
_cell_angle_gamma                 89.972569
_cell_volume                      1146.85912931

loop_
_atom_site_label
_atom_site_type_symbol
_atom_type_description
_atom_site_fract_x
_atom_site_fract_y
_atom_site_fract_z
_atom_type_partial_charge
C1    C     C_R   0.496949 0.265654 0.498436 0.558922
C2    C     C_2   0.127001 0.485226 0.412621 0.352971
C3    C     C_2   0.063996 0.436021 0.503926 -0.021000
C4    C     C_2   0.872781 0.484435 0.586552 -0.143696
C5    C     C_2   0.930037 0.462548 0.480569 -0.108449
C6    C     C_2   0.476704 0.933553 0.395090 -0.080587
C7    C     C_3   0.423153 0.603002 0.088707 -0.084991
C8    C     C_3   0.501371 0.715588 0.067271 -0.280575
C9    C     C_3   0.417912 0.826297 0.022930 -0.479801
C10   C     C_3   0.124964 0.356003 0.628053 -0.279082
C11   C     C_3   0.051131 0.238417 0.637335 -0.299756
C12   C     C_2   0.447209 0.859921 0.492339 0.037174
C13   C     C_3   0.111736 0.165494 0.766922 -0.458804
C14   C     C_3   0.361572 0.898516 0.589069 -0.235295
C15   C     C_3   0.243924 0.817980 0.564000 -0.318011
C16   C     C_3   0.142200 0.873276 0.628606 -0.458029
C17   C     C_3   0.347206 0.107262 0.264792 -0.295053
C18   C     C_3   0.221805 0.044261 0.261528 -0.314837
C19   C     C_3   0.123979 0.080700 0.132233 -0.437804
C20   C     C_2   0.446237 0.063493 0.389108 -0.036598
C21   C     C_2   0.505150 0.133834 0.497808 0.357125
C22   C     C_2   0.593217 0.471119 0.946213 0.479175
C23   C     C_2   0.580975 0.447638 0.093944 0.044333
C24   C     C_R   0.262979 0.492799 0.443192 0.539664
C25   C     C_R   0.489492 0.733559 0.498362 0.561650
C26   C     C_R   0.737416 0.498062 0.556821 0.573476
Cu1   Cu    Cu3+1 0.500020 0.500020 0.638640 1.006522
Cu2   Cu    Cu3+1 0.499980 0.499980 0.361360 0.920126
F1    F     F_    0.064069 0.542006 0.294357 -0.644483
F2    F     F_    0.582541 0.081780 0.610642 -0.639957
F3    F     F_    0.708982 0.463720 0.919888 -0.595525
H1    H     H_    0.877809 0.465188 0.372298 0.208672
H2    H     H_    0.554424 0.699273 0.984843 0.185922
H3    H     H_    0.352253 0.578985 0.994148 0.086777
H4    H     H_    0.363051 0.631542 0.160104 0.210967
H5    H     H_    0.206423 0.134942 0.759379 0.148848
H6    H     H_    0.118861 0.222368 0.862960 0.166119
H7    H     H_    0.053730 0.084214 0.775710 0.159830
H8    H     H_    0.954061 0.258961 0.644836 0.198651
H9    H     H_    0.047847 0.181761 0.541682 0.158045
H10   H     H_    0.218918 0.324920 0.619390 0.162077
H11   H     H_    0.134565 0.410087 0.726580 0.151618
H12   H     H_    0.414848 0.466048 0.860729 0.165577
H13   H     H_    0.178126 0.891557 0.742261 0.146668
H14   H     H_    0.108214 0.959420 0.574158 0.155743
H15   H     H_    0.062685 0.808635 0.616035 0.173165
H16   H     H_    0.206028 0.804952 0.449559 0.178004
H17   H     H_    0.267762 0.727053 0.611699 0.197365
H18   H     H_    0.412919 0.889942 0.700050 0.177858
H19   H     H_    0.332083 0.995187 0.574184 0.153854
H20   H     H_    0.111044 0.181347 0.128997 0.173071
H21   H     H_    0.153225 0.049210 0.036071 0.149880
H22   H     H_    0.033637 0.036828 0.135400 0.167633
H23   H     H_    0.651047 0.390112 0.158166 0.144636
H24   H     H_    0.232580 0.943469 0.259601 0.174744
H25   H     H_    0.188037 0.070121 0.357080 0.157140
H26   H     H_    0.330372 0.206722 0.267081 0.174011
H27   H     H_    0.378804 0.086086 0.166616 0.150184
H28   H     H_    0.924410 0.485058 0.694983 0.139556
H29   H     H_    0.530924 0.899948 0.322319 0.121692
H30   H     H_    0.352394 0.807375 0.921232 0.153070
H31   H     H_    0.363545 0.848160 0.103193 0.149671
H32   H     H_    0.475925 0.906702 0.010433 0.157860
H33   H     H_    0.570227 0.737389 0.165515 0.191478
N1    N     N_2   0.498650 0.498660 0.846590 -0.338433
N2    N     N_2   0.498620 0.498630 0.152710 -0.288220
O1    O     O_R   0.500020 0.321960 0.617050 -0.463628
O2    O     O_R   0.499980 0.321920 0.382890 -0.542543
O3    O     O_R   0.320700 0.500020 0.574050 -0.572847
O4    O     O_R   0.320660 0.499980 0.339890 -0.487111
O5    O     O_R   0.500020 0.678080 0.617110 -0.488384
O6    O     O_R   0.499980 0.678040 0.382950 -0.532143
O7    O     O_R   0.679340 0.500020 0.660110 -0.388613
O8    O     O_R   0.679300 0.499980 0.425950 -0.507270

loop_
_geom_bond_atom_site_label_1
_geom_bond_atom_site_label_2
_ccdc_geom_bond_type
C16   H14   S    
Cu2   N2    S    
C22   N1    D    
C1    C21   S    
C25   O5    A    
C18   H25   S    
C10   H11   S    
C23   H23   S    
C6    C20   S    
C21   F2    S    
C16   H13   S    
C19   H21   S    
C4    C26   S    
Cu1   O3    S    
C15   H16   S    
C17   H27   S    
H12   N1    S    
C5    H1    S    
Cu2   O8    S    
C19   H22   S    
C14   C15   S    
C2    C3    D    
C3    C5    S    
C24   O4    A    
C7    C8    S    
C25   O6    A    
C9    H32   S    
C10   H10   S    
C6    C12   D    
C17   C20   S    
C11   C13   S    
C13   H7    S    
Cu2   O6    S    
C7    H4    S    
C15   H17   S    
C8    H33   S    
C2    F1    S    
Cu1   N1    S    
C18   H24   S    
C23   N2    D    
C26   O8    A    
C12   C14   S    
C24   O3    A    
C17   C18   S    
C19   H20   S    
C8    H2    S    
C2    C24   S    
C11   H9    S    
C11   H8    S    
C7    H3    S    
C9    H30   S    
C14   H18   S    
Cu1   O1    S    
C22   F3    S    
C14   H19   S    
C12   C25   S    
C15   C16   S    
C6    H29   S    
C1    O2    A    
Cu1   O5    S    
C20   C21   D    
C4    H28   S    
C13   H5    S    
C18   C19   S    
C10   C11   S    
C16   H15   S    
Cu1   Cu2   S    
C3    C10   S    
C22   C23   S    
C4    C5    D    
C1    O1    A    
Cu1   O7    S    
C13   H6    S    
C26   O7    A    
Cu2   O4    S    
C9    H31   S    
C17   H26   S    
C8    C9    S    
Cu2   O2    S    
C7    N2    S    
