data_mof_unit_19987.cif
_audit_creation_date              2013-03-05T16:33:33-0500
_audit_creation_method            fapswitch 2.2
_symmetry_space_group_name_H-M    P1
_symmetry_Int_Tables_number       1
_space_group_crystal_system       triclinic
_cell_length_a                    10.897291
_cell_length_b                    10.840997
_cell_length_c                    9.552662
_cell_angle_alpha                 89.722648
_cell_angle_beta                  90.688576
_cell_angle_gamma                 90.995388
_cell_volume                      1128.26370696

loop_
_atom_site_label
_atom_site_type_symbol
_atom_site_description
_atom_site_fract_x
_atom_site_fract_y
_atom_site_fract_z
_atom_type_partial_charge
O1    O     O_R   0.500000 0.319640 0.618810 -0.576994
O2    O     O_R   0.500010 0.319680 0.381230 -0.599250
C1    C     C_R   0.501592 0.262350 0.500278 0.800379
O3    O     O_R   0.319650 0.499970 0.618810 -0.597671
O4    O     O_R   0.319660 0.500010 0.381230 -0.538468
C2    C     C_R   0.262650 0.502783 0.498922 0.843005
Cu1   Cu    Cu3+1 0.499990 0.499980 0.640670 0.993064
Cu2   Cu    Cu3+1 0.500010 0.500020 0.359330 1.003733
O5    O     O_R   0.499990 0.680320 0.618770 -0.590120
O6    O     O_R   0.500000 0.680360 0.381190 -0.577791
O7    O     O_R   0.680340 0.499990 0.618770 -0.539845
O8    O     O_R   0.680350 0.500030 0.381190 -0.595782
C3    C     C_R   0.501050 0.737660 0.499722 0.824728
C4    C     C_R   0.737682 0.502530 0.500453 0.868800
C5    C     C_R   0.065462 0.458704 0.611641 -0.098879
C6    C     C_R   0.129472 0.502164 0.495256 -0.207206
C7    C     C_R   0.062418 0.539163 0.374350 0.346869
C8    C     C_R   0.933940 0.533445 0.375640 -0.195138
H1    H     H_    0.883745 0.562508 0.283181 0.199766
C9    C     C_R   0.871123 0.503026 0.499079 -0.115506
C10   C     C_R   0.939385 0.467278 0.616264 -0.023879
C11   C     C_3   0.944140 0.512226 0.765760 0.548109
C12   C     C_3   0.082594 0.492064 0.763237 0.025742
H2    H     H_    0.138700 0.577982 0.778423 0.160258
C13   C     C_R   0.512579 0.062862 0.626102 0.169410
C14   C     C_R   0.512059 0.129311 0.500435 -0.098225
C15   C     C_R   0.525802 0.065427 0.374010 -0.195158
H3    H     H_    0.531619 0.114012 0.274898 0.168893
C16   C     C_R   0.524528 0.936927 0.373562 -0.176795
H4    H     H_    0.528435 0.889964 0.274269 0.161785
C17   C     C_R   0.510531 0.871002 0.499497 -0.085437
C18   C     C_R   0.511280 0.935622 0.625491 0.128576
C19   C     C_3   0.422609 0.927481 0.743427 -0.442186
C20   C     C_3   0.425173 0.067186 0.745145 -0.482012
H5    H     H_    0.332081 0.887293 0.711063 0.215928
H6    H     H_    0.463064 0.886482 0.839723 0.197410
H7    H     H_    0.335931 0.107855 0.714960 0.192136
H8    H     H_    0.469001 0.105504 0.841531 0.204212
C21   C     C_R   0.528266 0.605293 0.073617 0.268826
N1    N     N_R   0.500790 0.500930 0.147930 -0.178099
C22   C     C_R   0.458914 0.400308 0.074219 -0.031298
H9    H     H_    0.426718 0.318846 0.129139 0.133890
C23   C     C_R   0.459188 0.400276 0.925609 -0.042177
H10   H     H_    0.426535 0.319355 0.870420 0.131684
N2    N     N_R   0.500790 0.500890 0.852020 -0.176960
C24   C     C_R   0.527154 0.605515 0.926021 0.193570
C25   C     C_3   0.645378 0.674858 0.921195 -0.365984
C26   C     C_3   0.647088 0.675056 0.079552 -0.458436
H11   H     H_    0.715850 0.616230 0.876299 0.270654
H12   H     H_    0.637326 0.767939 0.873563 0.199710
H13   H     H_    0.722723 0.620246 0.125591 0.246110
H14   H     H_    0.637894 0.768737 0.123783 0.184805
N3    N     N_R   0.121868 0.594974 0.256082 0.137860
O9    O     O_R   0.192397 0.691945 0.273489 -0.352000
O10   O     O_R   0.090272 0.562242 0.129838 -0.302672
N4    N     N_R   0.918302 0.643929 0.783575 0.058279
O11   O     O_R   0.948398 0.698079 0.900645 -0.300038
O12   O     O_R   0.872250 0.709846 0.682208 -0.398400
N5    N     N_R   0.875921 0.432632 0.863831 0.119790
O13   O     O_R   0.886584 0.450222 0.998000 -0.308350
O14   O     O_R   0.801515 0.346105 0.818374 -0.372915
N6    N     N_2   0.123569 0.391530 0.853990 -0.360319
H15   H     H_    0.201506 0.413267 0.911500 0.270918
C27   C     C_3   0.121015 0.266088 0.802065 -0.565262
H16   H     H_    0.149289 0.202017 0.887086 0.219919
H17   H     H_    0.185536 0.257747 0.713726 0.193670
H18   H     H_    0.026919 0.239263 0.766739 0.266766

loop_
_geom_bond_atom_site_label_1
_geom_bond_atom_site_label_2
_geom_bond_distance
_ccdc_geom_bond_type
C7    C8    1.400558 A    
O4    Cu2   1.978926 S    
N6    C27   1.449511 S    
C12   H2    1.114367 S    
N6    H15   1.030412 S    
C7    N3    1.435112 S    
C15   C16   1.392922 A    
C20   H7    1.109146 S    
C23   N2    1.368388 A    
C22   H9    1.080480 S    
C1    C14   1.448737 S    
C17   C18   1.395408 A    
C26   H14   1.108465 S    
C13   C20   1.493558 S    
Cu2   O8    1.973782 S    
C15   H3    1.083178 S    
C27   H16   1.110397 S    
C13   C18   1.379277 A    
C5    C12   1.502997 S    
O2    C1    1.293417 A    
N5    O13   1.300217 A    
C16   C17   1.404844 A    
C20   H8    1.111157 S    
N3    O9    1.301560 A    
C18   C19   1.494297 S    
Cu1   O7    1.978926 S    
C22   C23   1.419657 A    
C14   C15   1.405940 A    
C16   H4    1.080319 S    
C21   C24   1.409826 A    
Cu1   N2    2.018940 S    
C10   C11   1.511174 S    
N1    C22   1.369819 A    
C19   H5    1.112490 S    
N4    O12   1.301631 A    
C19   C20   1.514471 S    
C25   H12   1.109350 S    
C8    C9    1.405558 A    
N3    O10   1.299515 A    
C23   H10   1.078555 S    
O4    C2    1.291749 A    
Cu2   O6    1.967193 S    
O7    C4    1.297976 A    
N5    O14   1.301904 A    
O3    C2    1.296754 A    
Cu1   Cu2   2.687546 S    
N4    O11   1.301422 A    
C2    C6    1.451183 S    
C5    C6    1.395262 A    
C21   N1    1.363531 A    
C27   H18   1.110021 S    
C4    C9    1.454277 S    
C5    C10   1.379897 A    
C19   H6    1.109595 S    
Cu2   N1    2.019527 S    
C9    C10   1.393716 A    
C25   H11   1.097799 S    
C8    H1    1.081779 S    
C24   C25   1.481380 S    
C11   N5    1.470208 S    
Cu1   O5    1.965220 S    
O5    C3    1.293464 A    
C11   C12   1.528779 S    
C6    C7    1.419214 A    
O1    Cu1   1.967193 S    
C11   N4    1.471150 S    
C12   N6    1.461934 S    
O3    Cu1   1.973782 S    
C13   C14   1.397021 A    
N2    C24   1.363938 A    
C3    C17   1.447457 S    
C26   H13   1.109765 S    
O2    Cu2   1.965218 S    
C25   C26   1.512637 S    
O8    C4    1.292919 A    
C21   C26   1.488772 S    
O1    C1    1.294524 A    
O6    C3    1.293965 A    
C27   H17   1.109901 S    
