data_mof_unit_13611.cif
_audit_creation_date              2013-03-05T15:55:20-0500
_audit_creation_method            fapswitch 2.2
_symmetry_space_group_name_H-M    P1
_symmetry_Int_Tables_number       1
_space_group_crystal_system       triclinic
_cell_length_a                    14.73458
_cell_length_b                    14.73399
_cell_length_c                    33.0216
_cell_angle_alpha                 95.784359
_cell_angle_beta                  96.200059
_cell_angle_gamma                 61.227815
_cell_volume                      6237.32535639

loop_
_atom_site_label
_atom_site_type_symbol
_atom_site_description
_atom_site_fract_x
_atom_site_fract_y
_atom_site_fract_z
_atom_type_partial_charge
O1    O     O_R   0.679450 0.499830 0.463150 -0.477154
O2    O     O_R   0.480650 0.664000 0.464630 -0.511334
C1    C     C_R   0.389914 0.702231 0.446573 0.848025
O3    O     O_R   0.323930 0.675950 0.455370 -0.510561
O4    O     O_R   0.354700 0.475360 0.451930 -0.506977
C2    C     C_R   0.404272 0.385561 0.434407 0.891691
O5    O     O_R   0.494470 0.320860 0.448390 -0.525081
O6    O     O_R   0.662580 0.357570 0.460050 -0.542968
C3    C     C_R   0.703816 0.408366 0.448151 0.872635
O7    O     O_R   0.680900 0.502040 0.551870 -0.535476
O8    O     O_R   0.481990 0.666040 0.546870 -0.542332
C4    C     C_R   0.393114 0.702506 0.560955 0.898218
O9    O     O_R   0.325370 0.678160 0.544080 -0.491047
O10   O     O_R   0.356040 0.477400 0.534170 -0.494385
C5    C     C_R   0.406456 0.387007 0.548608 0.947425
O11   O     O_R   0.495910 0.323070 0.537100 -0.498555
O12   O     O_R   0.663920 0.359620 0.542290 -0.493325
C6    C     C_R   0.702404 0.413630 0.562928 0.884339
Cr1   Cr    Cr6+3 0.576280 0.580550 0.506370 1.119767
Cr2   Cr    Cr6+3 0.346780 0.572400 0.496520 1.169416
Cr3   Cr    Cr6+3 0.576960 0.347070 0.497150 1.149975
O13   O     O_3   0.500010 0.500010 0.500010 -0.397490
C7    C     C_R   0.364596 0.361567 0.393787 -0.290545
C8    C     C_R   0.305349 0.442083 0.366906 0.242517
C9    C     C_R   0.299394 0.418309 0.324930 0.320357
C10   C     C_R   0.351929 0.314765 0.309789 -0.178749
C11   C     C_R   0.399901 0.233119 0.336466 -0.162267
C12   C     C_R   0.402408 0.256682 0.379130 0.278797
C13   C     C_R   0.418925 0.250514 0.161683 -0.051739
C14   C     C_R   0.400697 0.253800 0.118696 -0.100621
C15   C     C_R   0.214211 0.358837 0.126495 0.328276
C16   C     C_R   0.231999 0.354299 0.169083 -0.124717
C17   C     C_R   0.333549 0.294188 0.186250 -0.061403
C18   C     C_1   0.349206 0.289761 0.229858 0.145960
C19   C     C_1   0.354021 0.295199 0.266387 0.182283
C20   C     C_R   0.296980 0.298024 0.101225 -0.208265
N1    N     N_R   0.771314 0.407624 0.226255 -0.172254
N2    N     N_R   0.767171 0.414869 0.266557 -0.204660
C21   C     C_R   0.769263 0.367429 0.412422 -0.243904
C22   C     C_R   0.824958 0.417705 0.402810 0.407240
C23   C     C_R   0.855484 0.407204 0.362765 -0.182955
C24   C     C_R   0.833193 0.343415 0.333273 -0.192243
C25   C     C_R   0.793119 0.280708 0.344363 0.345953
C26   C     C_R   0.763826 0.290213 0.384341 -0.217464
N3    N     N_R   0.929818 0.267399 0.272334 -0.191412
N4    N     N_R   0.934283 0.260758 0.232088 -0.182667
C27   C     C_R   0.854625 0.329842 0.208255 0.649935
C28   C     C_R   0.846218 0.344733 0.290138 0.594322
C29   C     C_R   0.824209 0.403544 0.139679 0.333445
C30   C     C_R   0.841624 0.387978 0.097730 -0.139332
C31   C     C_R   0.913775 0.201227 0.102752 0.267046
C32   C     C_R   0.895712 0.216952 0.144355 0.272220
C33   C     C_R   0.857967 0.317184 0.163484 -0.270386
C34   C     C_R   0.898355 0.285395 0.080628 -0.285748
N5    N     N_R   0.308574 0.767672 0.221357 -0.161390
N6    N     N_R   0.310136 0.762680 0.261428 -0.150436
C35   C     C_R   0.364873 0.767114 0.411051 -0.199795
C36   C     C_R   0.259845 0.828424 0.396612 -0.074345
C37   C     C_R   0.237258 0.858289 0.355821 -0.056696
C38   C     C_R   0.319190 0.831969 0.330978 -0.130088
C39   C     C_R   0.422535 0.788202 0.347629 -0.131356
C40   C     C_R   0.445471 0.755369 0.387681 0.338617
N7    N     N_R   0.282778 0.933245 0.271488 -0.225108
N8    N     N_R   0.280643 0.938397 0.231419 -0.190794
C41   C     C_R   0.295219 0.855233 0.205721 0.658415
C42   C     C_R   0.298356 0.844995 0.287061 0.532199
C43   C     C_R   0.253230 0.820869 0.131962 0.345165
C44   C     C_R   0.252850 0.837040 0.090450 -0.156119
C45   C     C_R   0.368800 0.911956 0.109265 0.277526
C46   C     C_R   0.367844 0.897196 0.150450 0.285325
C47   C     C_R   0.304490 0.858284 0.162048 -0.266789
C48   C     C_R   0.300672 0.894413 0.080004 -0.293365
N9    N     N_R   0.257898 0.428059 0.765047 -0.147500
N10   N     N_R   0.258431 0.431915 0.724969 -0.165164
C49   C     C_R   0.367007 0.360308 0.583023 -0.236087
C50   C     C_R   0.259654 0.410803 0.589381 0.356194
C51   C     C_R   0.225493 0.403706 0.626987 -0.128257
C52   C     C_R   0.299635 0.343957 0.657543 -0.168730
C53   C     C_R   0.405011 0.284388 0.649373 -0.109744
C54   C     C_R   0.438217 0.291560 0.612162 0.337579
N11   N     N_R   0.282797 0.262402 0.715351 -0.176419
N12   N     N_R   0.281841 0.258671 0.755396 -0.187734
C55   C     C_R   0.271439 0.340652 0.780979 0.774269
C56   C     C_R   0.271434 0.348993 0.699456 0.595564
C57   C     C_R   0.194559 0.403971 0.848836 0.462622
C58   C     C_R   0.203000 0.396656 0.891459 -0.290855
C59   C     C_R   0.379072 0.252922 0.888179 -0.099214
C60   C     C_R   0.372867 0.263016 0.845571 -0.171897
C61   C     C_R   0.278158 0.333433 0.825549 -0.193602
C62   C     C_R   0.288053 0.309890 0.909666 -0.154781
C63   C     C_R   0.758912 0.381911 0.603806 -0.193738
C64   C     C_R   0.759473 0.457843 0.634059 -0.141220
C65   C     C_R   0.790353 0.432113 0.674924 -0.127961
C66   C     C_R   0.819488 0.331529 0.685997 -0.043265
C67   C     C_R   0.832272 0.252048 0.655720 -0.098810
C68   C     C_R   0.804126 0.277433 0.614256 0.386224
C69   C     C_R   0.858156 0.216019 0.827589 -0.174273
C70   C     C_R   0.877290 0.211582 0.870494 0.319041
C71   C     C_R   0.846197 0.390623 0.876128 -0.206577
C72   C     C_R   0.821605 0.396895 0.833545 0.421734
C73   C     C_R   0.836473 0.307155 0.809253 -0.128103
C74   C     C_1   0.831397 0.309179 0.765344 0.179232
C75   C     C_1   0.827776 0.314801 0.729009 0.129960
C76   C     C_R   0.888632 0.292818 0.893247 -0.245753
C77   C     C_R   0.381528 0.746495 0.603498 -0.240792
C78   C     C_R   0.384133 0.683068 0.633271 0.390642
C79   C     C_R   0.390086 0.710796 0.674893 -0.142438
C80   C     C_R   0.387889 0.806031 0.687050 -0.126824
C81   C     C_R   0.384312 0.871587 0.657780 0.390812
C82   C     C_R   0.384029 0.840326 0.615578 -0.222746
C83   C     C_R   0.418577 0.874721 0.838043 -0.136144
C84   C     C_R   0.396669 0.890415 0.879456 0.329457
C85   C     C_R   0.243423 0.867459 0.862155 -0.159346
C86   C     C_R   0.264945 0.851921 0.820403 -0.075068
C87   C     C_R   0.347597 0.864070 0.808419 -0.079306
C88   C     C_1   0.364840 0.854600 0.765607 0.113907
C89   C     C_1   0.376887 0.838807 0.729657 0.185918
C90   C     C_R   0.301874 0.900570 0.890779 -0.210784
O14   O     O_R   0.170070 0.978950 0.027680 -0.521017
O15   O     O_R   0.001760 0.175230 0.026640 -0.502336
C91   C     C_R   0.960400 0.265301 0.044868 0.898167
O16   O     O_R   0.984760 0.333570 0.037150 -0.518735
O17   O     O_R   0.183410 0.309240 0.041890 -0.505822
C92   C     C_R   0.274159 0.261180 0.059601 0.853036
O18   O     O_R   0.340240 0.172500 0.045430 -0.515404
O19   O     O_R   0.309670 0.000990 0.032050 -0.502351
C93   C     C_R   0.260986 0.956550 0.043169 0.885115
O20   O     O_R   0.168330 0.982130 0.939200 -0.530879
O21   O     O_R   0.000140 0.178170 0.944610 -0.509894
C94   C     C_R   0.956953 0.269912 0.931924 0.871835
O22   O     O_R   0.983010 0.336750 0.948660 -0.540203
O23   O     O_R   0.181800 0.312190 0.959860 -0.537401
C95   C     C_R   0.271500 0.266160 0.945662 0.850244
O24   O     O_R   0.338500 0.175680 0.956950 -0.512446
O25   O     O_R   0.308050 0.003930 0.950020 -0.503613
C96   C     C_R   0.258872 0.960847 0.929722 0.839907
Cr4   Cr    Cr6+3 0.087320 0.083240 0.984860 1.112467
Cr5   Cr    Cr6+3 0.087720 0.316210 0.996740 1.064898
Cr6   Cr    Cr6+3 0.317350 0.090340 0.995890 1.135786
O26   O     O_3   0.164130 0.163270 0.992500 -0.388986
C97   C     C_2   0.488958 0.210095 0.091785 0.939820
O27   O     O_2   0.482858 0.255845 0.061848 -0.514067
O28   O     O_R   0.577950 0.116484 0.100186 -0.584067
H1    H     H_    0.631796 0.095311 0.079528 0.359650
C98   C     C_2   0.724870 0.220823 0.395365 0.962569
O29   O     O_2   0.766127 0.166682 0.424548 -0.487016
O30   O     O_R   0.643567 0.214734 0.371494 -0.627075
H2    H     H_    0.627776 0.160990 0.381006 0.359237
C99   C     C_2   0.803309 0.478585 0.072078 0.984670
O31   O     O_2   0.767369 0.474521 0.037190 -0.531767
O32   O     O_R   0.809038 0.567797 0.087452 -0.557575
H3    H     H_    0.780793 0.623401 0.066899 0.350094
C100  C     C_2   0.912738 0.460035 0.351563 0.934659
O33   O     O_2   0.881387 0.552329 0.360447 -0.433736
O34   O     O_R   0.001755 0.404044 0.329874 -0.635755
H4    H     H_    0.033700 0.448176 0.323694 0.348815
N13   N     N_R   0.780364 0.208487 0.314619 0.127510
O35   O     O_R   0.719463 0.241479 0.281787 -0.316961
O36   O     O_R   0.824787 0.110337 0.321432 -0.311750
N14   N     N_R   0.775854 0.506607 0.158324 0.166419
O37   O     O_R   0.679115 0.570315 0.148433 -0.303689
O38   O     O_R   0.829162 0.537632 0.184508 -0.299755
N15   N     N_R   0.945315 0.100338 0.082932 0.159233
O39   O     O_R   0.889509 0.088372 0.051659 -0.302587
O40   O     O_R   0.028080 0.019985 0.096488 -0.324537
N16   N     N_R   0.912355 0.131361 0.166940 0.188869
O41   O     O_R   0.006365 0.062448 0.177898 -0.285454
O42   O     O_R   0.834395 0.132008 0.182325 -0.279612
C101  C     C_2   0.175327 0.864032 0.424821 0.890034
O43   O     O_2   0.185197 0.899859 0.459062 -0.519035
O44   O     O_R   0.086213 0.854561 0.412908 -0.570827
H5    H     H_    0.035343 0.880974 0.435046 0.362710
N17   N     N_R   0.551847 0.702776 0.403120 0.140194
O45   O     O_R   0.617217 0.617616 0.384437 -0.362174
O46   O     O_R   0.585947 0.747346 0.432212 -0.265452
C102  C     C_2   0.201832 0.795707 0.057951 0.991247
O47   O     O_2   0.122388 0.793615 0.063912 -0.448101
O48   O     O_R   0.244947 0.759821 0.020142 -0.643660
H6    H     H_    0.203507 0.734053 0.000435 0.323692
C103  C     C_2   0.526162 0.205171 0.181339 0.940276
O49   O     O_2   0.586850 0.233109 0.172245 -0.495626
O50   O     O_R   0.556889 0.132007 0.210749 -0.596719
H7    H     H_    0.631087 0.107851 0.222190 0.380073
C104  C     C_2   0.129187 0.920253 0.338831 0.899083
O51   O     O_2   0.071276 0.881829 0.332825 -0.427540
O52   O     O_R   0.095996 0.021133 0.327761 -0.630514
H8    H     H_    0.022373 0.054803 0.315005 0.360796
C105  C     C_2   0.507722 0.776154 0.323409 0.921419
O53   O     O_2   0.568240 0.807161 0.338219 -0.449629
O54   O     O_R   0.519850 0.728291 0.284157 -0.623752
H9    H     H_    0.581258 0.723961 0.271221 0.368816
N18   N     N_R   0.199616 0.769091 0.143622 0.179108
O55   O     O_R   0.231448 0.671699 0.132737 -0.301274
O56   O     O_R   0.119646 0.818844 0.165486 -0.247002
N19   N     N_R   0.440888 0.941890 0.097129 0.163462
O57   O     O_R   0.446404 0.022106 0.114839 -0.325751
O58   O     O_R   0.503957 0.886398 0.069054 -0.301236
N20   N     N_R   0.434748 0.917668 0.180432 0.170657
O59   O     O_R   0.510863 0.841515 0.199500 -0.306020
O60   O     O_R   0.410103 0.012717 0.193083 -0.313649
N21   N     N_R   0.185795 0.466151 0.557052 0.143915
O61   O     O_R   0.139188 0.567017 0.558737 -0.254318
O62   O     O_R   0.180244 0.416233 0.522871 -0.315523
N22   N     N_R   0.546742 0.235079 0.605896 0.157073
O63   O     O_R   0.610741 0.259588 0.628303 -0.345800
O64   O     O_R   0.582731 0.148245 0.583812 -0.250864
C106  C     C_2   0.124562 0.480981 0.917251 0.856617
O65   O     O_2   0.032986 0.525603 0.905216 -0.482761
O66   O     O_R   0.156532 0.509495 0.955612 -0.633091
H10   H     H_    0.096785 0.567316 0.970453 0.328588
C107  C     C_2   0.112910 0.455185 0.634172 0.955045
O67   O     O_2   0.053976 0.541224 0.621905 -0.445755
O68   O     O_R   0.074285 0.404885 0.655320 -0.616592
H11   H     H_    0.996825 0.447289 0.658265 0.342716
C108  C     C_2   0.483447 0.218319 0.680693 0.944981
O69   O     O_2   0.539646 0.126197 0.672379 -0.454269
O70   O     O_R   0.494457 0.262183 0.719236 -0.655622
H12   H     H_    0.552255 0.210100 0.737385 0.324299
C109  C     C_2   0.445507 0.124794 0.319160 0.980478
O71   O     O_2   0.539570 0.069256 0.321695 -0.462500
O72   O     O_R   0.380976 0.088299 0.298087 -0.617756
H13   H     H_    0.421367 0.014051 0.286846 0.350320
N23   N     N_R   0.101263 0.484887 0.830286 0.695720
O73   O     O_R   0.057182 0.467560 0.796273 -0.818461
O74   O     O_R   0.057182 0.467560 0.796273 -0.818461
C110  C     C_2   0.480768 0.189337 0.910892 0.954229
O75   O     O_2   0.497144 0.216779 0.945895 -0.501857
O76   O     O_R   0.558521 0.100057 0.892391 -0.589133
H14   H     H_    0.623852 0.065279 0.911010 0.368923
C111  C     C_2   0.466284 0.204608 0.822037 0.872361
O77   O     O_2   0.534487 0.230165 0.825878 -0.517480
O78   O     O_R   0.476383 0.120005 0.795921 -0.607788
H15   H     H_    0.544102 0.085322 0.782045 0.338366
N24   N     N_R   0.871309 0.134131 0.891922 0.134193
O79   O     O_R   0.906915 0.038867 0.877386 -0.305131
O80   O     O_R   0.821821 0.161523 0.925098 -0.321697
C112  C     C_2   0.858881 0.127803 0.801481 0.944964
O81   O     O_2   0.938329 0.044613 0.799922 -0.489344
O82   O     O_R   0.769921 0.141912 0.777079 -0.644733
H16   H     H_    0.780359 0.077039 0.759877 0.324422
C113  C     C_2   0.877179 0.143054 0.667625 0.889497
O83   O     O_2   0.844088 0.085946 0.650935 -0.448387
O84   O     O_R   0.956940 0.106065 0.698539 -0.644614
H17   H     H_    0.980177 0.031442 0.704281 0.333187
N25   N     N_R   0.830292 0.197036 0.582298 0.133003
O85   O     O_R   0.776842 0.147468 0.574908 -0.237011
O86   O     O_R   0.894978 0.186652 0.556083 -0.328867
C114  C     C_2   0.730364 0.564343 0.623646 0.899621
O87   O     O_2   0.795264 0.582028 0.611292 -0.492170
O88   O     O_R   0.629028 0.643790 0.628021 -0.639601
H18   H     H_    0.618706 0.712977 0.620061 0.323542
N26   N     N_R   0.777971 0.494399 0.814901 0.140951
O89   O     O_R   0.833974 0.539967 0.812873 -0.166944
O90   O     O_R   0.686931 0.530799 0.795402 -0.358638
C115  C     C_2   0.816071 0.486239 0.903456 0.956938
O91   O     O_2   0.821201 0.560664 0.892917 -0.447828
O92   O     O_R   0.779570 0.491384 0.941461 -0.624920
H19   H     H_    0.761175 0.559872 0.957363 0.345106
N27   N     N_R   0.436250 0.177087 0.407930 0.133898
O93   O     O_R   0.514357 0.085381 0.401709 -0.303270
O94   O     O_R   0.387171 0.196395 0.440842 -0.318298
C116  C     C_2   0.792543 0.510911 0.706410 0.925939
O95   O     O_2   0.872053 0.491059 0.727904 -0.380081
O96   O     O_R   0.704291 0.607226 0.711296 -0.614910
H20   H     H_    0.716243 0.654157 0.733328 0.359526
N28   N     N_R   0.474662 0.885940 0.910481 0.131820
O97   O     O_R   0.494330 0.963354 0.917457 -0.320210
O98   O     O_R   0.511807 0.813527 0.936421 -0.326068
C117  C     C_2   0.517766 0.864156 0.825845 0.942214
O99   O     O_2   0.548772 0.924779 0.840196 -0.474139
O100  O     O_R   0.575626 0.784652 0.797667 -0.615163
H21   H     H_    0.641395 0.785474 0.791876 0.344668
N29   N     N_R   0.377313 0.970804 0.670838 0.143650
O101  O     O_R   0.438634 0.978520 0.700839 -0.325982
O102  O     O_R   0.305383 0.054622 0.654411 -0.320429
C118  C     C_2   0.388951 0.903654 0.584341 0.915025
O103  O     O_2   0.442172 0.947186 0.591548 -0.471985
O104  O     O_R   0.333586 0.912658 0.546463 -0.639252
H22   H     H_    0.343930 0.956919 0.527743 0.342854
N30   N     N_R   0.385690 0.586666 0.621083 0.071704
O105  O     O_R   0.473015 0.500799 0.622941 -0.397830
O106  O     O_R   0.298441 0.583816 0.616410 -0.332457
C119  C     C_2   0.205064 0.818150 0.789158 0.891334
O107  O     O_2   0.202203 0.737735 0.792666 -0.497375
O108  O     O_R   0.154020 0.877323 0.755372 -0.641644
H23   H     H_    0.117259 0.845685 0.736008 0.333142
C120  C     C_2   0.164982 0.843660 0.876306 0.945947
O109  O     O_2   0.083367 0.865598 0.856087 -0.464435
O110  O     O_R   0.186196 0.793406 0.912593 -0.638974
H24   H     H_    0.127592 0.780739 0.919013 0.323858
C121  C     C_2   0.398888 0.639192 0.705807 0.896689
O111  O     O_2   0.341719 0.599828 0.702431 -0.484960
O112  O     O_R   0.472891 0.617086 0.738807 -0.620121
H25   H     H_    0.471135 0.568070 0.757788 0.337966
N31   N     N_R   0.256732 0.548862 0.381460 0.158849
O113  O     O_R   0.178647 0.584074 0.404250 -0.277465
O114  O     O_R   0.278768 0.613841 0.366591 -0.342622
C122  C     C_2   0.143908 0.415053 0.195577 0.951549
O115  O     O_2   0.128250 0.372894 0.222080 -0.531581
O116  O     O_R   0.078701 0.520501 0.189907 -0.552414
H26   H     H_    0.021912 0.553423 0.209736 0.377941
N32   N     N_R   0.111088 0.421302 0.109035 0.137237
O117  O     O_R   0.034322 0.409768 0.118871 -0.377204
O118  O     O_R   0.092669 0.495268 0.085723 -0.288346
N33   N     N_R   0.240948 0.500419 0.297578 0.151305
O119  O     O_R   0.286340 0.515264 0.269164 -0.324101
O120  O     O_R   0.143856 0.565001 0.302888 -0.281603
N34   N     N_R   0.855460 0.473985 0.434472 0.155458
O121  O     O_R   0.815336 0.574214 0.434214 -0.225185
O122  O     O_R   0.909312 0.427483 0.466987 -0.310541

loop_
_geom_bond_atom_site_label_1
_geom_bond_atom_site_label_2
_geom_bond_distance
_ccdc_geom_bond_type
O6    C3    1.277613 A    
C60   C111  1.481583 S    
N5    N6    1.329750 A    
C115  O92   1.399056 S    
C71   C72   1.414588 A    
C11   C109  1.480598 S    
O11   Cr3   2.032836 S    
N25   O85   1.299803 A    
N14   O38   1.301082 A    
C119  O108  1.397900 S    
C101  O44   1.397175 S    
C101  O43   1.223248 D    
C5    C49   1.495700 S    
C67   C68   1.420532 A    
C3    C21   1.492703 S    
C17   C18   1.436591 S    
C77   C82   1.416509 A    
C8    N31   1.434010 S    
O48   H6    1.013902 S    
C44   C102  1.490770 S    
O34   H4    1.013981 S    
C35   C40   1.417390 A    
N31   O114  1.300600 A    
O4    Cr2   1.917840 S    
C54   N22   1.431125 S    
O68   H11   1.013769 S    
O18   Cr6   2.032241 S    
O25   Cr6   1.915315 S    
N15   O40   1.299334 A    
O17   Cr5   1.912795 S    
O8    Cr1   1.918991 S    
C10   C11   1.408303 A    
O108  H23   1.013786 S    
C14   C97   1.491237 S    
C122  O116  1.398159 S    
C11   C12   1.417484 A    
C6    C63   1.497868 S    
N4    C27   1.358279 A    
C64   C65   1.405765 A    
C121  O112  1.398399 S    
N1    N2    1.329994 A    
N30   O106  1.298501 A    
C18   C19   1.197496 T    
C97   O28   1.398663 S    
C57   C58   1.409930 A    
O4    C2    1.274984 A    
C70   C76   1.417487 A    
C78   C79   1.399618 A    
C2    C7    1.483207 S    
C29   C33   1.411495 A    
O23   Cr5   1.918158 S    
O84   H17   1.013750 S    
C13   C17   1.410897 A    
C45   N19   1.435934 S    
C117  O99   1.221432 D    
C88   C89   1.202065 T    
C105  O54   1.397768 S    
C113  O83   1.221857 D    
C23   C24   1.408278 A    
C29   C30   1.411841 A    
O50   H7    1.013876 S    
C72   C73   1.408905 A    
C71   C115  1.491426 S    
O30   H2    1.011493 S    
C32   N16   1.434941 S    
C63   C68   1.415184 A    
C85   C86   1.419446 A    
O110  H24   1.013939 S    
N13   O35   1.301182 A    
C100  O33   1.221808 D    
C83   C84   1.409791 A    
C114  O88   1.396605 S    
O96   H20   1.013219 S    
N33   O120  1.301126 A    
C13   C103  1.487950 S    
O12   C6    1.288741 A    
N31   O113  1.301136 A    
C103  O49   1.223322 D    
C7    C8    1.416079 A    
C120  O110  1.398895 S    
C29   N14   1.434365 S    
C31   N15   1.434766 S    
C46   C47   1.408362 A    
C80   C81   1.413540 A    
N1    C27   1.356318 A    
C13   C14   1.417180 A    
C49   C54   1.417063 A    
N27   O93   1.300224 A    
C15   C20   1.415521 A    
N2    C28   1.355888 A    
C39   C40   1.404449 A    
C63   C64   1.425332 A    
O82   H16   1.013821 S    
C69   C70   1.416229 A    
C27   C33   1.474517 S    
O17   C92   1.278468 A    
C85   C90   1.417350 A    
C59   C110  1.494345 S    
C121  O111  1.222853 D    
C102  O48   1.398861 S    
O100  H21   1.013731 S    
C65   C116  1.488432 S    
O32   H3    1.013837 S    
C38   C42   1.461986 S    
C37   C38   1.407082 A    
C46   N20   1.434676 S    
N17   O45   1.300633 A    
Cr3   O13   1.973076 S    
N16   O42   1.300880 A    
N22   O63   1.300136 A    
N21   O62   1.300867 A    
C99   O32   1.398467 S    
N16   O41   1.300965 A    
C74   C75   1.204677 T    
N24   O80   1.301900 A    
C114  O87   1.222430 D    
C8    C9    1.398994 A    
O76   H14   1.013930 S    
N5    C41   1.355605 A    
O21   Cr4   1.910323 S    
C79   C121  1.492897 S    
N11   N12   1.330890 A    
C2    O5    1.274682 A    
C23   C100  1.487296 S    
C106  O65   1.222175 D    
N17   O46   1.301051 A    
N9    N10   1.331414 A    
C64   C114  1.481051 S    
N34   O121  1.300548 A    
C55   C61   1.475522 S    
Cr4   O26   1.974339 S    
N32   O118  1.301234 A    
O19   Cr6   1.913421 S    
O1    Cr1   2.036742 S    
C5    O11   1.268804 A    
C98   O30   1.396331 S    
C48   C93   1.488309 S    
C43   C44   1.413783 A    
O14   Cr4   2.027102 S    
C73   C74   1.446369 S    
O10   Cr2   1.911503 S    
O25   C96   1.276484 A    
Cr1   O13   1.974292 S    
O1    C3    1.276091 A    
C50   C51   1.420643 A    
O16   Cr5   2.035309 S    
N23   O73   1.301063 A    
O66   H10   1.013915 S    
C58   C62   1.419947 A    
O24   Cr6   2.030093 S    
C62   C95   1.501938 S    
C57   C61   1.414187 A    
C50   N21   1.435000 S    
O23   C95   1.278080 A    
C116  O96   1.397704 S    
C72   N26   1.435244 S    
C9    C10   1.403458 A    
C51   C52   1.414812 A    
C40   N17   1.433506 S    
C37   C104  1.481460 S    
C117  O100  1.398233 S    
C39   C105  1.490116 S    
O12   Cr3   1.912544 S    
C1    O3    1.275018 A    
C31   C32   1.402590 A    
C16   C17   1.409572 A    
C38   C39   1.407934 A    
C113  O84   1.398827 S    
N18   O56   1.301005 A    
C108  O70   1.397996 S    
C45   C48   1.413520 A    
C49   C50   1.416689 A    
O54   H9    1.013732 S    
O112  H25   1.013851 S    
C52   C56   1.472267 S    
C109  O72   1.396896 S    
O72   H13   1.013827 S    
C83   C87   1.407636 A    
C86   C119  1.487644 S    
C94   O22   1.277132 A    
C107  O67   1.221894 D    
C70   N24   1.443520 S    
O7    Cr1   2.026158 S    
C44   C48   1.419429 A    
C12   N27   1.444925 S    
C36   C101  1.488946 S    
O92   H19   1.013969 S    
O10   C5    1.285306 A    
C26   C98   1.480670 S    
O15   C91   1.278507 A    
C22   N34   1.437108 S    
C66   C67   1.413780 A    
C110  O75   1.223593 D    
C65   C66   1.406126 A    
C24   C28   1.460919 S    
C7    C12   1.418265 A    
C60   C61   1.416396 A    
C111  O78   1.397214 S    
C57   N23   1.440127 S    
O44   H5    1.013833 S    
C91   O16   1.274583 A    
N20   O59   1.300661 A    
N28   O98   1.300943 A    
C67   C113  1.489783 S    
O20   Cr4   2.035105 S    
C82   C118  1.488344 S    
C1    C35   1.489635 S    
C22   C23   1.412467 A    
O70   H12   1.013248 S    
O20   C96   1.282108 A    
Cr2   O13   1.974547 S    
C66   C75   1.448164 S    
N12   C55   1.356558 A    
C110  O76   1.398062 S    
N25   O86   1.300893 A    
C25   C26   1.405805 A    
C111  O77   1.222665 D    
C95   O24   1.282392 A    
C79   C80   1.405940 A    
C53   C54   1.402218 A    
C36   C37   1.414369 A    
C100  O34   1.398598 S    
C24   C25   1.405878 A    
C83   C117  1.489311 S    
C21   C26   1.421159 A    
C115  O91   1.221338 D    
C84   N28   1.435605 S    
C68   N25   1.435883 S    
C109  O71   1.222502 D    
N11   C56   1.357074 A    
C90   C96   1.499318 S    
O116  H26   1.013813 S    
N26   O90   1.300825 A    
O21   C94   1.279108 A    
N3    C28   1.353346 A    
C104  O51   1.222216 D    
C107  O68   1.398957 S    
N32   O117  1.299734 A    
C102  O47   1.222989 D    
C16   C122  1.490095 S    
C103  O50   1.398727 S    
O9    Cr2   2.033395 S    
C20   C92   1.490803 S    
O2    Cr1   1.910841 S    
C43   N18   1.435050 S    
C80   C89   1.440824 S    
C34   C91   1.489958 S    
C15   C16   1.404758 A    
C98   O29   1.223170 D    
N10   C56   1.356925 A    
N7    N8    1.329054 A    
N27   O94   1.301721 A    
C15   N32   1.435189 S    
O6    Cr3   1.917373 S    
C58   C106  1.490591 S    
N20   O60   1.301117 A    
Cr6   O26   1.974437 S    
N23   O74   1.301063 A    
C86   C87   1.414221 A    
C116  O95   1.222390 D    
Cr5   O26   1.973123 S    
O3    Cr2   2.027846 S    
N29   O101  1.301376 A    
C69   C112  1.481736 S    
C77   C78   1.408517 A    
N34   O122  1.301058 A    
C9    N33   1.438857 S    
C14   C20   1.421139 A    
N21   O61   1.300955 A    
C31   C34   1.413798 A    
N18   O55   1.301098 A    
N26   O89   1.300194 A    
C112  O82   1.397860 S    
O2    C1    1.277034 A    
O88   H18   1.013673 S    
N30   O105  1.300581 A    
C30   C34   1.419809 A    
O22   Cr5   2.027554 S    
C41   C47   1.470378 S    
C99   O31   1.223147 D    
C85   C120  1.488958 S    
N22   O64   1.300875 A    
C118  O103  1.223145 D    
C52   C53   1.408820 A    
C30   C99   1.489171 S    
C35   C36   1.421239 A    
C4    C77   1.478044 S    
O7    C6    1.266546 A    
O19   C93   1.278930 A    
N6    C42   1.356349 A    
O5    Cr3   2.030467 S    
N8    C41   1.357986 A    
C53   C108  1.488189 S    
O78   H15   1.013629 S    
N29   O102  1.301362 A    
C104  O52   1.397582 S    
C71   C76   1.416896 A    
C43   C47   1.410587 A    
C108  O69   1.222870 D    
C25   N13   1.440265 S    
C45   C46   1.401357 A    
N14   O37   1.301061 A    
C112  O81   1.222469 D    
N7    C42   1.352709 A    
N15   O39   1.301198 A    
N28   O97   1.299578 A    
C51   C107  1.490276 S    
N19   O57   1.299375 A    
C21   C22   1.418370 A    
C120  O109  1.221595 D    
N3    N4    1.329134 A    
C10   C19   1.433841 S    
C78   N30   1.426676 S    
C4    O9    1.272711 A    
C59   C60   1.418223 A    
N13   O36   1.301124 A    
N33   O119  1.301263 A    
N24   O79   1.298257 A    
C59   C62   1.417183 A    
C81   C82   1.423206 A    
C119  O107  1.223030 D    
C106  O66   1.399062 S    
C84   C90   1.418971 A    
O104  H22   1.013871 S    
C105  O53   1.223095 D    
C81   N29   1.439094 S    
C76   C94   1.496870 S    
O15   Cr4   1.919292 S    
C87   C88   1.444432 S    
O52   H8    1.012766 S    
C97   O27   1.223337 D    
C118  O104  1.398717 S    
N9    C55   1.357086 A    
C69   C73   1.407434 A    
C122  O115  1.223189 D    
O28   H1    1.013849 S    
O8    C4    1.274275 A    
C32   C33   1.409434 A    
C92   O18   1.274638 A    
N19   O58   1.301312 A    
O14   C93   1.274946 A    
