data_mof_unit_63292.cif
_audit_creation_date              2012-10-26T17:24:15-0400
_audit_creation_method            fapswitch 2.2
_symmetry_space_group_name_H-M    P1
_symmetry_Int_Tables_number       1
_space_group_crystal_system       triclinic
_cell_length_a                    42.623225
_cell_length_b                    29.424873
_cell_length_c                    29.419577
_cell_angle_alpha                 90.000266
_cell_angle_beta                  133.873787
_cell_angle_gamma                 89.996793
_cell_volume                      26598.2605754

loop_
_atom_site_label
_atom_site_type_symbol
_atom_type_description
_atom_site_fract_x
_atom_site_fract_y
_atom_site_fract_z
_atom_type_partial_charge
C1    C     C_R   0.499987 0.585484 0.500005 0.551933
C2    C     C_1   0.835131 0.001070 0.336478 0.035384
C3    C     C_3   0.761182 0.958528 0.265549 0.260175
C4    C     C_1   0.373326 0.500536 0.374085 0.012856
C5    C     C_1   0.873326 0.000599 0.374079 0.012859
C6    C     C_1   0.120444 0.500010 0.120670 0.022912
C7    C     C_1   0.620444 0.000016 0.120693 0.022916
C8    C     C_3   0.261150 0.522187 0.300838 -0.110862
C9    C     C_3   0.761133 0.025358 0.298944 -0.110811
C10   C     C_3   0.289195 0.501176 0.291109 0.019855
C11   C     C_3   0.789195 0.001337 0.291080 0.019824
C12   C     C_3   0.246966 0.557280 0.142388 0.043160
C13   C     C_1   0.158644 0.500118 0.159238 0.023511
C14   C     C_3   0.253640 0.528232 0.106537 -0.278441
C15   C     C_3   0.219778 0.539159 0.036207 -0.479791
C16   C     C_3   0.248778 0.381866 0.238488 0.028735
C17   C     C_3   0.267081 0.334569 0.266470 -0.244495
C18   C     C_3   0.234692 0.297503 0.220836 -0.479621
C19   C     C_3   0.746941 0.048555 0.138106 0.043207
C20   C     C_3   0.753614 0.016141 0.104760 -0.278431
C21   C     C_3   0.719744 0.024070 0.033659 -0.479733
C22   C     C_3   0.748843 0.881419 0.248312 0.028728
C23   C     C_3   0.767167 0.835076 0.280155 -0.244484
C24   C     C_1   0.658644 0.000147 0.159270 0.023498
C25   C     C_3   0.734800 0.797044 0.237612 -0.479680
C26   C     C_1   0.499975 0.636531 0.499965 -0.033129
C27   C     C_1   0.499957 0.363469 0.499946 -0.034850
C28   C     C_1   0.999975 0.136531 0.499965 -0.033099
C29   C     C_1   0.999957 0.863469 0.499947 -0.035123
C30   C     C_1   0.499967 0.678853 0.499951 -0.026116
C31   C     C_1   0.499942 0.321148 0.499926 -0.029261
C32   C     C_1   0.999967 0.178853 0.499952 -0.026006
C33   C     C_R   0.499980 0.414516 0.499998 0.552009
C34   C     C_1   0.999942 0.821148 0.499927 -0.029592
C35   C     C_1   0.499961 0.729018 0.499950 0.010887
C36   C     C_1   0.499932 0.270982 0.499921 0.007243
C37   C     C_1   0.999961 0.229018 0.499950 0.011050
C38   C     C_1   0.999933 0.770982 0.499922 0.006914
C39   C     C_1   0.499958 0.771339 0.499955 0.010117
C40   C     C_1   0.499931 0.228661 0.499928 0.006873
C41   C     C_1   0.999959 0.271339 0.499955 0.010296
C42   C     C_1   0.999932 0.728661 0.499929 0.006572
C43   C     C_1   0.499957 0.821504 0.499965 -0.027566
C44   C     C_R   0.999987 0.085484 0.500005 0.551827
C45   C     C_1   0.499937 0.178496 0.499945 -0.030090
C46   C     C_1   0.999957 0.321505 0.499965 -0.027401
C47   C     C_1   0.999937 0.678496 0.499946 -0.030353
C48   C     C_1   0.499957 0.863826 0.499974 -0.033696
C49   C     C_1   0.499945 0.136174 0.499962 -0.035453
C50   C     C_1   0.999957 0.363826 0.499974 -0.033568
C51   C     C_1   0.999945 0.636174 0.499963 -0.035663
C52   C     C_R   0.418280 0.500044 0.418504 0.569711
C53   C     C_R   0.918280 0.000043 0.418503 0.569494
C54   C     C_1   0.635088 0.500001 0.634698 -0.040316
C55   C     C_R   0.999980 0.914516 0.499998 0.551856
C56   C     C_1   0.135088 0.000001 0.634698 -0.040303
C57   C     C_1   0.676568 0.500002 0.676162 -0.025121
C58   C     C_1   0.176568 0.000002 0.676162 -0.025109
C59   C     C_1   0.726139 0.500003 0.725810 0.007003
C60   C     C_1   0.226139 0.000003 0.725810 0.007007
C61   C     C_1   0.767620 0.500003 0.767382 0.007016
C62   C     C_1   0.267620 0.000003 0.767382 0.007013
C63   C     C_1   0.817192 0.500004 0.817074 -0.025073
C64   C     C_1   0.317192 0.000004 0.817074 -0.025083
C65   C     C_1   0.858672 0.500004 0.858652 -0.040261
C66   C     C_3   0.204572 0.500360 0.205534 -0.034816
C67   C     C_1   0.358672 0.000004 0.858652 -0.040273
C68   C     C_R   0.994845 0.500000 0.080451 0.556395
C69   C     C_R   0.494846 1.000000 0.080451 0.556251
C70   C     C_R   0.075489 0.499998 0.075359 0.570437
C71   C     C_R   0.575489 0.999998 0.075367 0.570628
C72   C     C_R   0.993233 0.500000 0.907800 0.546320
C73   C     C_R   0.493234 0.000000 0.907801 0.546681
C74   C     C_R   0.909163 0.500001 0.909248 0.541872
C75   C     C_R   0.409163 0.000001 0.909248 0.541886
C76   C     C_R   0.584599 0.500000 0.584468 0.542176
C77   C     C_3   0.704572 0.000423 0.205563 -0.034793
C78   C     C_R   0.084599 0.000000 0.584468 0.542163
C79   C     C_R   0.499100 1.000000 0.414046 0.547682
C80   C     C_R   0.999100 0.500000 0.414046 0.547766
C81   C     C_R   0.499959 0.914874 0.499986 0.547436
C82   C     C_R   0.499955 0.085126 0.499982 0.546936
C83   C     C_R   0.999959 0.414874 0.499986 0.547519
C84   C     C_R   0.999955 0.585126 0.499983 0.546869
C85   C     C_R   0.500746 0.000000 0.585883 0.546681
C86   C     C_R   0.000746 0.500000 0.585883 0.546613
C87   C     C_1   0.995604 0.500000 0.132247 -0.026672
C88   C     C_3   0.232700 0.479192 0.195565 -0.194961
C89   C     C_1   0.495605 1.000000 0.132247 -0.026857
C90   C     C_1   0.996246 0.499999 0.175205 -0.020855
C91   C     C_1   0.496246 0.999999 0.175205 -0.020985
C92   C     C_1   0.997000 0.499999 0.226115 0.014392
C93   C     C_1   0.497001 0.999999 0.226115 0.014283
C94   C     C_1   0.497616 0.999999 0.269047 0.012259
C95   C     C_1   0.997616 0.499999 0.269047 0.012382
C96   C     C_1   0.498293 1.000000 0.319881 -0.026446
C97   C     C_1   0.998293 0.499999 0.319880 -0.026321
C98   C     C_1   0.498766 1.000000 0.362672 -0.033108
C99   C     C_3   0.732717 0.976220 0.197474 -0.194981
C100  C     C_1   0.998766 0.500000 0.362672 -0.033002
C101  C     C_1   0.994244 0.500001 0.857749 -0.039735
C102  C     C_1   0.494246 0.000001 0.857750 -0.039302
C103  C     C_3   0.232385 0.543683 0.234505 0.231536
C104  C     C_3   0.232731 0.478778 0.271122 0.234270
C105  C     C_3   0.732362 0.043703 0.230969 0.231506
C106  C     C_3   0.732736 0.981981 0.272800 0.234344
C107  C     C_1   0.995406 0.500002 0.816591 -0.032976
C108  C     C_1   0.495408 0.000002 0.816593 -0.032590
C109  C     C_1   0.996935 0.500004 0.767957 0.004856
C110  C     C_1   0.335131 0.500950 0.336496 0.035363
C111  C     C_1   0.496937 0.000003 0.767959 0.005173
C112  C     C_1   0.498221 0.000003 0.726929 0.005595
C113  C     C_1   0.998220 0.500004 0.726927 0.005315
C114  C     C_1   0.499610 0.000002 0.678150 -0.030811
C115  C     C_1   0.999609 0.500003 0.678149 -0.031058
C116  C     C_1   0.500475 0.000001 0.636686 -0.036116
C117  C     C_1   0.000475 0.500002 0.636686 -0.036316
C118  C     C_3   0.260813 0.522621 0.225789 0.268853
C119  C     C_3   0.261160 0.458314 0.262051 0.260181
C120  C     C_3   0.760807 0.019683 0.224119 0.268812
Cl1   Cl    Cl    0.211824 0.600290 0.214366 -0.560710
Cl2   Cl    Cl    0.212638 0.449604 0.299683 -0.563735
Cl3   Cl    Cl    0.711771 0.100151 0.206168 -0.560667
Cl4   Cl    Cl    0.712648 0.956876 0.303585 -0.564135
Cu1   Cu    Cu3+1 0.500480 0.500000 0.542990 0.974393
Cu2   Cu    Cu3+1 0.958020 0.500000 0.458050 0.963172
Cu3   Cu    Cu3+1 0.541920 0.000000 0.541950 0.963585
Cu4   Cu    Cu3+1 0.041920 0.500000 0.541950 0.963422
Cu5   Cu    Cu3+1 0.000480 0.000000 0.542990 0.974152
Cu6   Cu    Cu3+1 0.499450 0.500000 0.457010 0.971441
Cu7   Cu    Cu3+1 0.999450 0.000000 0.457010 0.972191
Cu8   Cu    Cu3+1 0.993800 0.542460 0.993900 0.989042
Cu9   Cu    Cu3+1 0.993800 0.457540 0.993900 0.966907
Cu10  Cu    Cu3+1 0.493800 0.042460 0.993900 0.990505
Cu11  Cu    Cu3+1 0.493800 0.957540 0.993900 0.964958
Cu12  Cu    Cu3+1 0.458020 0.000000 0.458050 0.963307
H1    H     H_    0.219558 0.462124 0.151669 0.091958
H2    H     H_    0.225669 0.517744 0.011663 0.157597
H3    H     H_    0.222013 0.575465 0.028365 0.159254
H4    H     H_    0.241520 0.384577 0.194232 0.122731
H5    H     H_    0.218100 0.386136 0.227464 0.176094
H6    H     H_    0.297648 0.329680 0.277540 0.177114
H7    H     H_    0.274771 0.331527 0.310991 0.198211
H8    H     H_    0.204149 0.301227 0.210028 0.163591
H9    H     H_    0.248974 0.263631 0.242545 0.158369
H10   H     H_    0.227078 0.299437 0.176328 0.150055
H11   H     H_    0.751014 0.084006 0.129922 0.179812
H12   H     H_    0.719590 0.956691 0.155090 0.092054
H13   H     H_    0.712804 0.045860 0.116609 0.147689
H14   H     H_    0.786654 0.021347 0.123452 0.185149
H15   H     H_    0.751215 0.980428 0.114306 0.164666
H16   H     H_    0.686484 0.017995 0.013768 0.153608
H17   H     H_    0.725633 0.000245 0.010957 0.157638
H18   H     H_    0.721974 0.059433 0.022888 0.159337
H19   H     H_    0.741592 0.881095 0.203964 0.122734
H20   H     H_    0.718157 0.887274 0.236859 0.176074
H21   H     H_    0.797741 0.828617 0.291704 0.177086
H22   H     H_    0.774849 0.835057 0.324796 0.198203
H23   H     H_    0.273813 0.539477 0.344373 0.162596
H24   H     H_    0.704249 0.802363 0.226418 0.163518
H25   H     H_    0.749097 0.763895 0.262085 0.158336
H26   H     H_    0.727195 0.795953 0.193076 0.150061
H27   H     H_    0.773781 0.045117 0.340948 0.162535
H28   H     H_    0.251049 0.593611 0.137143 0.179720
H29   H     H_    0.212826 0.553563 0.120620 0.147773
H30   H     H_    0.286684 0.534595 0.125710 0.185067
H31   H     H_    0.251235 0.491665 0.113129 0.164698
H32   H     H_    0.186515 0.532008 0.015768 0.153647
O1    O     O_R   0.500410 0.561970 0.536310 -0.483264
O2    O     O_R   0.963790 0.500000 0.401850 -0.482327
O3    O     O_R   0.534640 0.000000 0.472710 -0.479646
O4    O     O_R   0.034640 0.500000 0.472710 -0.479650
O5    O     O_R   0.464530 0.938000 0.464560 -0.480414
O6    O     O_R   0.464530 0.062000 0.464560 -0.482570
O7    O     O_R   0.964530 0.438000 0.464560 -0.480348
O8    O     O_R   0.964530 0.562000 0.464560 -0.482658
O9    O     O_R   0.535390 0.937990 0.535420 -0.481964
O10   O     O_R   0.535390 0.062010 0.535420 -0.481239
O11   O     O_R   0.035390 0.437990 0.535420 -0.481922
O12   O     O_R   0.500410 0.438030 0.536310 -0.481665
O13   O     O_R   0.035390 0.562010 0.535420 -0.481287
O14   O     O_R   0.465290 0.000000 0.527290 -0.480963
O15   O     O_R   0.965290 0.500000 0.527290 -0.481054
O16   O     O_R   0.536150 0.000000 0.598150 -0.482840
O17   O     O_R   0.036150 0.500000 0.598150 -0.482874
O18   O     O_R   0.499540 0.561910 0.463710 -0.482420
O19   O     O_R   0.499540 0.438090 0.463710 -0.484045
O20   O     O_R   0.999540 0.061910 0.463710 -0.482203
O21   O     O_R   0.999540 0.938090 0.463710 -0.484002
O22   O     O_R   0.439190 0.500000 0.475090 -0.493838
O23   O     O_R   0.000410 0.061970 0.536310 -0.483402
O24   O     O_R   0.939190 0.000000 0.475090 -0.493694
O25   O     O_R   0.438320 0.500000 0.402480 -0.491227
O26   O     O_R   0.938320 0.000000 0.402480 -0.491037
O27   O     O_R   0.561610 0.500000 0.597520 -0.481723
O28   O     O_R   0.061610 0.000000 0.597520 -0.481817
O29   O     O_R   0.560740 0.500000 0.524910 -0.481471
O30   O     O_R   0.060740 0.000000 0.524910 -0.481367
O31   O     O_R   0.994560 0.535840 0.056620 -0.480126
O32   O     O_R   0.994560 0.464160 0.056620 -0.481178
O33   O     O_R   0.494560 0.035840 0.056620 -0.480123
O34   O     O_R   0.000410 0.938030 0.536310 -0.481807
O35   O     O_R   0.494560 0.964160 0.056620 -0.481650
O36   O     O_R   0.055010 0.535850 0.055100 -0.482178
O37   O     O_R   0.055010 0.464150 0.055100 -0.499406
O38   O     O_R   0.555010 0.035850 0.055100 -0.481152
O39   O     O_R   0.555010 0.964150 0.055100 -0.500705
O40   O     O_R   0.993040 0.535870 0.931160 -0.483067
O41   O     O_R   0.993040 0.464130 0.931160 -0.487024
O42   O     O_R   0.493040 0.035870 0.931160 -0.482484
O43   O     O_R   0.493040 0.964130 0.931160 -0.487154
O44   O     O_3   0.279207 0.546451 0.207328 -0.540325
O45   O     O_R   0.932590 0.535860 0.932690 -0.481779
O46   O     O_3   0.280095 0.414646 0.282280 -0.540032
O47   O     O_3   0.779190 0.040422 0.203822 -0.540167
O48   O     O_3   0.780139 0.915116 0.289369 -0.540019
O49   O     O_R   0.932590 0.464140 0.932690 -0.481799
O50   O     O_R   0.432590 0.035860 0.932690 -0.481721
O51   O     O_R   0.432590 0.964140 0.932690 -0.481865
O52   O     O_R   0.463790 0.000000 0.401850 -0.482422

loop_
_geom_bond_atom_site_label_1
_geom_bond_atom_site_label_2
_ccdc_geom_bond_type
C101  C107  T    
Cu11  O43   S    
C99   H12   S    
C63   C65   T    
C69   O33   A    
C93   C94   T    
Cu10  O42   S    
C83   O7    A    
Cu8   O40   S    
Cu9   O41   S    
C79   C98   S    
C35   C39   T    
C111  C112  T    
C80   O2    A    
Cu6   O25   S    
C97   C100  T    
C112  C114  S    
C68   O32   A    
C72   O40   A    
C22   H20   S    
C1    O18   A    
C27   C33   S    
C70   O37   A    
Cu5   Cu7   S    
C85   O14   A    
C30   C35   S    
C4    C52   S    
C68   O31   A    
C10   C118  S    
C55   O21   A    
C5    C53   S    
C84   O13   A    
C38   C42   T    
C22   O48   S    
C76   O29   A    
C31   C36   S    
C44   O23   A    
C66   C88   S    
Cu10  O38   S    
C104  Cl2   S    
C72   C101  S    
Cu1   O27   S    
C58   C60   S    
C7    C24   T    
C23   H22   S    
C23   H21   S    
C56   C78   S    
C48   C81   S    
C105  Cl3   S    
C60   C62   T    
C21   H16   S    
C79   O3    A    
C9    H27   S    
C36   C40   T    
C62   C64   S    
C10   C119  S    
C99   C120  S    
Cu1   Cu6   S    
C71   O38   A    
C47   C51   T    
C82   O6    A    
C25   H25   S    
C16   C17   S    
C115  C117  T    
C96   C98   T    
C108  C111  S    
C41   C46   S    
C105  C120  S    
C102  C108  T    
Cu1   O22   S    
C75   O51   A    
C56   C58   T    
C89   C91   T    
Cu6   O29   S    
Cu1   O1    S    
C43   C48   T    
C109  C113  T    
C13   C66   S    
C15   H2    S    
Cu7   O20   S    
C18   H9    S    
C71   O39   A    
C80   C100  S    
C33   O12   A    
C53   O26   A    
C107  C109  S    
Cu2   O15   S    
C16   H4    S    
C25   H24   S    
C69   C89   S    
C11   C120  S    
C22   C23   S    
C8    C103  S    
C50   C83   S    
C103  C118  S    
C15   H3    S    
C22   H19   S    
Cu7   O21   S    
C3    C106  S    
C70   O36   A    
C40   C45   S    
Cu12  O6    S    
C59   C61   T    
Cu8   O36   S    
Cu4   O13   S    
C9    C105  S    
C27   C31   T    
Cu4   O17   S    
Cu3   O9    S    
C64   C67   T    
C66   C104  S    
C73   O42   A    
C28   C32   T    
Cu7   O30   S    
C3    C11   S    
Cu3   Cu12  S    
C12   O44   S    
C12   H29   S    
Cu6   O19   S    
Cu8   Cu9   S    
C39   C43   S    
C29   C55   S    
C75   O50   A    
C3    O48   S    
Cu10  O50   S    
C55   O34   A    
C29   C34   T    
C28   C44   S    
C92   C95   T    
Cu9   O49   S    
C65   C74   S    
C17   H6    S    
C120  O47   S    
C81   O5    A    
C49   C82   S    
C77   C99   S    
Cu3   O16   S    
Cu2   O2    S    
C76   O27   A    
C91   C93   S    
C9    C11   S    
C90   C92   S    
C72   O41   A    
C45   C49   T    
C25   H26   S    
C21   H18   S    
C118  O44   S    
Cu11  O51   S    
C82   O10   A    
Cu1   O12   S    
C61   C63   S    
C17   C18   S    
C33   O19   A    
Cu4   O11   S    
C78   O28   A    
C32   C37   S    
C16   O46   S    
C88   C119  S    
C94   C96   S    
C8    C104  S    
C44   O20   A    
C54   C76   S    
Cu5   O34   S    
C73   C102  S    
C12   C14   S    
C26   C30   T    
Cu9   O32   S    
C74   O45   A    
C1    C26   S    
C18   H8    S    
C15   H32   S    
Cu7   O26   S    
C14   H30   S    
C80   O4    A    
Cu3   O3    S    
C88   C118  S    
C103  Cl1   S    
Cu5   O28   S    
Cu2   O8    S    
Cu10  O33   S    
Cu11  O39   S    
C6    C70   S    
C4    C110  T    
Cu12  O5    S    
C77   C106  S    
Cu2   Cu4   S    
C20   C21   S    
C34   C38   S    
Cu3   O10   S    
C66   C103  S    
C73   O43   A    
C85   C116  S    
C52   O25   A    
C18   H10   S    
C52   O22   A    
C114  C116  T    
Cu6   O18   S    
Cu4   O4    S    
Cu10  Cu11  S    
Cu12  O52   S    
C85   O16   A    
C46   C50   T    
C20   H15   S    
C83   O11   A    
C86   O17   A    
C17   H7    S    
C104  C119  S    
C19   C20   S    
C77   C105  S    
C16   H5    S    
C9    C106  S    
C81   O9    A    
C6    C13   T    
C7    C71   S    
Cu11  O35   S    
C79   O52   A    
C86   O15   A    
C12   H28   S    
Cu5   O23   S    
C74   O49   A    
C1    O1    A    
C119  O46   S    
C19   H13   S    
C20   H14   S    
C10   C110  S    
C86   C117  S    
C19   O47   S    
C42   C47   S    
Cu8   O31   S    
C37   C41   T    
C53   O24   A    
C19   H11   S    
C88   H1    S    
C57   C59   S    
C2    C5    T    
C3    C99   S    
C24   C77   S    
C23   C25   S    
C67   C75   S    
Cu5   O24   S    
C69   O35   A    
C8    C10   S    
C87   C90   T    
Cu12  O14   S    
C68   C87   S    
C21   H17   S    
C14   C15   S    
C2    C11   S    
Cu8   O45   S    
C78   O30   A    
C106  Cl4   S    
C14   H31   S    
C84   O8    A    
C8    H23   S    
Cu9   O37   S    
C51   C84   S    
Cu2   O7    S    
C95   C97   S    
C113  C115  S    
C54   C57   T    
