data_mof_unit_51271.cif
_audit_creation_date              2012-12-11T15:37:19-0500
_audit_creation_method            fapswitch 2.2
_symmetry_space_group_name_H-M    P1
_symmetry_Int_Tables_number       1
_space_group_crystal_system       triclinic
_cell_length_a                    17.624187
_cell_length_b                    24.542921
_cell_length_c                    14.951241
_cell_angle_alpha                 90.011851
_cell_angle_beta                  127.042562
_cell_angle_gamma                 90.023657
_cell_volume                      5161.99758546

loop_
_atom_site_label
_atom_site_type_symbol
_atom_type_description
_atom_site_fract_x
_atom_site_fract_y
_atom_site_fract_z
_atom_type_partial_charge
C1    C     C_R   0.855557 0.652540 0.905620 0.536083
C2    C     C_3   0.580368 0.499646 0.635453 -0.210376
C3    C     C_3   0.062416 0.999841 0.522964 0.312107
C4    C     C_3   0.383269 0.494164 0.666783 0.307303
C5    C     C_3   0.298982 0.499728 0.669954 -0.934316
C6    C     C_3   0.599282 0.502104 0.395380 0.274287
C7    C     C_3   0.679727 0.503439 0.385174 -0.908231
C8    C     C_3   0.884622 0.998741 0.672462 0.306302
C9    C     C_3   0.801397 0.007276 0.676749 -0.931638
C10   C     C_3   0.097569 0.999313 0.397023 0.272596
C11   C     C_3   0.177818 0.998882 0.386375 -0.907117
C12   C     C_3   0.621861 0.269460 0.702730 0.465588
C13   C     C_3   0.913058 0.000175 0.441860 -0.215157
C14   C     C_3   0.644544 0.277851 0.620227 -0.928701
C15   C     C_3   0.391871 0.726223 0.293799 0.468990
C16   C     C_3   0.366195 0.723645 0.374407 -0.912353
C17   C     C_3   0.396402 0.278744 0.293411 0.475354
C18   C     C_3   0.373265 0.283136 0.376243 -0.905712
C19   C     C_3   0.652784 0.733271 0.715186 0.421978
C20   C     C_3   0.612354 0.702903 0.606535 -0.897703
C21   C     C_3   0.151134 0.767325 0.716322 0.424535
C22   C     C_3   0.111917 0.797224 0.607543 -0.889597
C23   C     C_3   0.893832 0.225573 0.292036 0.471313
C24   C     C_3   0.080303 0.000100 0.638425 -0.209412
C25   C     C_3   0.867747 0.223810 0.372305 -0.913621
C26   C     C_3   0.895867 0.776514 0.292526 0.463445
C27   C     C_3   0.868760 0.777227 0.371844 -0.903299
C28   C     C_3   0.152883 0.233325 0.716107 0.423441
C29   C     C_3   0.112838 0.203240 0.607230 -0.895747
C30   C     C_3   0.023572 0.792497 0.884770 0.366410
C31   C     C_3   0.920604 0.807200 0.792284 -0.889327
C32   C     C_3   0.987689 0.201874 0.107036 0.334948
C33   C     C_3   0.091325 0.187471 0.197256 -0.906611
C34   C     C_3   0.980826 0.814360 0.127007 0.314729
C35   C     C_R   0.718587 0.274855 0.896856 0.404529
C36   C     C_3   0.088636 0.818230 0.199251 -0.931484
C37   C     C_3   0.035687 0.192820 0.867272 0.350618
C38   C     C_3   0.927922 0.187957 0.791493 -0.919463
C39   C     C_3   0.530030 0.295029 0.885436 0.350652
C40   C     C_3   0.426303 0.309415 0.795679 -0.910282
C41   C     C_3   0.482847 0.699705 0.108904 0.328400
C42   C     C_3   0.587472 0.686690 0.196968 -0.910122
C43   C     C_3   0.480563 0.313239 0.125528 0.312864
C44   C     C_3   0.588368 0.317470 0.198832 -0.930240
C45   C     C_3   0.535777 0.694152 0.868928 0.355272
C46   C     C_R   0.293778 0.719107 0.099703 0.411025
C47   C     C_3   0.428143 0.688523 0.790901 -0.919724
C48   C     C_R   0.296677 0.283391 0.098616 0.357396
C49   C     C_R   0.719946 0.723971 0.899950 0.315355
C50   C     C_R   0.216808 0.777353 0.900497 0.374372
C51   C     C_R   0.795898 0.217669 0.097979 0.408893
C52   C     C_R   0.796979 0.783331 0.098175 0.358831
C53   C     C_R   0.153479 0.349767 0.094157 0.570600
C54   C     C_R   0.219691 0.223587 0.900727 0.312057
C55   C     C_R   0.156233 0.753650 0.918894 0.308017
C56   C     C_R   0.856459 0.240277 0.077438 0.269682
C57   C     C_R   0.857615 0.759713 0.078416 0.270868
C58   C     C_R   0.159279 0.247942 0.918745 0.299405
C59   C     C_R   0.658237 0.251716 0.916770 0.270565
C60   C     C_R   0.354458 0.741721 0.079375 0.278207
C61   C     C_R   0.357334 0.259314 0.079376 0.271755
C62   C     C_R   0.659582 0.748359 0.917982 0.297724
C63   C     C_R   0.194525 0.720353 0.012559 -0.318140
C64   C     C_R   0.152703 0.650461 0.094442 0.580423
C65   C     C_R   0.817899 0.273825 0.983983 -0.304387
C66   C     C_R   0.819305 0.725786 0.985865 -0.277870
C67   C     C_R   0.197357 0.281601 0.011567 -0.262815
C68   C     C_R   0.696686 0.218952 0.011121 -0.298857
C69   C     C_R   0.316244 0.775292 0.986119 -0.334253
C70   C     C_R   0.319029 0.225444 0.986666 -0.278869
C71   C     C_R   0.697689 0.781755 0.011181 -0.265579
C72   C     C_R   0.903873 0.450629 0.467903 -0.183030
C73   C     C_R   0.900910 0.549329 0.373549 -0.161827
C74   C     C_R   0.900676 0.450681 0.373345 -0.163143
C75   C     C_R   0.854362 0.347798 0.905129 0.561092
C76   C     C_R   0.904130 0.549377 0.468114 -0.178801
C77   C     C_R   0.402788 0.950633 0.467271 -0.180885
C78   C     C_R   0.400598 0.049332 0.373438 -0.161080
C79   C     C_R   0.400343 0.950688 0.373205 -0.162922
C80   C     C_R   0.403021 0.049370 0.467481 -0.178580
C81   C     C_R   0.910424 0.500003 0.334024 0.141641
C82   C     C_R   0.914239 0.500000 0.521475 0.144305
C83   C     C_R   0.410475 0.000011 0.334210 0.141180
C84   C     C_R   0.412952 0.999995 0.520759 0.143414
C85   C     C_R   0.939729 0.349295 0.089719 -0.274089
C86   C     C_R   0.355521 0.152569 0.905820 0.536203
C87   C     C_R   0.067269 0.647307 0.908628 -0.239791
C88   C     C_R   0.067923 0.353138 0.908335 -0.239894
C89   C     C_R   0.940961 0.650890 0.090132 -0.272058
C90   C     C_R   0.439657 0.849536 0.090148 -0.265131
C91   C     C_R   0.568043 0.146809 0.908363 -0.230513
C92   C     C_R   0.568149 0.853259 0.908305 -0.238543
C93   C     C_R   0.440974 0.150800 0.090339 -0.273205
C94   C     C_R   0.981785 0.545987 0.248676 -0.105553
C95   C     C_R   0.955587 0.454144 0.697577 -0.123924
C96   C     C_R   0.955627 0.545852 0.697628 -0.121422
C97   C     C_R   0.653935 0.849900 0.094214 0.570804
C98   C     C_R   0.981861 0.454011 0.248786 -0.105718
C99   C     C_R   0.481990 0.045990 0.248951 -0.104251
C100  C     C_R   0.455036 0.954153 0.697267 -0.124320
C101  C     C_R   0.455059 0.045833 0.697304 -0.120601
C102  C     C_R   0.482105 0.954027 0.249124 -0.106200
C103  C     C_R   0.732952 0.454617 0.756133 -0.113685
C104  C     C_R   0.268956 0.545601 0.283000 -0.104188
C105  C     C_R   0.268918 0.454439 0.282896 -0.100544
C106  C     C_R   0.732894 0.545183 0.756384 -0.112250
C107  C     C_R   0.233118 0.954768 0.757330 -0.107541
C108  C     C_R   0.653860 0.150160 0.094304 0.573507
C109  C     C_R   0.768477 0.045620 0.285149 -0.097853
C110  C     C_R   0.768481 0.954483 0.285222 -0.104646
C111  C     C_R   0.233230 0.045283 0.757425 -0.116032
C112  C     C_R   0.878623 0.682408 0.994678 0.186574
C113  C     C_R   0.136192 0.323174 0.004097 0.146863
C114  C     C_R   0.134992 0.677414 0.004577 0.115450
C115  C     C_R   0.876332 0.318152 0.993750 0.143913
C116  C     C_R   0.378545 0.182333 0.995043 0.188181
C117  C     C_R   0.636683 0.823361 0.004055 0.144683
C118  C     C_R   0.636535 0.176731 0.004151 0.125884
C119  C     C_R   0.353890 0.847783 0.905440 0.542906
C120  C     C_R   0.375901 0.818390 0.994556 0.164017
C121  C     C_R   0.951540 0.499996 0.273761 0.029947
C122  C     C_R   0.943292 0.499997 0.635645 0.057226
C123  C     C_R   0.451844 0.000008 0.274187 0.030544
C124  C     C_R   0.442320 0.999990 0.635102 0.057402
C125  C     C_R   0.677718 0.499811 0.732045 0.217737
C126  C     C_R   0.324466 0.500013 0.330048 0.234111
C127  C     C_R   0.178138 0.000045 0.734022 0.218521
C128  C     C_R   0.823715 0.000088 0.333587 0.232852
C129  C     C_3   0.505227 0.454292 0.591838 0.257469
C130  C     C_3   0.413881 0.499916 0.438126 -0.215651
C131  C     C_3   0.488668 0.545113 0.481672 0.252218
C132  C     C_3   0.489678 0.455575 0.479482 0.251765
C133  C     C_3   0.504126 0.544018 0.593965 0.277067
C134  C     C_3   0.004409 0.955417 0.596736 0.266448
C135  C     C_3   0.988571 0.044789 0.483506 0.256215
C136  C     C_3   0.988043 0.955221 0.483875 0.254002
C137  C     C_3   0.004967 0.045126 0.596330 0.276030
C138  C     C_3   0.429030 0.498674 0.551354 0.317531
C139  C     C_3   0.563423 0.500771 0.520558 0.320826
C140  C     C_3   0.929091 0.000454 0.555573 0.310795
H1    H     H_    0.978052 0.336128 0.175691 0.174539
H2    H     H_    0.939597 0.412323 0.669604 0.088023
H3    H     H_    0.895970 0.732862 0.271418 0.039437
H4    H     H_    0.798848 0.757204 0.331810 0.274569
H5    H     H_    0.921662 0.753793 0.448696 0.194380
H6    H     H_    0.866107 0.819677 0.395443 0.289950
H7    H     H_    0.214929 0.258024 0.737551 0.091022
H8    H     H_    0.096712 0.261364 0.701309 0.086925
H9    H     H_    0.047414 0.181107 0.580448 0.280908
H10   H     H_    0.095345 0.232870 0.541223 0.187528
H11   H     H_    0.165182 0.173626 0.617832 0.268490
H12   H     H_    0.064737 0.831137 0.920895 0.085180
H13   H     H_    0.939691 0.587672 0.669740 0.086579
H14   H     H_    0.025865 0.769740 0.950716 0.101017
H15   H     H_    0.877494 0.769614 0.753708 0.284667
H16   H     H_    0.891149 0.831557 0.827486 0.187970
H17   H     H_    0.916192 0.831552 0.726697 0.261022
H18   H     H_    0.983339 0.225162 0.040255 0.112696
H19   H     H_    0.946744 0.163153 0.071210 0.081122
H20   H     H_    0.097906 0.163166 0.264292 0.254534
H21   H     H_    0.119290 0.163205 0.160217 0.200995
H22   H     H_    0.134211 0.225220 0.234449 0.284600
H23   H     H_    0.953377 0.850750 0.143749 0.114523
H24   H     H_    0.972399 0.411923 0.260275 0.087741
H25   H     H_    0.953115 0.814525 0.037449 0.071423
H26   H     H_    0.117730 0.782966 0.182282 0.284027
H27   H     H_    0.109761 0.856399 0.179652 0.205537
H28   H     H_    0.118858 0.818411 0.289349 0.261426
H29   H     H_    0.060948 0.192817 0.955870 0.057039
H30   H     H_    0.065282 0.156638 0.853027 0.149568
H31   H     H_    0.900256 0.187826 0.702264 0.266785
H32   H     H_    0.906635 0.149420 0.809777 0.202071
H33   H     H_    0.896482 0.222755 0.806253 0.283314
H34   H     H_    0.572027 0.333598 0.914778 0.091652
H35   H     H_    0.472406 0.088077 0.260277 0.087802
H36   H     H_    0.535855 0.275477 0.956504 0.104997
H37   H     H_    0.382196 0.271898 0.764580 0.287733
H38   H     H_    0.400707 0.337114 0.831069 0.193637
H39   H     H_    0.418511 0.330148 0.724521 0.260408
H40   H     H_    0.474868 0.719949 0.037068 0.107203
H41   H     H_    0.442492 0.660576 0.080191 0.083471
H42   H     H_    0.597577 0.665243 0.268869 0.255912
H43   H     H_    0.613276 0.660145 0.160261 0.200768
H44   H     H_    0.629636 0.724914 0.227265 0.285506
H45   H     H_    0.452211 0.350256 0.139235 0.114629
H46   H     H_    0.438924 0.912335 0.669281 0.087448
H47   H     H_    0.453752 0.311826 0.036342 0.076089
H48   H     H_    0.618400 0.281515 0.185044 0.284757
H49   H     H_    0.609504 0.354925 0.177208 0.204583
H50   H     H_    0.617637 0.319310 0.288555 0.262428
H51   H     H_    0.559071 0.696212 0.956643 0.061252
H52   H     H_    0.567069 0.657290 0.859181 0.142484
H53   H     H_    0.402547 0.686116 0.702554 0.267682
H54   H     H_    0.406663 0.650879 0.811583 0.197944
H55   H     H_    0.394918 0.724149 0.800688 0.283394
H56   H     H_    0.438966 0.087643 0.669374 0.085819
H57   H     H_    0.472757 0.911961 0.260825 0.087682
H58   H     H_    0.709760 0.412654 0.738029 0.171932
H59   H     H_    0.288429 0.587171 0.311743 0.166912
H60   H     H_    0.288376 0.412912 0.311584 0.160987
H61   H     H_    0.032739 0.658199 0.822069 0.175329
H62   H     H_    0.709638 0.587118 0.738762 0.171530
H63   H     H_    0.209791 0.912838 0.739823 0.172191
H64   H     H_    0.787541 0.087171 0.314186 0.164130
H65   H     H_    0.787523 0.912967 0.314349 0.165213
H66   H     H_    0.210126 0.087245 0.740148 0.172915
H67   H     H_    0.905252 0.411676 0.502423 0.111431
H68   H     H_    0.900910 0.588220 0.339707 0.104878
H69   H     H_    0.900480 0.411793 0.339320 0.105549
H70   H     H_    0.905726 0.588333 0.502799 0.109985
H71   H     H_    0.403976 0.911683 0.501677 0.110612
H72   H     H_    0.033993 0.342652 0.821701 0.177493
H73   H     H_    0.400879 0.088226 0.339802 0.105071
H74   H     H_    0.400384 0.911801 0.339345 0.105637
H75   H     H_    0.404412 0.088318 0.502053 0.109950
H76   H     H_    0.836583 0.644896 0.765571 0.300197
H77   H     H_    0.165611 0.350077 0.230597 0.297189
H78   H     H_    0.164662 0.649370 0.230818 0.299220
H79   H     H_    0.835330 0.355206 0.764994 0.303364
H80   H     H_    0.336660 0.145150 0.765811 0.300086
H81   H     H_    0.665607 0.849938 0.230370 0.297029
H82   H     H_    0.665471 0.150019 0.230437 0.299644
H83   H     H_    0.979335 0.663830 0.176278 0.176799
H84   H     H_    0.335897 0.854495 0.765853 0.301453
H85   H     H_    0.435052 0.526986 0.719918 0.126297
H86   H     H_    0.416658 0.453782 0.702460 0.131334
H87   H     H_    0.246190 0.467083 0.618836 0.265751
H88   H     H_    0.323415 0.496213 0.757692 0.208630
H89   H     H_    0.264570 0.540045 0.636111 0.263911
H90   H     H_    0.554327 0.538626 0.351943 0.135809
H91   H     H_    0.556698 0.464822 0.352032 0.143282
H92   H     H_    0.724394 0.466530 0.425101 0.264690
H93   H     H_    0.650643 0.504176 0.295483 0.214276
H94   H     H_    0.477958 0.836575 0.176233 0.173061
H95   H     H_    0.723518 0.540503 0.427067 0.263082
H96   H     H_    0.938460 0.030856 0.724835 0.126222
H97   H     H_    0.915779 0.958009 0.708515 0.128480
H98   H     H_    0.746542 0.975430 0.626482 0.265790
H99   H     H_    0.826383 0.004757 0.764827 0.208801
H100  H     H_    0.769335 0.048041 0.642594 0.264335
H101  H     H_    0.054058 0.036291 0.353690 0.138707
H102  H     H_    0.053390 0.962488 0.353807 0.136255
H103  H     H_    0.221996 0.961901 0.427538 0.263276
H104  H     H_    0.148472 0.998574 0.296586 0.214328
H105  H     H_    0.533803 0.157402 0.821727 0.174570
H106  H     H_    0.222286 0.035867 0.426802 0.262900
H107  H     H_    0.459891 0.384974 0.600194 0.324913
H108  H     H_    0.540950 0.608247 0.461743 0.329929
H109  H     H_    0.540510 0.390382 0.464079 0.326398
H110  H     H_    0.453720 0.609447 0.609235 0.330109
H111  H     H_    0.956062 0.888524 0.609885 0.326188
H112  H     H_    0.041096 0.107455 0.462585 0.329809
H113  H     H_    0.040046 0.892386 0.462728 0.329017
H114  H     H_    0.955710 0.111253 0.610965 0.330508
H115  H     H_    0.546536 0.281120 0.660560 0.132708
H116  H     H_    0.534210 0.842818 0.821651 0.177340
H117  H     H_    0.629412 0.224981 0.722334 0.033388
H118  H     H_    0.715586 0.260771 0.654917 0.284586
H119  H     H_    0.591795 0.256093 0.540785 0.189340
H120  H     H_    0.643045 0.321885 0.602394 0.268760
H121  H     H_    0.389588 0.770112 0.272429 0.030254
H122  H     H_    0.466055 0.711582 0.338368 0.132403
H123  H     H_    0.365288 0.680763 0.397342 0.289745
H124  H     H_    0.419080 0.746955 0.451595 0.195931
H125  H     H_    0.295703 0.742649 0.335742 0.279417
H126  H     H_    0.470193 0.293596 0.335351 0.124925
H127  H     H_    0.479390 0.163663 0.176532 0.177128
H128  H     H_    0.394078 0.234488 0.274402 0.036262
H129  H     H_    0.304293 0.263076 0.341581 0.273261
H130  H     H_    0.428240 0.261798 0.455080 0.182385
H131  H     H_    0.370614 0.326393 0.395609 0.289088
H132  H     H_    0.714753 0.757868 0.736102 0.091728
H133  H     H_    0.596742 0.761416 0.700415 0.087638
H134  H     H_    0.547417 0.680520 0.580812 0.282141
H135  H     H_    0.593989 0.732383 0.539952 0.188028
H136  H     H_    0.664864 0.673484 0.616951 0.268040
H137  H     H_    0.094819 0.739177 0.700913 0.086695
H138  H     H_    0.972171 0.588080 0.259940 0.087398
H139  H     H_    0.213506 0.742704 0.738681 0.086535
H140  H     H_    0.164435 0.826854 0.618566 0.267681
H141  H     H_    0.095001 0.767488 0.541898 0.186411
H142  H     H_    0.046345 0.819350 0.580038 0.279809
H143  H     H_    0.891776 0.269314 0.269952 0.030483
H144  H     H_    0.968025 0.210806 0.337235 0.132153
H145  H     H_    0.866449 0.181115 0.395852 0.290608
H146  H     H_    0.920615 0.247315 0.449176 0.195284
H147  H     H_    0.797391 0.243105 0.333110 0.279411
H148  H     H_    0.969448 0.792427 0.338030 0.124597
N1    N     N_R   0.892620 0.603790 0.941800 -0.119778
N2    N     N_R   0.047790 0.602400 0.942090 -0.078830
N3    N     N_R   0.047790 0.397600 0.942090 -0.081645
N4    N     N_R   0.952210 0.602400 0.057910 -0.079486
N5    N     N_R   0.452210 0.897600 0.057910 -0.077697
N6    N     N_R   0.547790 0.102400 0.942090 -0.080419
N7    N     N_R   0.547790 0.897600 0.942090 -0.081096
N8    N     N_R   0.452210 0.102400 0.057910 -0.079268
N9    N     N_R   0.026300 0.529110 0.206760 -0.036084
N10   N     N_R   0.973700 0.470890 0.793240 -0.037215
N11   N     N_R   0.973700 0.529110 0.793240 -0.036998
N12   N     N_R   0.107380 0.396210 0.058200 -0.123255
N13   N     N_R   0.026300 0.470890 0.206760 -0.035893
N14   N     N_R   0.526300 0.029110 0.206760 -0.036207
N15   N     N_R   0.473700 0.970890 0.793240 -0.037077
N16   N     N_R   0.473700 0.029110 0.793240 -0.037238
N17   N     N_R   0.526300 0.970890 0.206760 -0.036518
N18   N     N_R   0.818530 0.472270 0.792960 -0.056540
N19   N     N_R   0.181470 0.527730 0.207040 -0.069839
N20   N     N_R   0.181470 0.472270 0.207040 -0.069068
N21   N     N_R   0.818530 0.527730 0.792960 -0.055621
N22   N     N_R   0.318530 0.972270 0.792960 -0.056483
N23   N     N_R   0.107380 0.603790 0.058200 -0.122226
N24   N     N_R   0.681470 0.027730 0.207040 -0.070094
N25   N     N_R   0.681470 0.972270 0.207040 -0.069738
N26   N     N_R   0.318530 0.027730 0.792960 -0.055622
N27   N     N_R   0.892620 0.396210 0.941800 -0.121816
N28   N     N_R   0.392620 0.103790 0.941800 -0.119822
N29   N     N_R   0.607380 0.896210 0.058200 -0.123371
N30   N     N_R   0.607380 0.103790 0.058200 -0.122193
N31   N     N_R   0.392620 0.896210 0.941800 -0.118401
N32   N     N_R   0.952210 0.397600 0.057910 -0.076833
Ni1   Ni    Ni4+2 0.934150 0.565840 0.869060 0.209658
Ni2   Ni    Ni4+2 0.065850 0.434160 0.130940 0.205517
Ni3   Ni    Ni4+2 0.065850 0.565840 0.130940 0.207274
Ni4   Ni    Ni4+2 0.934150 0.434160 0.869060 0.211349
Ni5   Ni    Ni4+2 0.434150 0.065840 0.869060 0.209570
Ni6   Ni    Ni4+2 0.565850 0.934160 0.130940 0.205200
Ni7   Ni    Ni4+2 0.565850 0.065840 0.130940 0.207423
Ni8   Ni    Ni4+2 0.434150 0.934160 0.869060 0.210558
O1    O     O_3   0.833054 0.674606 0.807887 -0.779345
O2    O     O_3   0.637826 0.501800 0.509969 -0.614557
O3    O     O_3   0.851404 0.001528 0.560041 -0.613218
O4    O     O_3   0.136467 0.999500 0.511713 -0.615461
O5    O     O_3   0.517438 0.407308 0.652069 -0.739240
O6    O     O_3   0.476704 0.592065 0.421482 -0.753493
O7    O     O_3   0.478944 0.409826 0.417095 -0.756276
O8    O     O_3   0.514838 0.589546 0.656828 -0.737533
O9    O     O_3   0.016034 0.909381 0.658844 -0.726364
O10   O     O_3   0.976954 0.091067 0.421876 -0.752420
O11   O     O_3   0.975931 0.908702 0.422516 -0.757388
O12   O     O_3   0.180403 0.324770 0.191346 -0.762561
O13   O     O_3   0.016910 0.091398 0.658131 -0.739058
O14   O     O_3   0.680767 0.303461 0.798048 -0.588350
O15   O     O_3   0.330804 0.691792 0.199715 -0.587233
O16   O     O_3   0.333435 0.311787 0.197613 -0.596901
O17   O     O_3   0.680397 0.695383 0.801293 -0.582606
O18   O     O_3   0.177488 0.805565 0.801540 -0.569132
O19   O     O_3   0.832887 0.190813 0.198462 -0.585663
O20   O     O_3   0.833817 0.810623 0.198246 -0.594783
O21   O     O_3   0.180256 0.195226 0.801825 -0.583706
O22   O     O_3   0.058978 0.760129 0.839243 -0.613111
O23   O     O_3   0.178665 0.675197 0.191534 -0.758463
O24   O     O_3   0.953846 0.233450 0.155251 -0.636539
O25   O     O_3   0.955118 0.766182 0.154217 -0.629833
O26   O     O_3   0.061891 0.241325 0.841498 -0.613803
O27   O     O_3   0.560942 0.259064 0.839650 -0.633827
O28   O     O_3   0.451720 0.734271 0.156361 -0.634949
O29   O     O_3   0.454805 0.265921 0.155053 -0.630953
O30   O     O_3   0.562235 0.741665 0.840688 -0.613481
O31   O     O_3   0.831454 0.325650 0.807297 -0.761217
O32   O     O_3   0.333093 0.174785 0.808234 -0.778896
O33   O     O_3   0.681062 0.824870 0.191447 -0.760794
O34   O     O_3   0.680718 0.175203 0.191469 -0.759824
O35   O     O_3   0.331035 0.825231 0.807891 -0.780938
O36   O     O_3   0.350786 0.498262 0.554798 -0.613453

loop_
_geom_bond_atom_site_label_1
_geom_bond_atom_site_label_2
_ccdc_geom_bond_type
N29   Ni6   S    
C98   C121  A    
C13   C135  S    
C41   H40   S    
C39   O27   S    
C19   C20   S    
N16   Ni5   S    
C38   H31   S    
C23   H144  S    
C47   H55   S    
C14   H119  S    
C52   O20   S    
C107  N22   A    
C76   H70   S    
C36   H28   S    
C135  O10   S    
C46   O15   S    
C140  O3    S    
C25   H146  S    
C44   H50   S    
C45   H51   S    
C28   H7    S    
C24   C127  S    
N7    Ni8   S    
C129  O5    S    
C138  O36   S    
C1    O1    S    
H78   O23   S    
C21   C22   S    
C39   H34   S    
C73   C81   A    
C53   C113  A    
H77   O12   S    
C7    H92   S    
C45   C47   S    
C137  C140  S    
C101  C124  A    
C93   N8    A    
C81   C121  S    
C100  C124  A    
C33   H21   S    
C43   C44   S    
C20   H136  S    
C37   C38   S    
C21   H137  S    
C17   O16   S    
C59   O27   S    
C89   N4    A    
N15   N16   A    
C54   C70   A    
C43   H47   S    
C27   H5    S    
C9    H100  S    
C97   N29   A    
C91   C118  A    
C1    N1    A    
C106  N21   A    
C4    H85   S    
C4    O36   S    
C111  H66   S    
C31   H17   S    
C93   H127  S    
C95   C122  A    
C73   H68   S    
C75   C115  A    
N10   N11   A    
C74   C81   A    
C76   C82   A    
C102  C123  A    
C130  C138  S    
N20   Ni2   S    
N22   N26   A    
C24   C134  S    
C135  C137  S    
C102  N17   A    
C54   O21   S    
C49   C62   A    
C46   C60   A    
C10   O4    S    
C47   H53   S    
C4    C5    S    
N23   Ni3   S    
C48   O16   S    
N26   Ni5   S    
C6    C7    S    
C42   H44   S    
C130  C131  S    
C107  C127  A    
C55   O22   S    
C6    O2    S    
C48   C67   A    
C97   C117  A    
C29   H9    S    
C58   C67   A    
C30   H14   S    
N22   Ni8   S    
C95   H2    S    
C88   H72   S    
C126  C130  S    
N18   Ni4   S    
C82   C122  S    
C8    O3    S    
C75   N27   A    
C90   C120  A    
C43   O29   S    
C19   O17   S    
N8    Ni7   S    
C11   H103  S    
N12   Ni2   S    
C57   C66   A    
C31   H16   S    
N4    Ni3   S    
N1    Ni1   S    
N9    Ni3   S    
C132  C139  S    
C3    O4    S    
C92   N7    A    
N27   N32   A    
C15   O15   S    
C21   H139  S    
C1    C112  A    
C37   H29   S    
C78   C80   A    
C29   H11   S    
C43   H45   S    
C2    C129  S    
N24   N25   A    
C3    C136  S    
C88   C113  A    
C56   O24   S    
C68   C118  S    
C55   C63   A    
C136  O11   S    
C16   H125  S    
C101  H56   S    
N6    Ni5   S    
N10   Ni4   S    
C65   C115  S    
C3    C24   S    
C10   H101  S    
H112  O10   S    
N2    Ni1   S    
C119  O35   S    
N5    N31   A    
N7    N29   A    
C104  N19   A    
C64   C114  A    
C49   C66   A    
C71   C117  S    
C74   H69   S    
C22   H142  S    
C102  H57   S    
C85   H1    S    
C39   C40   S    
C77   C84   A    
C137  O13   S    
C5    H87   S    
C96   N11   A    
N32   Ni2   S    
C107  H63   S    
C17   H126  S    
C15   H121  S    
H114  O13   S    
N27   Ni4   S    
C94   H138  S    
C30   H12   S    
C17   C18   S    
C134  O9    S    
N3    N12   A    
C6    H90   S    
C35   O14   S    
C12   H117  S    
C26   O20   S    
C26   H3    S    
C18   H130  S    
C50   O18   S    
C109  H64   S    
C89   H83   S    
C38   H32   S    
C23   H143  S    
C24   C137  S    
C91   N6    A    
C46   C63   A    
C83   C123  S    
C32   H19   S    
C14   H120  S    
C75   O31   S    
N3    Ni4   S    
C13   C136  S    
H84   O35   S    
C62   C71   A    
C110  H65   S    
C34   C36   S    
C25   H145  S    
C103  C125  A    
C131  C139  S    
C10   C11   S    
C40   H37   S    
C2    C125  S    
N2    N23   A    
C99   H35   S    
H79   O31   S    
N13   Ni2   S    
N9    N13   A    
C53   N12   A    
C64   N23   A    
N6    N30   A    
C61   C70   A    
N8    N28   A    
C41   C42   S    
C80   C84   A    
C7    H93   S    
C42   H42   S    
C89   C112  A    
C26   C27   S    
C93   C116  A    
C2    C139  S    
C28   C29   S    
C32   O24   S    
C17   H128  S    
C30   C31   S    
C23   O19   S    
C35   C65   A    
N1    N4    A    
C35   C59   A    
C101  N16   A    
C131  O6    S    
C78   C83   A    
C79   H74   S    
C64   O23   S    
C49   O17   S    
C60   O28   S    
C9    H99   S    
C110  N25   A    
C4    H86   S    
C129  C132  S    
H108  O6    S    
C77   C79   A    
C133  C138  S    
C12   H115  S    
C41   H41   S    
C78   H73   S    
C80   H75   S    
C90   N5    A    
C7    H95   S    
C28   H8    S    
C2    C133  S    
C45   O30   S    
N19   N20   A    
N18   N21   A    
C13   C140  S    
C85   C115  A    
C72   C74   A    
C14   H118  S    
C111  N26   A    
C70   C116  S    
C36   H27   S    
C103  H58   S    
C25   H147  S    
C130  C132  S    
C26   H148  S    
C44   H49   S    
C40   H39   S    
C109  C128  A    
C96   H13   S    
C106  C125  A    
C103  N18   A    
C86   O32   S    
C27   H4    S    
C99   N14   A    
C53   O12   S    
C92   H116  S    
C95   N10   A    
H109  O7    S    
C34   O25   S    
C132  O7    S    
C11   H106  S    
C31   H15   S    
C119  C120  A    
C86   N28   A    
C19   H132  S    
H107  O5    S    
C69   C120  S    
C96   C122  A    
C97   O33   S    
C32   C33   S    
C100  N15   A    
C33   H22   S    
C20   H135  S    
C52   C71   A    
C133  O8    S    
C79   C83   A    
C27   H6    S    
C109  N24   A    
C110  C128  A    
N30   Ni7   S    
C3    C135  S    
C21   O18   S    
C52   C57   A    
C105  N20   A    
C94   C121  A    
C22   H140  S    
H80   O32   S    
H82   O34   S    
C62   O30   S    
C87   H61   S    
C15   C16   S    
C61   O29   S    
C91   H105  S    
C88   N3    A    
C47   H54   S    
C10   H102  S    
C57   O25   S    
C87   N2    A    
H113  O11   S    
C41   O28   S    
C8    H97   S    
N14   N17   A    
C108  N30   A    
C105  C126  A    
C60   C69   A    
C50   C69   A    
C134  C140  S    
C108  O34   S    
C56   C65   A    
C90   H94   S    
C86   C116  A    
C51   C56   A    
C98   N13   A    
C37   O26   S    
C87   C114  A    
C45   H52   S    
C29   H10   S    
C13   C128  S    
C105  H60   S    
C129  C138  S    
C8    C9    S    
C58   O26   S    
N25   Ni6   S    
N21   Ni1   S    
C12   O14   S    
C30   O22   S    
N5    Ni6   S    
C11   H104  S    
C63   C114  S    
H111  O9    S    
C18   H131  S    
C72   H67   S    
C32   H18   S    
H110  O8    S    
C34   H23   S    
C37   H30   S    
C38   H33   S    
C134  C136  S    
H81   O33   S    
C100  H46   S    
C92   C117  A    
C59   C68   A    
C106  H62   S    
N24   Ni7   S    
C36   H26   S    
N19   Ni3   S    
C108  C118  A    
N14   Ni7   S    
C44   H48   S    
C40   H38   S    
C12   C14   S    
N17   Ni6   S    
C111  C127  A    
H76   O1    S    
C104  H59   S    
C5    H89   S    
C34   H25   S    
C8    H96   S    
C99   C123  A    
C54   C58   A    
C51   O19   S    
C16   H123  S    
C39   H36   S    
C131  C133  S    
C22   H141  S    
C98   H24   S    
C33   H20   S    
C42   H43   S    
C84   C124  S    
C50   C55   A    
C5    H88   S    
C67   C113  S    
C15   H122  S    
C85   N32   A    
C48   C61   A    
C19   H133  S    
N28   Ni5   S    
N11   Ni1   S    
C73   C76   A    
C119  N31   A    
C51   C68   A    
C23   C25   S    
C94   N9    A    
C20   H134  S    
N15   Ni8   S    
C77   H71   S    
C16   H124  S    
C104  C126  A    
N31   Ni8   S    
C9    H98   S    
C66   C112  S    
C6    H91   S    
C18   H129  S    
C72   C82   A    
C28   O21   S    
C139  O2    S    
