data_mof_unit_45109.cif
_audit_creation_date              2012-10-26T20:57:26-0400
_audit_creation_method            fapswitch 2.2
_symmetry_space_group_name_H-M    P1
_symmetry_Int_Tables_number       1
_space_group_crystal_system       triclinic
_cell_length_a                    14.754401
_cell_length_b                    14.615273
_cell_length_c                    15.806125
_cell_angle_alpha                 76.545013
_cell_angle_beta                  101.827776
_cell_angle_gamma                 115.072389
_cell_volume                      2980.55599269

loop_
_atom_site_label
_atom_site_type_symbol
_atom_type_description
_atom_site_fract_x
_atom_site_fract_y
_atom_site_fract_z
_atom_type_partial_charge
C1    C     C_R   0.880355 0.311822 0.514861 0.560456
C2    C     C_R   0.358745 0.921396 0.515778 0.041908
C3    C     C_R   0.675912 0.001009 0.575783 0.008564
C4    C     C_R   0.324433 0.999955 0.473146 0.002959
C5    C     C_R   0.532977 0.051068 0.518809 0.020413
C6    C     C_R   0.464981 0.946678 0.535946 0.028837
C7    C     C_R   0.506417 0.871727 0.567140 -0.122327
C8    C     C_R   0.493499 0.127389 0.491625 -0.122513
C9    C     C_R   0.609301 0.899071 0.591622 -0.154377
C10   C     C_R   0.391421 0.102124 0.465839 -0.156002
C11   C     C_R   0.717748 0.672584 0.354448 0.203383
C12   C     C_R   0.119327 0.687798 0.488725 0.549965
C13   C     C_R   0.282247 0.327889 0.646614 0.199270
C14   C     C_R   0.794717 0.635547 0.372778 0.067707
C15   C     C_R   0.205507 0.365142 0.627976 0.080005
C16   C     C_R   0.999799 0.500954 0.659594 0.533520
C17   C     C_R   0.001354 0.501385 0.340113 0.541005
C18   C     C_R   0.721955 0.523254 0.498067 0.398386
C19   C     C_R   0.279224 0.475889 0.502774 0.388646
C20   C     C_R   0.630772 0.539624 0.469924 -0.042922
C21   C     C_R   0.370751 0.461571 0.532966 -0.030263
C22   C     C_R   0.632831 0.620547 0.399948 -0.004280
C23   C     C_R   0.779768 0.027722 0.599669 -0.157702
C24   C     C_R   0.367699 0.379634 0.601758 -0.012395
C25   C     C_R   0.540863 0.483242 0.511748 0.011303
C26   C     C_R   0.459972 0.516985 0.490242 0.025933
C27   C     C_R   0.470947 0.605575 0.427324 -0.140617
C28   C     C_R   0.528154 0.392582 0.572531 -0.159297
C29   C     C_R   0.552851 0.652643 0.379873 -0.139407
C30   C     C_R   0.445863 0.344980 0.619699 -0.136233
C31   C     C_3   0.993652 0.426910 0.045132 0.242556
C32   C     C_3   0.006871 0.604205 0.947299 0.273701
C33   C     C_3   0.913530 0.439728 0.968070 -0.146869
C34   C     C_R   0.222966 0.975735 0.438957 -0.164332
C35   C     C_3   0.087367 0.592555 0.024526 -0.183506
C36   C     C_1   0.000588 0.504728 0.748438 -0.018286
C37   C     C_1   0.004352 0.507611 0.249875 -0.029775
C38   C     C_3   0.079961 0.498006 0.991054 0.260435
C39   C     C_3   0.920190 0.533867 0.001918 0.265425
C40   C     C_3   0.001410 0.511503 0.914123 0.016185
C41   C     C_3   0.999440 0.520123 0.079441 -0.039366
C42   C     C_1   0.001655 0.508079 0.823416 -0.001838
C43   C     C_1   0.003151 0.514348 0.172880 -0.045932
C44   C     C_R   0.812212 0.202932 0.530200 0.007237
C45   C     C_R   0.847107 0.129071 0.580305 -0.186346
C46   C     C_R   0.186724 0.796033 0.488796 -0.002808
C47   C     C_3   0.212963 0.419754 0.370714 0.028016
C48   C     C_3   0.290650 0.389307 0.345939 -0.302741
C49   C     C_3   0.239913 0.306394 0.288121 -0.499001
C50   C     C_3   0.750648 0.546760 0.643256 0.007097
C51   C     C_3   0.824619 0.659937 0.623318 -0.270450
C52   C     C_3   0.830054 0.719770 0.692791 -0.483911
C53   C     C_1   0.123039 0.315957 0.680328 0.299250
C54   C     C_1   0.876927 0.684026 0.320015 0.266628
C55   C     C_3   0.792284 0.848256 0.319128 0.008788
C56   C     C_R   0.155671 0.873950 0.442829 -0.185044
C57   C     C_3   0.738354 0.895881 0.357428 -0.275655
C58   C     C_3   0.811389 0.998127 0.384809 -0.487982
C59   C     C_3   0.222804 0.154886 0.662980 0.000073
C60   C     C_3   0.219236 0.057417 0.726429 -0.252052
C61   C     C_3   0.166829 0.963651 0.680666 -0.497191
C62   C     C_3   0.968632 0.257862 0.055503 0.007118
C63   C     C_3   0.975765 0.164352 0.119447 -0.265140
C64   C     C_3   0.952804 0.075969 0.071805 -0.487494
C65   C     C_3   0.035382 0.774252 0.937332 0.018969
C66   C     C_3   0.998247 0.854859 0.881410 -0.260918
C67   C     C_R   0.709501 0.173419 0.497633 0.250438
C68   C     C_3   0.029923 0.946716 0.927236 -0.490099
C69   C     C_3   0.813656 0.569017 0.070003 0.011148
C70   C     C_3   0.744505 0.465202 0.115467 -0.276491
C71   C     C_3   0.706905 0.476149 0.194037 -0.469967
C72   C     C_3   0.228209 0.479734 0.058615 0.022779
C73   C     C_3   0.327437 0.572842 0.045886 -0.274396
C74   C     C_3   0.401508 0.581015 0.129612 -0.482262
C75   C     C_3   0.256937 0.727574 0.674034 0.025008
C76   C     C_3   0.327085 0.792500 0.742825 -0.283167
C77   C     C_3   0.282637 0.757012 0.829729 -0.484597
C78   C     C_R   0.284399 0.821395 0.535412 0.250940
C79   C     C_3   0.664154 0.198676 0.349007 0.001693
C80   C     C_3   0.761717 0.242225 0.306424 -0.265618
C81   C     C_3   0.743656 0.204835 0.219599 -0.498560
C82   C     C_R   0.638820 0.076491 0.531569 0.025271
Cu1   Cu    Cu3+1 0.081740 0.475690 0.522610 0.994276
Cu2   Cu    Cu3+1 0.918260 0.524310 0.477390 0.998617
H1    H     H_    0.843218 0.378037 0.944598 0.104905
H2    H     H_    0.196869 0.035421 0.405516 0.111930
H3    H     H_    0.462347 0.790851 0.571525 0.187638
H4    H     H_    0.540610 0.207792 0.489634 0.175614
H5    H     H_    0.554397 0.716861 0.328687 0.157056
H6    H     H_    0.442419 0.278477 0.668825 0.160526
H7    H     H_    0.169540 0.440479 0.308653 0.171928
H8    H     H_    0.157756 0.352158 0.408982 0.130490
H9    H     H_    0.347420 0.457398 0.310576 0.178129
H10   H     H_    0.329580 0.357825 0.405460 0.158841
H11   H     H_    0.186617 0.235668 0.324317 0.139786
H12   H     H_    0.156858 0.655427 0.047455 0.092595
H13   H     H_    0.297969 0.288059 0.269127 0.146635
H14   H     H_    0.198031 0.332812 0.227796 0.156096
H15   H     H_    0.776238 0.513748 0.709700 0.164674
H16   H     H_    0.675189 0.543482 0.647419 0.132428
H17   H     H_    0.901416 0.665294 0.621697 0.193780
H18   H     H_    0.799710 0.697469 0.558756 0.135417
H19   H     H_    0.755101 0.720355 0.693199 0.141550
H20   H     H_    0.885068 0.800094 0.678117 0.134855
H21   H     H_    0.854809 0.684730 0.758595 0.211417
H22   H     H_    0.827474 0.902703 0.261652 0.155937
H23   H     H_    0.416611 0.640113 0.413568 0.172723
H24   H     H_    0.855393 0.839094 0.368084 0.109786
H25   H     H_    0.677552 0.908116 0.307737 0.162998
H26   H     H_    0.704086 0.843379 0.416000 0.162254
H27   H     H_    0.870000 0.986929 0.437736 0.145485
H28   H     H_    0.769279 0.031690 0.409696 0.160145
H29   H     H_    0.848313 0.052390 0.328053 0.140539
H30   H     H_    0.263124 0.162986 0.607401 0.125293
H31   H     H_    0.144066 0.146784 0.637059 0.122940
H32   H     H_    0.297261 0.064571 0.753445 0.168225
H33   H     H_    0.177926 0.047125 0.781608 0.175487
H34   H     H_    0.581640 0.357167 0.585024 0.168583
H35   H     H_    0.089004 0.955550 0.652004 0.140017
H36   H     H_    0.162428 0.893755 0.728768 0.152497
H37   H     H_    0.209897 0.970336 0.627990 0.159940
H38   H     H_    0.023466 0.282329 0.007385 0.177972
H39   H     H_    0.890750 0.235846 0.020503 0.127920
H40   H     H_    0.052995 0.185363 0.155434 0.166405
H41   H     H_    0.921363 0.138973 0.167914 0.161315
H42   H     H_    0.875159 0.052280 0.036617 0.152227
H43   H     H_    0.958801 0.009500 0.120038 0.148963
H44   H     H_    0.007526 0.099185 0.024104 0.156221
H45   H     H_    0.637295 0.839424 0.619381 0.108903
H46   H     H_    0.118821 0.809620 0.952586 0.125753
H47   H     H_    0.000694 0.747152 0.999737 0.146286
H48   H     H_    0.029218 0.881157 0.817652 0.166648
H49   H     H_    0.914643 0.820153 0.868251 0.176947
H50   H     H_    0.997633 0.922158 0.990341 0.152091
H51   H     H_    0.001827 0.003699 0.884864 0.159102
H52   H     H_    0.113385 0.983659 0.939931 0.149214
H53   H     H_    0.772661 0.620682 0.052871 0.159233
H54   H     H_    0.882311 0.607547 0.113804 0.138293
H55   H     H_    0.678451 0.429284 0.068123 0.176833
H56   H     H_    0.364799 0.163055 0.439789 0.109227
H57   H     H_    0.786042 0.414287 0.137385 0.167778
H58   H     H_    0.770978 0.504679 0.244929 0.185903
H59   H     H_    0.652694 0.400476 0.222372 0.145976
H60   H     H_    0.668121 0.529842 0.174085 0.156616
H61   H     H_    0.243698 0.409276 0.072732 0.149779
H62   H     H_    0.197910 0.480848 0.117411 0.143345
H63   H     H_    0.361873 0.566466 0.992360 0.175052
H64   H     H_    0.312602 0.643774 0.026703 0.158470
H65   H     H_    0.370748 0.593683 0.182365 0.152227
H66   H     H_    0.473915 0.646898 0.117243 0.162939
H67   H     H_    0.079496 0.856274 0.410317 0.143521
H68   H     H_    0.416267 0.510110 0.151436 0.148901
H69   H     H_    0.237737 0.645467 0.702300 0.181422
H70   H     H_    0.184472 0.738316 0.659199 0.103787
H71   H     H_    0.401241 0.786203 0.753794 0.180828
H72   H     H_    0.339251 0.874107 0.718669 0.159477
H73   H     H_    0.207471 0.760475 0.820653 0.175035
H74   H     H_    0.333433 0.807111 0.877675 0.138997
H75   H     H_    0.274484 0.677000 0.856712 0.177910
H76   H     H_    0.607895 0.223883 0.303537 0.147357
H77   H     H_    0.630798 0.113293 0.357574 0.122915
H78   H     H_    0.926394 0.149151 0.603282 0.145232
H79   H     H_    0.791789 0.327140 0.295003 0.183490
H80   H     H_    0.819446 0.218376 0.350759 0.149551
H81   H     H_    0.717736 0.120190 0.230469 0.146763
H82   H     H_    0.814943 0.239574 0.189420 0.186014
H83   H     H_    0.685854 0.227215 0.173683 0.142980
H84   H     H_    0.808631 0.970594 0.634758 0.115890
N1    N     N_R   0.795440 0.560790 0.443380 -0.261971
N2    N     N_R   0.204560 0.439210 0.556620 -0.273093
N3    N     N_1   0.057501 0.275707 0.723161 -0.316675
N4    N     N_1   0.942368 0.723835 0.277062 -0.342918
O1    O     O_R   0.977900 0.338120 0.529810 -0.531890
O2    O     O_3   0.745284 0.483538 0.584181 -0.542907
O3    O     O_3   0.722726 0.756112 0.289157 -0.585688
O4    O     O_3   0.272680 0.240060 0.707489 -0.573793
O5    O     O_3   0.990187 0.336414 0.103269 -0.588868
O6    O     O_3   0.009311 0.694469 0.889494 -0.574352
O7    O     O_3   0.834878 0.558296 0.990855 -0.564705
O8    O     O_3   0.160993 0.476203 0.980260 -0.572680
O9    O     O_3   0.306438 0.748515 0.599503 -0.586181
O10   O     O_3   0.680959 0.237087 0.427842 -0.574768
O11   O     O_R   0.022100 0.661880 0.470190 -0.525258
O12   O     O_R   0.839850 0.379180 0.491620 -0.418133
O13   O     O_R   0.160150 0.620820 0.508380 -0.431994
O14   O     O_R   0.069010 0.479460 0.640020 -0.502700
O15   O     O_R   0.930990 0.520540 0.359980 -0.508712
O16   O     O_R   0.930960 0.520530 0.601820 -0.462730
O17   O     O_R   0.069040 0.479470 0.398180 -0.473671
O18   O     O_3   0.257625 0.506898 0.414099 -0.556938

loop_
_geom_bond_atom_site_label_1
_geom_bond_atom_site_label_2
_ccdc_geom_bond_type
C13   O4    S    
C66   C68   S    
C21   C26   A    
C52   H19   S    
C34   C56   A    
C23   C45   A    
C22   C29   A    
C27   C29   A    
C73   C74   S    
C3    C23   A    
C19   N2    A    
C30   H6    S    
C74   H68   S    
C62   O5    S    
C29   H5    S    
C63   H40   S    
C39   C41   S    
C35   H12   S    
C44   C45   A    
C25   C28   A    
C1    O1    A    
C50   H15   S    
C33   C39   S    
C48   H10   S    
C31   O5    S    
Cu1   Cu2   S    
C58   H28   S    
C15   C53   S    
C19   C21   A    
C69   C70   S    
C34   H2    S    
C5    C6    A    
C11   C14   A    
C12   O11   A    
C61   H35   S    
C20   C25   A    
C72   H61   S    
Cu1   N2    S    
C61   H37   S    
C47   H8    S    
C32   C39   S    
C33   H1    S    
C80   H80   S    
C75   C76   S    
C49   H14   S    
C36   C42   T    
C57   H25   S    
C47   C48   S    
C64   H44   S    
C58   H29   S    
C81   H82   S    
C31   C33   S    
C74   H65   S    
C70   C71   S    
C27   H23   S    
C77   H74   S    
C40   C42   S    
C59   C60   S    
C61   H36   S    
C41   C43   S    
C32   O6    S    
C2    C6    A    
C10   H56   S    
C79   H77   S    
C14   N1    A    
C62   H39   S    
C65   H47   S    
C1    O12   A    
C65   H46   S    
C66   H48   S    
C68   H51   S    
C69   H53   S    
C67   C82   A    
C4    C34   A    
C33   C40   S    
C38   O8    S    
C48   H9    S    
C55   H22   S    
C51   C52   S    
C32   C35   S    
C54   N4    T    
C68   H52   S    
C35   C38   S    
C76   C77   S    
C12   C46   S    
Cu2   N1    S    
C16   O16   A    
C79   H76   S    
C46   C78   A    
C72   C73   S    
C73   H64   S    
C17   O17   A    
C25   C26   A    
C63   C64   S    
C76   H72   S    
C79   C80   S    
C15   N2    A    
C60   C61   S    
C51   H18   S    
C37   C43   T    
C2    C4    A    
C45   H78   S    
C80   H79   S    
C62   C63   S    
C3    C9    A    
C67   O10   S    
C66   H49   S    
C75   H69   S    
C1    C44   S    
C57   H26   S    
Cu2   O12   S    
C64   H43   S    
C3    C82   A    
C50   C51   S    
C26   C27   A    
C60   H33   S    
Cu1   O14   S    
C17   C37   S    
C49   H11   S    
C56   H67   S    
C81   H83   S    
C55   O3    S    
C63   H41   S    
C77   H75   S    
C71   H58   S    
C18   O2    S    
C8    C10   A    
C48   C49   S    
C14   C54   S    
C73   H63   S    
C52   H21   S    
C59   O4    S    
C64   H42   S    
C13   C15   A    
Cu2   O16   S    
C72   O8    S    
C4    C10   A    
C75   O9    S    
C62   H38   S    
C2    C78   A    
C71   H59   S    
C18   N1    A    
C69   H54   S    
C7    C9    A    
C52   H20   S    
C70   H57   S    
C31   C41   S    
C47   H7    S    
Cu1   O17   S    
Cu2   O11   S    
Cu1   O13   S    
C20   C22   A    
C80   C81   S    
Cu2   O15   S    
C5    C8    A    
C39   O7    S    
C58   H27   S    
C79   O10   S    
C6    C7    A    
C9    H45   S    
C51   H17   S    
C76   H71   S    
C11   O3    S    
C31   C38   S    
C55   H24   S    
C50   O2    S    
C78   O9    S    
C47   O18   S    
C55   C57   S    
C28   C30   A    
C28   H34   S    
C69   O7    S    
C38   C40   S    
C5    C82   A    
C75   H70   S    
C57   C58   S    
C17   O15   A    
C59   H30   S    
C72   H62   S    
C12   O13   A    
C68   H50   S    
C18   C20   A    
C32   C40   S    
Cu1   O1    S    
C35   C41   S    
C24   C30   A    
C50   H16   S    
C60   H32   S    
C53   N3    T    
C19   O18   S    
C49   H13   S    
C23   H84   S    
C70   H55   S    
C7    H3    S    
C13   C24   A    
C11   C22   A    
C59   H31   S    
C65   C66   S    
C65   O6    S    
C21   C24   A    
C46   C56   A    
C81   H81   S    
C74   H66   S    
C44   C67   A    
C16   O14   A    
C8    H4    S    
C16   C36   S    
C77   H73   S    
C71   H60   S    
