data_mof_unit_19251.cif
_audit_creation_date              2013-03-05T16:08:07-0500
_audit_creation_method            fapswitch 2.2
_symmetry_space_group_name_H-M    P1
_symmetry_Int_Tables_number       1
_space_group_crystal_system       triclinic
_cell_length_a                    6.965212
_cell_length_b                    14.585605
_cell_length_c                    15.932292
_cell_angle_alpha                 90.391567
_cell_angle_beta                  90.199468
_cell_angle_gamma                 90.226164
_cell_volume                      1618.53034655

loop_
_atom_site_label
_atom_site_type_symbol
_atom_site_description
_atom_site_fract_x
_atom_site_fract_y
_atom_site_fract_z
_atom_type_partial_charge
O1    O     O_R   0.494400 0.415450 0.412630 -0.567064
O2    O     O_R   0.823940 0.405730 0.586760 -0.616556
O3    O     O_R   0.994240 0.584550 0.587370 -0.613480
C1    C     C_R   0.655207 0.384134 0.615696 0.993880
O4    O     O_R   0.824110 0.404430 0.413240 -0.551967
O5    O     O_R   0.994420 0.583240 0.412620 -0.551073
C2    C     C_R   0.654849 0.382086 0.384309 1.044430
O6    O     O_R   0.494230 0.416760 0.587380 -0.578813
O7    O     O_3   0.660800 0.558670 0.500000 -0.268067
V1    V     V_3+5 0.935650 0.489120 0.500000 1.263824
O8    O     O_R   0.324140 0.594270 0.413240 -0.590320
C3    C     C_R   0.154351 0.613990 0.382477 1.001432
O9    O     O_R   0.323960 0.595570 0.586760 -0.577784
C4    C     C_R   0.155603 0.616203 0.616267 1.074850
V2    V     V_3+5 0.435660 0.510880 0.500000 1.263096
O10   O     O_3   0.160640 0.441330 0.500000 -0.254317
C5    C     C_3   0.959989 0.705298 0.738018 -0.428081
C6    C     C_3   0.084330 0.706624 0.819173 0.533286
H1    H     H_    0.816954 0.672627 0.729503 0.212107
C7    C     C_3   0.121593 0.810192 0.810155 -0.415881
C8    C     C_3   0.001749 0.808790 0.728434 0.566503
C9    C     C_3   0.182412 0.787876 0.676812 0.491499
C10   C     C_3   0.307171 0.790278 0.758401 -0.500114
C11   C     C_3   0.265930 0.686584 0.768148 0.307571
C12   C     C_3   0.144951 0.684560 0.686582 -0.438160
H2    H     H_    0.450267 0.822757 0.767514 0.214399
C13   C     C_R   0.246284 0.823880 0.248272 0.160844
C14   C     C_R   0.116238 0.814570 0.181789 -0.254500
C15   C     C_R   0.982638 0.742220 0.185731 -0.243275
H3    H     H_    0.876547 0.734531 0.136226 0.181303
C16   C     C_R   0.991736 0.675210 0.249465 0.357113
C17   C     C_R   0.136384 0.681976 0.313512 -0.391567
C18   C     C_R   0.255974 0.759618 0.312210 0.148640
C19   C     C_3   0.469691 0.767377 0.316507 -0.422009
C20   C     C_3   0.458000 0.838705 0.247663 -0.474087
H4    H     H_    0.540436 0.703791 0.295268 0.248873
H5    H     H_    0.522297 0.795278 0.377398 0.189975
H6    H     H_    0.526085 0.816252 0.187956 0.216188
H7    H     H_    0.498211 0.908779 0.269469 0.190292
C21   C     C_R   0.490445 0.315342 0.740882 0.260202
C22   C     C_R   0.647849 0.319175 0.686598 -0.230879
C23   C     C_R   0.803128 0.260928 0.703906 -0.166590
H8    H     H_    0.927617 0.261358 0.663848 0.161923
C24   C     C_R   0.793244 0.196559 0.769085 -0.170479
H9    H     H_    0.912928 0.151204 0.778618 0.133376
C25   C     C_R   0.625540 0.186305 0.817202 -0.224368
C26   C     C_R   0.479022 0.250084 0.804226 0.165845
C27   C     C_3   0.270880 0.234227 0.788733 -0.519312
C28   C     C_3   0.282984 0.305844 0.720168 -0.454189
H10   H     H_    0.181686 0.256044 0.842979 0.203841
H11   H     H_    0.242062 0.163911 0.764251 0.189529
H12   H     H_    0.201508 0.369329 0.734880 0.198765
H13   H     H_    0.259829 0.277307 0.656008 0.215921
C29   C     C_R   0.500861 0.245076 0.313169 0.004465
C30   C     C_R   0.646182 0.311578 0.316654 -0.212137
C31   C     C_R   0.786848 0.308151 0.253768 -0.016414
H14   H     H_    0.895042 0.360914 0.252100 0.184700
C32   C     C_R   0.779250 0.241754 0.189001 -0.185758
H15   H     H_    0.886935 0.243552 0.140213 0.121399
C33   C     C_R   0.625638 0.178579 0.183602 -0.166788
C34   C     C_R   0.491617 0.178911 0.249074 0.052480
C35   C     C_3   0.277220 0.181334 0.244018 -0.718742
C36   C     C_3   0.287475 0.257778 0.310651 0.825004
H16   H     H_    0.213727 0.116201 0.267174 0.216892
H17   H     H_    0.222273 0.201148 0.181333 0.196252
O11   O     O_R   0.771650 0.079500 0.908680 -0.611583
O12   O     O_R   0.441690 0.091800 0.082800 -0.596657
O13   O     O_R   0.271460 0.912980 0.083410 -0.591784
C37   C     C_R   0.611173 0.113106 0.112362 0.942537
O14   O     O_R   0.441930 0.090510 0.909280 -0.600503
O15   O     O_R   0.271690 0.911670 0.908660 -0.586123
C38   C     C_R   0.611207 0.113532 0.881429 0.931731
O16   O     O_R   0.771410 0.080810 0.083440 -0.597503
O17   O     O_3   0.605100 0.937580 0.996050 -0.257591
V3    V     V_3+5 0.330220 0.007110 0.996030 1.159512
O18   O     O_R   0.941980 0.900620 0.909250 -0.585259
C39   C     C_R   0.110514 0.879121 0.880302 1.032472
O19   O     O_R   0.941740 0.901920 0.082770 -0.598076
C40   C     C_R   0.110294 0.880642 0.111895 0.999178
V4    V     V_3+5 0.830220 0.985300 0.996000 1.177486
O20   O     O_3   0.105210 0.054870 0.996020 -0.296341
O21   O     O_3   0.036440 0.666720 0.896851 -0.604905
C41   C     C_3   0.990898 0.573161 0.884746 0.244912
H18   H     H_    0.114582 0.534900 0.858154 0.109707
H19   H     H_    0.864582 0.564634 0.842481 0.144495
C42   C     C_3   0.941017 0.530919 0.968860 -0.708100
H20   H     H_    0.814311 0.566125 0.996050 0.287390
H21   H     H_    0.906450 0.457037 0.960284 0.179469
H22   H     H_    0.064583 0.537778 0.012768 0.254992
N1    N     N_R   0.196443 0.230872 0.389606 0.233756
O22   O     O_R   0.015324 0.208949 0.390626 -0.414739
O23   O     O_R   0.292225 0.232656 0.459959 -0.443270
O24   O     O_3   0.230477 0.348015 0.286790 -0.640220
C43   C     C_3   0.282068 0.374272 0.203934 0.115103
H23   H     H_    0.160135 0.360644 0.160520 0.122738
H24   H     H_    0.410085 0.339068 0.178630 0.120870
C44   C     C_3   0.326674 0.476034 0.202828 -0.724844
H25   H     H_    0.451227 0.490975 0.244103 0.271762
H26   H     H_    0.360313 0.498182 0.137952 0.218807
H27   H     H_    0.201547 0.514566 0.225889 0.243833
O25   O     O_3   0.857016 0.870587 0.703955 -0.636328
C45   C     C_3   0.927374 0.961545 0.705762 0.257175
H28   H     H_    0.086874 0.967493 0.704584 0.063464
H29   H     H_    0.876154 0.995074 0.764007 0.105312
C46   C     C_3   0.849279 0.013169 0.630508 -0.849652
H30   H     H_    0.692383 0.023445 0.637435 0.236600
H31   H     H_    0.920244 0.081212 0.626051 0.221506
H32   H     H_    0.878278 0.974082 0.571867 0.278739
O26   O     O_3   0.208711 0.828645 0.597494 -0.633221
C47   C     C_3   0.381922 0.878546 0.595120 0.265145
H33   H     H_    0.505387 0.830485 0.591856 0.150458
H34   H     H_    0.398605 0.924810 0.650566 0.091139
C48   C     C_3   0.381063 0.938467 0.517276 -0.859889
H35   H     H_    0.272734 0.993658 0.524375 0.268819
H36   H     H_    0.524473 0.970136 0.508103 0.225089
H37   H     H_    0.343941 0.896891 0.460967 0.254565
N2    N     N_R   0.412046 0.621270 0.794100 0.225089
O27   O     O_R   0.501537 0.633528 0.865072 -0.399481
O28   O     O_R   0.448859 0.549088 0.748764 -0.475429
N3    N     N_R   0.870069 0.595736 0.240468 0.207592
O29   O     O_R   0.852294 0.556469 0.167293 -0.464877
O30   O     O_R   0.749277 0.573660 0.298880 -0.452997

loop_
_geom_bond_atom_site_label_1
_geom_bond_atom_site_label_2
_geom_bond_distance
_ccdc_geom_bond_type
C21   C26   1.394253 A    
C30   C31   1.404571 A    
O25   C45   1.412561 S    
C19   H5    1.109940 S    
C22   C23   1.405682 A    
C20   H7    1.111748 S    
C2    C30   1.485615 S    
C1    O6    1.300301 A    
C44   H25   1.106854 S    
C13   C18   1.390634 A    
O13   V3    2.004058 S    
C46   H31   1.109798 S    
C11   N2    1.457524 S    
O24   C43   1.423911 S    
C7    C39   1.500547 S    
C6    C11   1.533972 S    
C14   C15   1.406074 A    
N2    O28   1.299594 A    
O5    C3    1.294373 A    
O19   V4    2.004119 S    
C1    C22   1.480215 S    
C32   C33   1.411288 A    
C21   C28   1.486824 S    
C31   H14   1.075506 S    
C45   C46   1.520332 S    
C19   C20   1.519111 S    
C10   H2    1.110506 S    
C14   C40   1.478223 S    
C47   H33   1.112744 S    
C35   H16   1.112103 S    
O1    C2    1.301594 A    
C29   C30   1.399850 A    
O8    V2    2.004097 S    
C27   H11   1.112046 S    
O11   C38   1.299108 A    
C41   H18   1.111846 S    
N3    O30   1.298090 A    
C9    C12   1.537370 S    
C10   C11   1.547314 S    
C37   O16   1.297933 A    
O1    V2    2.006104 S    
O7    V1    2.170088 S    
C25   C38   1.482720 S    
C43   H24   1.106587 S    
C48   H37   1.108664 S    
C8    O25   1.410675 S    
C28   H12   1.111986 S    
O13   C40   1.300329 A    
C27   H10   1.111624 S    
O17   V4    1.713039 S    
O9    C4    1.300523 A    
C3    C17   1.490364 S    
C45   H28   1.114225 S    
C23   C24   1.406385 A    
C44   H26   1.110535 S    
C24   C25   1.407454 A    
C5    C6    1.553694 S    
C46   H32   1.110703 S    
O17   V3    2.170134 S    
C26   C27   1.486702 S    
C20   H6    1.112281 S    
C11   C12   1.546398 S    
O4    C2    1.303720 A    
O19   C40   1.300384 A    
V3    O20   1.717594 S    
C43   C44   1.515460 S    
C13   C20   1.489642 S    
C32   H15   1.082419 S    
C5    C8    1.544824 S    
C33   C34   1.402243 A    
O12   C37   1.305059 A    
O2    C1    1.302237 A    
C15   H3    1.083888 S    
N1    O23   1.302457 A    
C16   C17   1.434133 A    
C7    C10   1.562743 S    
C9    O26   1.412502 S    
C35   C36   1.535587 S    
C18   C19   1.493729 S    
N3    O29   1.300712 A    
C43   H23   1.109930 S    
O18   C39   1.301429 A    
C45   H29   1.106829 S    
C47   C48   1.522133 S    
O3    C4    1.295269 A    
C21   C22   1.399955 A    
C41   H19   1.112140 S    
O6    V2    2.003924 S    
O9    V2    2.008384 S    
O12   V3    2.000359 S    
C23   H8    1.078453 S    
C5    H1    1.110160 S    
O2    V1    2.004619 S    
O15   C39   1.295811 A    
C44   H27   1.101686 S    
C24   H9    1.077254 S    
C48   H35   1.110979 S    
C25   C26   1.399369 A    
C27   C28   1.518920 S    
C35   H17   1.108861 S    
C42   H20   1.110588 S    
O18   V4    2.008352 S    
V4    O20   2.164006 S    
C42   H22   1.110991 S    
O5    V1    2.003974 S    
C6    C7    1.539499 S    
O8    C3    1.312291 A    
C29   C34   1.401380 A    
O11   V4    2.004061 S    
C46   H30   1.109407 S    
C36   O24   1.429795 S    
C5    C12   1.558790 S    
C17   C18   1.403463 A    
O7    V2    1.713573 S    
O4    V1    2.000439 S    
C15   C16   1.415612 A    
O3    V1    2.001672 S    
V1    O10   1.717647 S    
N2    O27   1.300201 A    
O15   V3    2.001690 S    
N1    O22   1.300380 A    
C33   C37   1.481214 S    
C28   H13   1.112071 S    
C36   N1    1.465867 S    
C6    O21   1.411675 S    
O16   V4    2.007778 S    
C31   C32   1.411036 A    
C42   H21   1.110667 S    
C4    C12   1.496824 S    
C34   C35   1.495780 S    
C47   H34   1.113429 S    
C16   N3    1.439280 S    
C41   C42   1.519565 S    
C7    C8    1.544126 S    
C19   H4    1.103615 S    
O21   C41   1.411579 S    
C29   C36   1.498941 S    
O26   C47   1.407287 S    
C13   C14   1.396876 A    
C9    C10   1.561205 S    
O14   V3    2.004597 S    
O14   C38   1.304746 A    
C8    C9    1.536155 S    
V2    O10   2.164057 S    
C48   H36   1.109399 S    
