data_mof_unit_39733.cif
_audit_creation_date              2012-12-11T15:37:23-0500
_audit_creation_method            fapswitch 2.2
_symmetry_space_group_name_H-M    P1
_symmetry_Int_Tables_number       1
_space_group_crystal_system       triclinic
_cell_length_a                    17.54307
_cell_length_b                    24.691161
_cell_length_c                    14.749419
_cell_angle_alpha                 90.036311
_cell_angle_beta                  125.723892
_cell_angle_gamma                 89.956708
_cell_volume                      5186.71513123

loop_
_atom_site_label
_atom_site_type_symbol
_atom_type_description
_atom_site_fract_x
_atom_site_fract_y
_atom_site_fract_z
_atom_type_partial_charge
C1    C     C_R   0.812789 0.628044 0.908601 -0.150664
C2    C     C_R   0.156109 0.350831 0.092586 -0.132600
C3    C     C_R   0.178345 0.636898 0.091878 -0.148954
C4    C     C_R   0.834155 0.354795 0.907875 -0.122296
C5    C     C_R   0.342840 0.148811 0.907583 -0.140525
C6    C     C_R   0.666278 0.855005 0.091788 -0.124205
C7    C     C_R   0.687251 0.128019 0.091734 -0.146930
C8    C     C_R   0.348218 0.849288 0.908824 -0.132268
C9    C     C_3   0.410554 0.500248 0.434916 0.137387
C10   C     C_3   0.591755 0.500371 0.561716 0.125972
C11   C     C_3   0.905825 0.000214 0.441765 0.121208
C12   C     C_3   0.086794 0.000000 0.570227 0.140775
C13   C     C_R   0.724296 0.285802 0.974610 -0.141073
C14   C     C_R   0.306903 0.686344 0.031639 -0.115730
C15   C     C_R   0.282365 0.300429 0.048765 -0.169888
C16   C     C_R   0.682989 0.686091 0.970802 -0.152128
C17   C     C_R   0.236587 0.791860 0.972029 -0.119626
C18   C     C_R   0.816790 0.185546 0.027554 -0.146691
C19   C     C_R   0.776882 0.785935 0.026588 -0.146022
C20   C     C_R   0.215920 0.198761 0.951622 -0.168244
C21   C     C_R   0.180911 0.752094 0.968598 -0.040392
C22   C     C_R   0.862089 0.231818 0.030233 -0.046894
C23   C     C_R   0.821473 0.739998 0.029097 -0.047005
C24   C     C_R   0.155282 0.234196 0.950828 -0.041880
C25   C     C_R   0.679730 0.240059 0.972907 -0.046713
C26   C     C_R   0.363004 0.726375 0.035080 -0.050507
C27   C     C_R   0.342992 0.264993 0.049617 -0.039711
C28   C     C_R   0.637674 0.732562 0.967295 -0.050802
C29   C     C_R   0.216252 0.699760 0.996996 0.165793
C30   C     C_R   0.814769 0.281231 0.003313 0.165636
C31   C     C_R   0.774872 0.690419 0.003222 0.171022
C32   C     C_R   0.189210 0.284578 0.999687 0.147459
C33   C     C_R   0.725641 0.190285 0.997466 0.174215
C34   C     C_R   0.326498 0.778449 0.004157 0.150898
C35   C     C_R   0.309078 0.214616 0.000777 0.145047
C36   C     C_R   0.685714 0.781750 0.995680 0.163687
C37   C     C_R   0.073736 0.447181 0.590425 0.342407
C38   C     C_R   0.150569 0.540492 0.566165 0.379878
C39   C     C_R   0.119233 0.445361 0.539381 0.353708
C40   C     C_R   0.128207 0.540290 0.643606 0.364377
C41   C     C_R   0.348627 0.959161 0.433606 0.376003
C42   C     C_R   0.428818 0.051302 0.411018 0.344263
C43   C     C_R   0.369910 0.959058 0.355108 0.363343
C44   C     C_R   0.383687 0.054029 0.462251 0.366160
C45   C     C_R   0.132161 0.493923 0.501335 -0.233424
C46   C     C_R   0.077426 0.495709 0.644627 -0.297054
C47   C     C_R   0.421555 0.003121 0.354014 -0.300255
C48   C     C_R   0.368269 0.005724 0.498864 -0.243311
C49   C     C_R   0.932206 0.354510 0.094838 0.466267
C50   C     C_R   0.076020 0.640784 0.904808 0.488989
C51   C     C_R   0.059636 0.350591 0.906893 0.424383
C52   C     C_R   0.910224 0.629299 0.095779 0.457405
C53   C     C_R   0.443837 0.850251 0.094556 0.481801
C54   C     C_R   0.590017 0.129392 0.904575 0.455641
C55   C     C_R   0.568392 0.855093 0.904626 0.464819
C56   C     C_R   0.439457 0.149017 0.093356 0.427115
C57   C     C_R   0.063384 0.543525 0.313198 0.007908
C58   C     C_R   0.016247 0.454037 0.747775 -0.002882
C59   C     C_R   0.003081 0.544226 0.730832 -0.026785
C60   C     C_R   0.058487 0.454071 0.308603 -0.016841
C61   C     C_R   0.482369 0.045351 0.250980 -0.003183
C62   C     C_R   0.439279 0.956047 0.687762 -0.022514
C63   C     C_R   0.436045 0.045476 0.689660 0.017482
C64   C     C_R   0.493571 0.954803 0.264924 -0.015617
C65   C     C_R   0.741743 0.455342 0.697087 0.368746
C66   C     C_R   0.259430 0.544858 0.301490 0.342628
C67   C     C_R   0.259717 0.455265 0.301376 0.350168
C68   C     C_R   0.742257 0.544843 0.696846 0.349605
C69   C     C_R   0.238498 0.955052 0.701432 0.371782
C70   C     C_R   0.756561 0.044782 0.304195 0.352607
C71   C     C_R   0.757036 0.955340 0.303933 0.365783
C72   C     C_R   0.238519 0.044823 0.701017 0.348323
C73   C     C_R   0.822553 0.644343 0.003877 -0.138959
C74   C     C_R   0.128774 0.322252 0.999413 -0.108985
C75   C     C_R   0.160400 0.659236 0.996570 -0.122074
C76   C     C_R   0.857716 0.329028 0.002803 -0.144686
C77   C     C_R   0.369544 0.177038 0.000920 -0.107356
C78   C     C_R   0.643027 0.829583 0.996488 -0.143674
C79   C     C_R   0.677681 0.144336 0.996658 -0.139557
C80   C     C_R   0.379627 0.820260 0.002877 -0.124986
C81   C     C_R   0.086382 0.497758 0.379257 0.060852
C82   C     C_R   0.033547 0.498298 0.704941 0.135768
C83   C     C_R   0.463879 0.000613 0.292024 0.133771
C84   C     C_R   0.412053 0.001735 0.620352 0.065545
C85   C     C_R   0.692530 0.500159 0.636529 -0.104020
C86   C     C_R   0.309842 0.500106 0.360502 -0.094878
C87   C     C_R   0.187215 0.999907 0.644341 -0.112847
C88   C     C_R   0.805322 0.000099 0.365428 -0.101899
C89   C     C_3   0.531059 0.456251 0.563527 -0.104223
C90   C     C_3   0.471134 0.544398 0.433023 -0.101849
C91   C     C_3   0.471391 0.455531 0.435049 -0.095033
C92   C     C_3   0.530910 0.545129 0.561555 -0.094772
C93   C     C_3   0.025685 0.955379 0.569462 -0.094195
C94   C     C_3   0.967112 0.044879 0.442771 -0.103557
C95   C     C_3   0.966998 0.955974 0.441053 -0.095906
C96   C     C_3   0.025884 0.044253 0.571223 -0.091904
C97   C     C_3   0.468712 0.500994 0.561726 -0.103423
C98   C     C_3   0.533566 0.499667 0.434879 -0.119341
C99   C     C_3   0.962995 0.999619 0.568526 -0.119509
C100  C     C_3   0.029639 0.000629 0.443566 -0.104222
H1    H     H_    0.756198 0.638087 0.823873 0.199203
H2    H     H_    0.205410 0.338092 0.177807 0.221778
H3    H     H_    0.234280 0.647264 0.176540 0.207193
H4    H     H_    0.786434 0.340545 0.823380 0.218566
H5    H     H_    0.293624 0.161758 0.822556 0.220190
H6    H     H_    0.714196 0.840708 0.176244 0.217720
H7    H     H_    0.743789 0.137899 0.176624 0.198474
H8    H     H_    0.302139 0.834981 0.824214 0.226945
H9    H     H_    0.089999 0.583285 0.345250 0.240565
H10   H     H_    0.040204 0.413579 0.753447 0.185874
H11   H     H_    0.000270 0.584452 0.702261 0.220156
H12   H     H_    0.078943 0.413221 0.333793 0.243599
H13   H     H_    0.458535 0.085773 0.246332 0.183285
H14   H     H_    0.420015 0.915360 0.657531 0.236222
H15   H     H_    0.406127 0.084927 0.662828 0.239612
H16   H     H_    0.492304 0.913667 0.287452 0.214138
H17   H     H_    0.439339 0.501533 0.611038 0.175042
H18   H     H_    0.562797 0.499143 0.385425 0.166852
H19   H     H_    0.932920 0.999231 0.617061 0.168909
H20   H     H_    0.059825 0.001009 0.395139 0.175858
H21   H     H_    0.556825 0.419926 0.618108 0.177990
H22   H     H_    0.445022 0.580673 0.378281 0.172429
H23   H     H_    0.445787 0.418640 0.382061 0.177696
H24   H     H_    0.556705 0.582036 0.614516 0.175444
H25   H     H_    0.051085 0.918600 0.622724 0.180276
H26   H     H_    0.941853 0.081756 0.389774 0.176355
H27   H     H_    0.941809 0.919589 0.386629 0.180207
H28   H     H_    0.051732 0.080517 0.626016 0.176214
H29   H     H_    0.689006 0.324646 0.954545 0.141018
H30   H     H_    0.333212 0.645251 0.054987 0.140982
H31   H     H_    0.307489 0.340274 0.085350 0.136502
H32   H     H_    0.647482 0.647329 0.949013 0.143446
H33   H     H_    0.210087 0.832987 0.949799 0.146776
H34   H     H_    0.851730 0.146615 0.048123 0.141124
H35   H     H_    0.812720 0.824619 0.047822 0.144723
H36   H     H_    0.190822 0.158933 0.914929 0.137097
H37   H     H_    0.111365 0.761974 0.945175 0.164078
H38   H     H_    0.932670 0.229362 0.052100 0.155570
H39   H     H_    0.892042 0.742878 0.050928 0.159221
H40   H     H_    0.083210 0.222447 0.913675 0.161996
H41   H     H_    0.609657 0.243215 0.952540 0.153421
H42   H     H_    0.433238 0.717052 0.060243 0.151040
H43   H     H_    0.415043 0.276766 0.086718 0.164246
H44   H     H_    0.566571 0.730420 0.943845 0.156769
N1    N     N_R   0.892620 0.603790 0.941800 -0.057366
N2    N     N_R   0.107380 0.396210 0.058200 -0.075417
N3    N     N_R   0.107380 0.603790 0.058200 -0.065668
N4    N     N_R   0.892620 0.396210 0.941800 -0.069323
N5    N     N_R   0.392620 0.103790 0.941800 -0.075228
N6    N     N_R   0.607380 0.896210 0.058200 -0.069621
N7    N     N_R   0.607380 0.103790 0.058200 -0.056327
N8    N     N_R   0.392620 0.896210 0.941800 -0.075207
N9    N     N_R   0.952210 0.397600 0.057910 -0.098236
N10   N     N_R   0.047790 0.602400 0.942090 -0.097927
N11   N     N_R   0.047790 0.397600 0.942090 -0.104599
N12   N     N_R   0.952210 0.602400 0.057910 -0.089743
N13   N     N_R   0.452210 0.897600 0.057910 -0.101366
N14   N     N_R   0.547790 0.102400 0.942090 -0.093937
N15   N     N_R   0.547790 0.897600 0.942090 -0.096774
N16   N     N_R   0.452210 0.102400 0.057910 -0.103135
N17   N     N_R   0.026300 0.529110 0.206760 -0.080017
N18   N     N_R   0.973700 0.470890 0.793240 -0.062208
N19   N     N_R   0.973700 0.529110 0.793240 -0.070409
N20   N     N_R   0.026300 0.470890 0.206760 -0.080791
N21   N     N_R   0.526300 0.029110 0.206760 -0.060262
N22   N     N_R   0.473700 0.970890 0.793240 -0.075632
N23   N     N_R   0.473700 0.029110 0.793240 -0.085609
N24   N     N_R   0.526300 0.970890 0.206760 -0.067778
N25   N     N_R   0.818530 0.472270 0.792960 -0.112292
N26   N     N_R   0.181470 0.527730 0.207040 -0.116053
N27   N     N_R   0.181470 0.472270 0.207040 -0.114511
N28   N     N_R   0.818530 0.527730 0.792960 -0.113147
N29   N     N_R   0.318530 0.972270 0.792960 -0.113697
N30   N     N_R   0.681470 0.027730 0.207040 -0.113348
N31   N     N_R   0.681470 0.972270 0.207040 -0.112734
N32   N     N_R   0.318530 0.027730 0.792960 -0.116667
Ni1   Ni    Ni4+2 0.934150 0.565840 0.869060 0.308544
Ni2   Ni    Ni4+2 0.065850 0.434160 0.130940 0.277245
Ni3   Ni    Ni4+2 0.065850 0.565840 0.130940 0.287957
Ni4   Ni    Ni4+2 0.934150 0.434160 0.869060 0.308966
Ni5   Ni    Ni4+2 0.434150 0.065840 0.869060 0.273589
Ni6   Ni    Ni4+2 0.565850 0.934160 0.130940 0.300749
Ni7   Ni    Ni4+2 0.565850 0.065840 0.130940 0.320299
Ni8   Ni    Ni4+2 0.434150 0.934160 0.869060 0.280384
Cl1   Cl    Cl    0.006894 0.324367 0.226703 -0.550362
Cl2   Cl    Cl    0.001435 0.676806 0.779354 -0.555687
Cl3   Cl    Cl    0.976803 0.321535 0.775515 -0.523456
Cl4   Cl    Cl    0.966694 0.657631 0.229771 -0.585036
Cl5   Cl    Cl    0.528427 0.822459 0.226379 -0.560540
Cl6   Cl    Cl    0.534300 0.157915 0.770831 -0.555217
Cl7   Cl    Cl    0.494981 0.826489 0.771039 -0.574649
Cl8   Cl    Cl    0.521383 0.178050 0.225087 -0.512871
Cl9   Cl    Cl    0.730539 0.391896 0.636784 -0.553561
Cl10  Cl    Cl    0.271833 0.608130 0.363219 -0.563411
Cl11  Cl    Cl    0.273166 0.391976 0.363137 -0.570656
Cl12  Cl    Cl    0.733441 0.607981 0.636495 -0.575076
Cl13  Cl    Cl    0.221692 0.891303 0.639850 -0.561716
Cl14  Cl    Cl    0.764128 0.108068 0.363475 -0.536917
Cl15  Cl    Cl    0.766854 0.891784 0.363054 -0.574234
Cl16  Cl    Cl    0.222069 0.108030 0.637651 -0.592743
Cl17  Cl    Cl    0.000945 0.390884 0.563779 -0.456494
Cl18  Cl    Cl    0.211282 0.595857 0.560628 -0.437028
Cl19  Cl    Cl    0.166180 0.383191 0.533431 -0.428350
Cl20  Cl    Cl    0.167703 0.594567 0.739476 -0.557218
Cl21  Cl    Cl    0.288911 0.903920 0.441462 -0.434705
Cl22  Cl    Cl    0.506362 0.105623 0.441633 -0.441684
Cl23  Cl    Cl    0.329025 0.904815 0.259044 -0.555790
Cl24  Cl    Cl    0.340785 0.117395 0.469898 -0.431257

loop_
_geom_bond_atom_site_label_1
_geom_bond_atom_site_label_2
_ccdc_geom_bond_type
N28   Ni1   S    
C16   C28   A    
N8    N13   A    
N5    Ni5   S    
C56   Cl8   S    
C10   C85   S    
C3    N3    A    
C2    N2    A    
C64   H16   S    
C39   Cl19  S    
C49   Cl1   S    
C41   C43   A    
C1    N1    A    
C65   C85   A    
C59   C82   A    
C21   H37   S    
C70   C88   A    
C9    C91   S    
C24   C32   A    
C17   H33   S    
C15   C32   A    
N6    Ni6   S    
C5    H5    S    
C24   H40   S    
C16   C31   A    
C40   C46   A    
C51   N11   A    
C69   N29   A    
C51   Cl3   S    
C23   H39   S    
C8    N8    A    
C61   N21   A    
C62   H14   S    
C19   C36   A    
C58   C82   A    
C32   C74   S    
N12   Ni3   S    
C31   C73   S    
C54   N14   A    
N26   N27   A    
C2    H2    S    
C19   H35   S    
C4    N4    A    
C96   C99   S    
C44   Cl24  S    
C5    N5    A    
C96   H28   S    
C11   C99   S    
C10   C98   S    
N3    N10   A    
C54   Cl6   S    
N30   N31   A    
C38   C45   A    
C89   C97   S    
C34   C80   S    
C46   C82   S    
C20   C35   A    
C15   C27   A    
C26   C34   A    
C57   H9    S    
N2    N11   A    
C40   Cl20  S    
N29   Ni8   S    
N19   Ni1   S    
C27   H43   S    
C51   C74   A    
N27   Ni2   S    
C18   H34   S    
C28   H44   S    
C47   C83   S    
N15   Ni8   S    
N17   Ni3   S    
C3    C75   A    
C93   C99   S    
N25   Ni4   S    
N18   Ni4   S    
C69   C87   A    
C39   C45   A    
C63   H15   S    
C55   N15   A    
C10   C92   S    
C93   C95   S    
C97   H17   S    
C18   C22   A    
C91   H23   S    
C69   Cl13  S    
C68   C85   A    
C90   H22   S    
C13   C25   A    
C49   N9    A    
C42   C44   A    
C67   Cl11  S    
C8    H8    S    
C66   Cl10  S    
C92   C97   S    
C98   H18   S    
C65   Cl9   S    
C94   H26   S    
N32   Ni5   S    
C37   C39   A    
C45   C81   S    
C4    C76   A    
N6    N15   A    
C43   Cl23  S    
N21   Ni7   S    
N7    N14   A    
C20   C24   A    
C13   C30   A    
C53   C80   A    
N22   Ni8   S    
C10   C89   S    
C52   C73   A    
C61   C83   A    
C63   C84   A    
C55   C78   A    
C95   C100  S    
C33   C79   S    
C27   C35   A    
C21   C29   A    
C35   C77   S    
C17   C21   A    
C56   C77   A    
C48   C84   S    
C65   N25   A    
C23   C31   A    
C9    C90   S    
C19   C23   A    
N1    N12   A    
C64   C83   A    
C66   C86   A    
C60   H12   S    
C95   H27   S    
C9    C86   S    
C72   Cl16  S    
C30   C76   S    
C60   C81   A    
C18   C33   A    
C90   C92   S    
C94   C100  S    
C11   C88   S    
C14   C26   A    
C6    H6    S    
C49   C76   A    
C15   H31   S    
C68   Cl12  S    
C20   H36   S    
C94   C96   S    
C72   C87   A    
C70   N30   A    
C38   Cl18  S    
N31   Ni6   S    
C100  H20   S    
C11   C95   S    
C11   C94   S    
C62   N22   A    
N21   N24   A    
N24   Ni6   S    
C61   H13   S    
N22   N23   A    
C64   N24   A    
N25   N28   A    
C7    N7    A    
C12   C93   S    
N8    Ni8   S    
N4    N9    A    
C14   C29   A    
C5    C77   A    
C50   Cl2   S    
C1    H1    S    
N17   N20   A    
N20   Ni2   S    
N11   Ni4   S    
C7    C79   A    
N18   N19   A    
C14   H30   S    
N29   N32   A    
C3    H3    S    
C62   C84   A    
N9    Ni2   S    
C67   C86   A    
C9    C97   S    
N16   Ni7   S    
C12   C87   S    
C58   H10   S    
N7    Ni7   S    
C66   N26   A    
C25   H41   S    
C57   C81   A    
C43   C47   A    
C2    C74   A    
N30   Ni7   S    
N4    Ni4   S    
C71   Cl15  S    
C29   C75   S    
C52   N12   A    
N5    N16   A    
C22   H38   S    
C53   N13   A    
N26   Ni3   S    
C67   N27   A    
C92   H24   S    
C1    C73   A    
C56   N16   A    
C22   C30   A    
C50   C75   A    
C38   C40   A    
C68   N28   A    
C55   Cl7   S    
C17   C34   A    
N23   Ni5   S    
C89   H21   S    
C50   N10   A    
C4    H4    S    
C63   N23   A    
C60   N20   A    
C41   C48   A    
C71   N31   A    
C42   Cl22  S    
C7    H7    S    
C42   C47   A    
C72   N32   A    
C91   C98   S    
C41   Cl21  S    
C16   H32   S    
N14   Ni5   S    
C93   H25   S    
C12   C100  S    
C6    C78   A    
C54   C79   A    
C99   H19   S    
C71   C88   A    
C6    N6    A    
N3    Ni3   S    
C57   N17   A    
C28   C36   A    
C70   Cl14  S    
C89   C91   S    
N13   Ni6   S    
N10   Ni1   S    
N1    Ni1   S    
C59   H11   S    
C8    C80   A    
C59   N19   A    
C37   Cl17  S    
C12   C96   S    
C36   C78   S    
C52   Cl4   S    
C37   C46   A    
C26   H42   S    
C53   Cl5   S    
C90   C98   S    
C13   H29   S    
C44   C48   A    
C25   C33   A    
N2    Ni2   S    
C58   N18   A    
