data_mof_unit_67039.cif
_audit_creation_date              2013-03-05T15:58:15-0500
_audit_creation_method            fapswitch 2.2
_symmetry_space_group_name_H-M    P1
_symmetry_Int_Tables_number       1
_space_group_crystal_system       triclinic
_cell_length_a                    8.426892
_cell_length_b                    13.322792
_cell_length_c                    14.391953
_cell_angle_alpha                 91.970991
_cell_angle_beta                  92.99156
_cell_angle_gamma                 99.974775
_cell_volume                      1587.6377438

loop_
_atom_site_label
_atom_site_type_symbol
_atom_site_description
_atom_site_fract_x
_atom_site_fract_y
_atom_site_fract_z
_atom_type_partial_charge
P1    P     P_3+3 0.054400 0.427280 0.286870 0.458655
O1    O     O_2   0.887370 0.460630 0.272300 -0.358324
O2    O     O_3   0.129410 0.451380 0.388510 -0.418519
O3    O     O_3   0.670210 0.653170 0.329170 -0.389176
O4    O     O_2   0.809459 0.590367 0.177278 -0.401110
O5    O     O_3   0.995700 0.295110 0.274197 -0.573267
O6    O     O_3   0.672339 0.741967 0.150620 -0.583832
H1    H     H_    0.799129 0.820848 0.264892 0.158613
C1    C     C_3   0.744422 0.922290 0.157112 -0.451645
H2    H     H_    0.839989 0.976324 0.195980 0.204984
H3    H     H_    0.790006 0.903307 0.089881 0.197876
P2    P     P_3+3 0.668300 0.742890 0.573060 0.440302
P3    P     P_3+3 0.128881 0.839935 0.380724 0.410713
O7    O     O_2   0.845380 0.761330 0.544970 -0.388193
O8    O     O_3   0.088930 0.704860 0.376040 -0.390896
O9    O     O_2   0.011218 0.877437 0.446693 -0.399344
O10   O     O_3   0.692901 0.773375 0.692531 -0.596716
O11   O     O_3   0.072229 0.886706 0.272116 -0.595112
C2    C     C_3   0.106433 0.818991 0.202395 0.698045
H4    H     H_    0.037602 0.741707 0.213835 0.152050
C3    C     C_3   0.061027 0.843420 0.101745 -1.109540
H5    H     H_    0.945946 0.794313 0.076734 0.267789
H6    H     H_    0.058778 0.924625 0.092766 0.268436
C4    C     C_3   0.186040 0.757212 0.655269 0.227691
H7    H     H_    0.303365 0.767456 0.622696 0.074956
H8    H     H_    0.092649 0.722059 0.601992 0.166467
C5    C     C_3   0.143519 0.857205 0.690060 -0.376675
H9    H     H_    0.175246 0.867696 0.765603 0.271353
H10   H     H_    0.012145 0.855458 0.681733 0.187062
Ba1   Ba    Ba6+2 0.855630 0.555280 0.454520 1.531354
C6    C     C_3   0.960887 0.255120 0.361057 0.464312
H11   H     H_    0.865851 0.291123 0.392170 0.110300
H12   H     H_    0.070284 0.268346 0.409003 0.139758
C7    C     C_3   0.903897 0.140627 0.348004 -1.082350
H13   H     H_    0.929189 0.113785 0.278807 0.284853
H14   H     H_    0.772936 0.121693 0.351707 0.262852
H15   H     H_    0.963588 0.098176 0.400206 0.276033
C8    C     C_3   0.699531 0.687207 0.743784 0.274846
H16   H     H_    0.828374 0.680100 0.752055 0.064826
H17   H     H_    0.626878 0.616687 0.710090 0.121012
C9    C     C_3   0.634856 0.700566 0.840483 -0.409553
H18   H     H_    0.735972 0.710408 0.894448 0.156963
H19   H     H_    0.552567 0.629641 0.855653 0.159560
P4    P     P_3+3 0.135310 0.572810 0.713130 0.465986
O12   O     O_2   0.302330 0.539400 0.727760 -0.351611
O13   O     O_3   0.060300 0.548700 0.611500 -0.404100
O14   O     O_3   0.519500 0.346920 0.670840 -0.346690
O15   O     O_3   0.199840 0.701806 0.734421 -0.590402
P5    P     P_3+3 0.067487 0.158275 0.619014 0.448656
O16   O     O_3   0.614310 0.373510 0.452640 -0.369801
O17   O     O_3   0.100780 0.295230 0.623970 -0.375257
O18   O     O_2   0.174062 0.125367 0.544466 -0.379079
O19   O     O_3   0.149411 0.109518 0.720233 -0.495725
Ba2   Ba    Ba6+2 0.334200 0.444810 0.545490 1.535850
P6    P     P_3+3 0.656204 0.627310 0.207811 0.421007
C10   C     C_3   0.700235 0.826704 0.213469 0.356102
H20   H     H_    0.594758 0.832195 0.254615 0.083687
O20   O     O_3   0.575400 0.626570 0.547370 -0.394477
C11   C     C_3   0.392020 0.249343 0.261760 0.532436
H21   H     H_    0.345743 0.312472 0.298066 0.065527
C12   C     C_3   0.446182 0.287838 0.167167 0.102455
H22   H     H_    0.501738 0.228734 0.132172 0.085528
H23   H     H_    0.542185 0.356237 0.178770 0.089142
P7    P     P_3+3 0.525742 0.241907 0.430626 0.421008
O21   O     O_2   0.344320 0.238700 0.455090 -0.396926
O22   O     O_3   0.528467 0.224160 0.309627 -0.639719
H24   H     H_    0.149361 0.823357 0.052666 0.273346
C13   C     C_3   0.067140 0.129697 0.799202 0.217288
H25   H     H_    0.093637 0.213027 0.816838 0.046035
H26   H     H_    0.936716 0.100014 0.786857 0.039290
C14   C     C_3   0.126437 0.079544 0.885452 0.168198
H27   H     H_    0.257884 0.103366 0.895066 0.089095
H28   H     H_    0.076613 0.108560 0.949055 0.033616
P8    P     P_3+3 0.534633 0.380059 0.792363 0.456651
C15   C     C_3   0.548676 0.181104 0.814238 0.601300
O23   O     O_2   0.376729 0.410343 0.823246 -0.407713
O24   O     O_3   0.536484 0.273615 0.860374 -0.561432
H29   H     H_    0.428037 0.150191 0.782533 0.083601
H30   H     H_    0.705251 0.074552 0.866800 0.171601
C16   C     C_3   0.598341 0.106552 0.886842 -0.503072
H31   H     H_    0.500063 0.040010 0.888622 0.130937
C17   C     C_R   0.977918 0.460076 0.060774 -0.173864
C18   C     C_R   0.188031 0.480355 0.193798 0.287181
C19   C     C_R   0.352002 0.508778 0.222466 -0.450024
C20   C     C_R   0.467727 0.545757 0.160111 0.317404
C21   C     C_R   0.421198 0.550788 0.065726 -0.300594
C22   C     C_R   0.257886 0.524162 0.033600 0.079904
C23   C     C_R   0.139213 0.486353 0.096810 0.042773
H32   H     H_    0.389273 0.508178 0.295566 0.161678
C24   C     C_R   0.051962 0.512568 0.903667 -0.007911
C25   C     C_R   0.933259 0.476426 0.966894 0.066338
C26   C     C_R   0.003486 0.519836 0.807105 0.276066
C27   C     C_R   0.839677 0.496219 0.779415 -0.565984
C28   C     C_R   0.722571 0.461860 0.841112 0.266538
C29   C     C_R   0.769981 0.454151 0.935190 -0.268689
C30   C     C_R   0.212776 0.538295 0.939517 -0.195440
H33   H     H_    0.510603 0.583905 0.018995 0.152522
H34   H     H_    0.681635 0.422441 0.982590 0.144974
H35   H     H_    0.803024 0.498121 0.706316 0.165864
H36   H     H_    0.885056 0.427048 0.105046 0.169076
H37   H     H_    0.304248 0.570282 0.894718 0.177169
C31   C     C_R   0.761983 0.170520 0.540975 -0.422441
C32   C     C_R   0.434070 0.816800 0.458559 -0.470435
C33   C     C_R   0.404259 0.991944 0.432821 -0.267507
C34   C     C_R   0.341895 0.887266 0.424538 0.223672
C35   C     C_R   0.583659 0.847588 0.507904 0.271604
C36   C     C_R   0.648220 0.956679 0.517148 -0.022430
C37   C     C_R   0.556014 0.029427 0.478607 -0.045956
C38   C     C_R   0.614588 0.137961 0.491559 0.243441
C39   C     C_R   0.857164 0.102294 0.574955 0.200212
C40   C     C_R   0.799069 0.996279 0.564965 -0.217118
H38   H     H_    0.329276 0.043749 0.407427 0.183672
H39   H     H_    0.873904 0.945907 0.592963 0.181609
H40   H     H_    0.809083 0.251416 0.547503 0.152491
H41   H     H_    0.382393 0.736458 0.453149 0.173822
N1    N     N_2   0.228857 0.941599 0.643428 -0.048847
H42   H     H_    0.207221 0.939305 0.572832 0.236266
C41   C     C_3   0.394449 0.974146 0.676209 -0.797131
H43   H     H_    0.440209 0.047648 0.645672 0.248428
H44   H     H_    0.468523 0.916651 0.658320 0.212113
H45   H     H_    0.402358 0.983096 0.752468 0.229943
N2    N     N_2   0.550391 0.786598 0.846172 -0.057408
H46   H     H_    0.469208 0.790154 0.791018 0.264508
C42   C     C_3   0.483528 0.802384 0.934390 -0.926938
H47   H     H_    0.438509 0.875684 0.935696 0.249306
H48   H     H_    0.577583 0.804356 0.991261 0.278393
H49   H     H_    0.380412 0.740795 0.944715 0.258518
N3    N     N_2   0.608503 0.970111 0.133876 -0.108784
H50   H     H_    0.512218 0.926586 0.096361 0.204167
C43   C     C_3   0.573784 0.043363 0.201515 -0.906083
H51   H     H_    0.454896 0.061338 0.182193 0.257443
H52   H     H_    0.665288 0.113716 0.200359 0.293299
H53   H     H_    0.570418 0.011814 0.271747 0.259767
N4    N     N_2   0.267339 0.158310 0.253861 -0.110391
H54   H     H_    0.210259 0.141517 0.314020 0.195007
C44   C     C_3   0.167131 0.127649 0.169451 -0.911164
H55   H     H_    0.088361 0.055616 0.181281 0.249816
H56   H     H_    0.240120 0.113035 0.110375 0.242236
H57   H     H_    0.089469 0.184238 0.152163 0.311069
O25   O     O_3   0.313569 0.313922 0.115351 -0.642052
C45   C     C_3   0.329719 0.300671 0.019380 -0.102846
H58   H     H_    0.215284 0.309700 0.981613 0.151084
H59   H     H_    0.352363 0.223780 0.000567 0.116259
H60   H     H_    0.427090 0.359239 0.996857 0.184264
O26   O     O_3   0.095927 0.972256 0.877433 -0.602517
C46   C     C_3   0.932696 0.932150 0.889454 -0.197385
H61   H     H_    0.858659 0.933908 0.823641 0.168899
H62   H     H_    0.882197 0.970600 0.947734 0.128516
H63   H     H_    0.925634 0.851388 0.906572 0.175834
N5    N     N_2   0.659483 0.190429 0.740451 -0.119247
H64   H     H_    0.678292 0.121218 0.713635 0.104051
C47   C     C_3   0.802154 0.267242 0.751329 -0.804002
H65   H     H_    0.900471 0.239514 0.726238 0.207138
H66   H     H_    0.835374 0.292914 0.824633 0.233317
H67   H     H_    0.793049 0.326575 0.701459 0.247402
N6    N     N_2   0.625521 0.153632 0.979990 -0.054520
H68   H     H_    0.550433 0.116355 0.026599 0.198845
C48   C     C_3   0.790867 0.183068 0.016430 -0.817095
H69   H     H_    0.794904 0.234308 0.079256 0.237805
H70   H     H_    0.866766 0.224480 0.964579 0.234091
H71   H     H_    0.840246 0.114579 0.036756 0.235931
N7    N     N_2   0.275267 0.820359 0.209591 -0.128089
H72   H     H_    0.348585 0.889543 0.207346 0.193207
C49   C     C_3   0.325138 0.732126 0.173238 -1.027933
H73   H     H_    0.400700 0.752025 0.114264 0.297296
H74   H     H_    0.221479 0.674830 0.146200 0.246652
H75   H     H_    0.385167 0.702123 0.232928 0.272197

loop_
_geom_bond_atom_site_label_1
_geom_bond_atom_site_label_2
_geom_bond_distance
_ccdc_geom_bond_type
C8    H17   1.109547 S    
C22   C23   1.425966 A    
C27   C28   1.390960 A    
C5    H10   1.103422 S    
C7    H15   1.107086 S    
O16   P7    1.793125 S    
C9    H18   1.109806 S    
P8    C28   1.849773 S    
C43   H52   1.106993 S    
C2    H4    1.112846 S    
C4    C5    1.513941 S    
O6    P6    1.748024 S    
N3    H50   1.027538 S    
H1    C10   1.100201 S    
O26   C46   1.408580 S    
P7    C38   1.903050 S    
C29   H34   1.077951 S    
C40   H39   1.071968 S    
Ba2   O21   3.014501 S    
C20   C21   1.401137 A    
C37   C38   1.446998 A    
Ba1   Ba2   4.667095 S    
O16   Ba2   3.046058 S    
P8    O23   1.538289 D    
P3    O11   1.775262 S    
C49   H73   1.099771 S    
C2    C3    1.538944 S    
C4    H8    1.100561 S    
C7    H13   1.090488 S    
C45   H59   1.101432 S    
C11   O22   1.405735 S    
C8    H16   1.106741 S    
C16   H31   1.105390 S    
O2    Ba2   2.783709 S    
P5    O19   1.770910 S    
C35   C36   1.459894 A    
C15   N5    1.444803 S    
C14   H28   1.111592 S    
N1    H42   1.021302 S    
P1    O1    1.553970 D    
C12   H23   1.110317 S    
O19   C13   1.403704 S    
C41   H43   1.103293 S    
P1    Ba1   3.558622 S    
C48   H71   1.108373 S    
C39   C40   1.412235 A    
C19   C20   1.398000 A    
C6    H11   1.108014 S    
C13   H25   1.111581 S    
P5    O17   1.795732 S    
P8    O24   1.752412 S    
P2    O10   1.746407 S    
C36   C37   1.450403 A    
C6    H12   1.107251 S    
C1    H2    1.097335 S    
C27   H35   1.083255 S    
C46   H62   1.109159 S    
P4    C26   1.874090 S    
P2    O20   1.631333 S    
C5    N1    1.433160 S    
C18   C23   1.443307 A    
Ba1   O16   2.878266 S    
C11   H21   1.112273 S    
C3    H5    1.107086 S    
C3    H24   1.111436 S    
C48   H70   1.107361 S    
C9    H19   1.106523 S    
C28   C29   1.403816 A    
C17   H36   1.078878 S    
O6    C10   1.401262 S    
O7    Ba1   3.014300 S    
C44   H57   1.107005 S    
C33   C34   1.401229 A    
P4    O13   1.562987 S    
C16   N6    1.450304 S    
N7    C49   1.408531 S    
C11   C12   1.535086 S    
C1    N3    1.434250 S    
P1    O5    1.745093 S    
C4    O15   1.389184 S    
C4    H7    1.105407 S    
C8    C9    1.536635 S    
P3    C34   1.865424 S    
C45   H60   1.100257 S    
C33   H38   1.074023 S    
C21   C22   1.409521 A    
O11   C2    1.400652 S    
N4    C44   1.447421 S    
C17   C25   1.417806 A    
P1    O2    1.563104 S    
C41   H45   1.097182 S    
P7    O22   1.751203 S    
C9    N2    1.452351 S    
P6    C20   1.847016 S    
O2    Ba1   3.063671 S    
C32   H41   1.081972 S    
C31   H40   1.081146 S    
C46   H63   1.104329 S    
C1    H3    1.096976 S    
C24   C26   1.439192 A    
C18   C19   1.404063 A    
N6    C48   1.445872 S    
C47   H67   1.095511 S    
P5    O18   1.534441 D    
C22   C30   1.414922 A    
O13   Ba2   3.064453 S    
C6    C7    1.519785 S    
C32   C34   1.403195 A    
C1    C10   1.535112 S    
O25   C45   1.403073 S    
C15   O24   1.401859 S    
O14   Ba2   2.822582 S    
C44   H56   1.106245 S    
C14   O26   1.407406 S    
P2    O7    1.547046 D    
O12   Ba2   2.916317 S    
C3    H6    1.097263 S    
O3    P6    1.762443 S    
C48   H69   1.109518 S    
N5    C47   1.435394 S    
C21   H33   1.082939 S    
C43   H53   1.107798 S    
P1    C18   1.873250 S    
C10   H20   1.104788 S    
N2    C42   1.439095 S    
C33   C37   1.409667 A    
P4    O12   1.554332 D    
O8    Ba1   2.853338 S    
C42   H48   1.105628 S    
C46   H61   1.109893 S    
Ba2   O20   2.877604 S    
N6    H68   1.027296 S    
P2    Ba1   3.606199 S    
C36   C40   1.420992 A    
O4    P6    1.538759 D    
C49   H75   1.096350 S    
O14   P8    1.781602 S    
C47   H66   1.104322 S    
C44   H55   1.092222 S    
N3    C43   1.431410 S    
C12   O25   1.411070 S    
C24   C30   1.405022 A    
N4    H54   1.024966 S    
N7    H72   1.019414 S    
C11   N4    1.457514 S    
Ba1   O13   2.783141 S    
O1    Ba1   2.915779 S    
O17   Ba2   2.853934 S    
P7    O21   1.580402 D    
P3    O8    1.770815 S    
C43   H51   1.094083 S    
C14   H27   1.098197 S    
C45   H58   1.108974 S    
P2    C35   1.923160 S    
C24   C25   1.420838 A    
C13   C14   1.531327 S    
C17   C23   1.409988 A    
Ba1   O20   3.046862 S    
C49   H74   1.100111 S    
C26   C27   1.395275 A    
N1    C41   1.437155 S    
O5    C6    1.400921 S    
C32   C35   1.403216 A    
C7    H14   1.093161 S    
O10   C8    1.393301 S    
C12   H22   1.103602 S    
C15   H29   1.097692 S    
C41   H44   1.100695 S    
C31   C39   1.396747 A    
C25   C29   1.404679 A    
H30   C16   1.108303 S    
P4    Ba2   3.559119 S    
C15   C16   1.556684 S    
C47   H65   1.039887 S    
C13   H26   1.104591 S    
C19   H32   1.082811 S    
P3    O9    1.539944 D    
C42   H49   1.106932 S    
C5    H9    1.104217 S    
N5    H64   1.028028 S    
C42   H47   1.107146 S    
C31   C38   1.391636 A    
N2    H46   1.028341 S    
C30   H37   1.071658 S    
C2    N7    1.418014 S    
O3    Ba1   2.823189 S    
P4    O15   1.722140 S    
P5    C39   1.868653 S    
