data_mof_unit_21514.cif
_audit_creation_date              2012-12-11T15:14:48-0500
_audit_creation_method            fapswitch 2.2
_symmetry_space_group_name_H-M    P1
_symmetry_Int_Tables_number       1
_space_group_crystal_system       triclinic
_cell_length_a                    22.24542
_cell_length_b                    7.230922
_cell_length_c                    19.28418
_cell_angle_alpha                 90.033667
_cell_angle_beta                  99.179611
_cell_angle_gamma                 89.97412
_cell_volume                      3062.22762163

loop_
_atom_site_label
_atom_site_type_symbol
_atom_type_description
_atom_site_fract_x
_atom_site_fract_y
_atom_site_fract_z
_atom_type_partial_charge
O1    O     O_R   0.448470 0.506130 0.415700 -0.528670
O2    O     O_R   0.551530 0.006130 0.584300 -0.528150
O3    O     O_R   0.436320 0.174490 0.555800 -0.528600
O4    O     O_R   0.563680 0.674490 0.444200 -0.526822
C1    C     C_R   0.421294 0.344414 0.575230 0.727716
C2    C     C_R   0.578712 0.844296 0.424767 0.727088
O5    O     O_R   0.441350 0.176340 0.414480 -0.529749
O6    O     O_R   0.558650 0.676340 0.585520 -0.529648
O7    O     O_R   0.556600 0.007100 0.441970 -0.518414
O8    O     O_R   0.443400 0.507100 0.558030 -0.519351
C3    C     C_R   0.427785 0.344692 0.388583 0.770878
C4    C     C_R   0.572211 0.844733 0.611418 0.769949
O9    O     O_3   0.537810 0.339550 0.509190 -0.380081
O10   O     O_3   0.462190 0.839550 0.490810 -0.381769
V1    V     V_3+5 0.492990 0.064280 0.498300 1.581683
V2    V     V_3+5 0.507010 0.564280 0.501700 1.584126
C5    C     C_R   0.866777 0.963717 0.695311 -0.160528
C6    C     C_R   0.133240 0.464878 0.304683 -0.164035
H1    H     H_    0.954458 0.991637 0.759155 0.112189
H2    H     H_    0.045559 0.492807 0.240835 0.107275
H3    H     H_    0.784145 0.950861 0.580207 0.118468
H4    H     H_    0.215893 0.452550 0.419779 0.118668
H5    H     H_    0.885260 0.984119 0.647166 0.115534
H6    H     H_    0.114772 0.485808 0.352819 0.114030
C7    C     C_R   0.884315 0.941102 0.822102 -0.037967
C8    C     C_R   0.115674 0.441279 0.177906 -0.035588
C9    C     C_R   0.587462 0.829720 0.742437 0.459352
C10   C     C_R   0.412496 0.328742 0.257570 0.460352
C11   C     C_R   0.625263 0.832266 0.807542 -0.165741
C12   C     C_R   0.374680 0.330984 0.192474 -0.168300
C13   C     C_R   0.687825 0.857593 0.812751 -0.245609
C14   C     C_R   0.312131 0.356704 0.187267 -0.246403
C15   C     C_R   0.715476 0.881891 0.752429 0.090010
C16   C     C_R   0.284505 0.381706 0.247582 0.089950
C17   C     C_R   0.677054 0.879652 0.685291 0.009324
C18   C     C_R   0.322942 0.379828 0.314713 0.009540
C19   C     C_R   0.779974 0.908656 0.756620 0.093654
C20   C     C_R   0.220015 0.408794 0.243390 0.093578
C21   C     C_R   0.804128 0.934530 0.693402 0.132710
C22   C     C_R   0.195882 0.435350 0.306597 0.134951
C23   C     C_R   0.765762 0.931634 0.628493 -0.195540
C24   C     C_R   0.234261 0.432803 0.371500 -0.197734
C25   C     C_R   0.703463 0.904227 0.624372 -0.160289
C26   C     C_R   0.296554 0.405084 0.375623 -0.162197
C27   C     C_R   0.821626 0.911332 0.821060 -0.211207
C28   C     C_R   0.178353 0.411148 0.178957 -0.212295
C29   C     C_R   0.906354 0.967851 0.759032 -0.161284
C30   C     C_R   0.093654 0.468706 0.240965 -0.166482
C31   C     C_R   0.612949 0.852333 0.680380 -0.225195
C32   C     C_R   0.387039 0.352127 0.319624 -0.225058
H7    H     H_    0.807023 0.892045 0.871212 0.096323
H8    H     H_    0.192941 0.391375 0.128812 0.095244
H9    H     H_    0.713284 0.857780 0.865148 0.137734
H10   H     H_    0.286662 0.356590 0.134875 0.137335
H11   H     H_    0.606281 0.813885 0.855374 0.186676
H12   H     H_    0.393638 0.312014 0.144646 0.187059
H13   H     H_    0.676067 0.903150 0.572661 0.087481
H14   H     H_    0.323960 0.404295 0.427329 0.086464
C33   C     C_3   0.777321 0.912201 0.316648 -0.250784
C34   C     C_3   0.222508 0.350494 0.685790 -0.183647
C35   C     C_3   0.776187 0.057970 0.258145 0.257790
C36   C     C_3   0.211078 0.524796 0.727836 0.254695
H15   H     H_    0.800583 0.928515 0.371669 0.124007
H16   H     H_    0.198753 0.316227 0.632254 0.124765
H17   H     H_    0.673419 0.146938 0.223918 0.152220
H18   H     H_    0.302549 0.696869 0.745062 0.129589
C37   C     C_1   0.874759 0.940209 0.120386 -0.179093
C38   C     C_1   0.125286 0.439729 0.879695 -0.179471
C39   C     C_1   0.624442 0.853962 0.378988 -0.075271
C40   C     C_1   0.375564 0.354410 0.620994 -0.077588
C41   C     C_3   0.791109 0.761016 0.263482 -0.167663
C42   C     C_3   0.221990 0.232920 0.753597 -0.234408
C43   C     C_3   0.790145 0.910940 0.205807 0.108187
C44   C     C_3   0.210033 0.410474 0.794431 0.109578
C45   C     C_3   0.722017 0.736212 0.240205 0.261039
C46   C     C_3   0.290842 0.269251 0.773956 0.261889
C47   C     C_3   0.708119 0.883262 0.292543 0.102828
C48   C     C_3   0.291821 0.383601 0.707368 0.103139
C49   C     C_3   0.720910 0.881986 0.181675 -0.229738
C50   C     C_3   0.279378 0.443570 0.816037 -0.163635
C51   C     C_3   0.707097 0.033152 0.234870 -0.136188
C52   C     C_3   0.279920 0.561121 0.748207 -0.211658
C53   C     C_1   0.836453 0.928383 0.158640 -0.015043
C54   C     C_1   0.163641 0.427690 0.841509 -0.020339
C55   C     C_1   0.662253 0.865793 0.340169 0.020294
C56   C     C_1   0.337738 0.366408 0.659790 0.012677
H19   H     H_    0.697620 0.865678 0.126668 0.138928
H20   H     H_    0.303163 0.477880 0.869553 0.137373
H21   H     H_    0.824733 0.647129 0.274498 0.139373
H22   H     H_    0.199445 0.097064 0.756742 0.120437
O11   O     O_R   0.056650 0.288730 0.942060 -0.533369
O12   O     O_R   0.943350 0.788730 0.057940 -0.533098
O13   O     O_R   0.058660 0.616870 0.085540 -0.535982
O14   O     O_R   0.941340 0.116870 0.914460 -0.535343
C57   C     C_R   0.072862 0.448682 0.110988 0.681452
C58   C     C_R   0.927130 0.948644 0.889018 0.683689
O15   O     O_R   0.063700 0.618520 0.944220 -0.534735
O16   O     O_R   0.936300 0.118520 0.055780 -0.533157
O17   O     O_R   0.948460 0.787610 0.915680 -0.532434
O18   O     O_R   0.051540 0.287610 0.084320 -0.533359
C59   C     C_R   0.078996 0.449923 0.924842 0.712304
C60   C     C_R   0.921010 0.950047 0.075175 0.710434
O19   O     O_3   0.962230 0.453430 0.990860 -0.372269
O20   O     O_3   0.037770 0.953430 0.009140 -0.373972
V3    V     V_3+5 0.007010 0.728750 0.001700 1.430711
V4    V     V_3+5 0.992990 0.228750 0.998300 1.433507
N1    N     N_3   0.691899 0.557154 0.230976 -0.648081
H23   H     H_    0.708640 0.489187 0.190181 0.237708
H24   H     H_    0.645641 0.581555 0.213612 0.254315
N2    N     N_3   0.335740 0.128336 0.799383 -0.609338
H25   H     H_    0.321212 0.063504 0.842208 0.220928
H26   H     H_    0.334399 0.028696 0.759911 0.232493
S1    S     S_3+6 0.508259 0.795458 0.740521 -0.000373
O21   O     O_2   0.472953 0.940185 0.695130 -0.341469
O22   O     O_2   0.491229 0.607405 0.710522 -0.339171
O23   O     O_3   0.490498 0.808407 0.821972 -0.497391
H27   H     H_    0.445934 0.787706 0.815748 0.369305
S2    S     S_3+6 0.491671 0.293784 0.259464 -0.009839
O24   O     O_2   0.527096 0.438278 0.304881 -0.342214
O25   O     O_2   0.508571 0.105631 0.289402 -0.342784
O26   O     O_3   0.509400 0.306396 0.177998 -0.506168
H28   H     H_    0.553901 0.284470 0.184149 0.359332
N3    N     N_3   0.806196 0.237137 0.267469 -0.666752
H29   H     H_    0.789014 0.305423 0.307893 0.241039
H30   H     H_    0.852362 0.212888 0.285445 0.218749
N4    N     N_3   0.166295 0.665871 0.702301 -0.662046
H31   H     H_    0.180723 0.729585 0.659193 0.221525
H32   H     H_    0.168016 0.766250 0.741552 0.218931

loop_
_geom_bond_atom_site_label_1
_geom_bond_atom_site_label_2
_ccdc_geom_bond_type
C2    C39   S    
C41   C45   S    
C37   C53   T    
N4    H31   S    
C9    C11   A    
C23   C25   A    
O1    C3    A    
C42   C46   S    
O2    C4    A    
C33   C47   S    
C2    O7    A    
C49   H19   S    
C4    C31   S    
O3    V1    S    
N3    H29   S    
C21   C23   A    
C45   N1    S    
C34   C48   S    
C5    H5    S    
C6    H6    S    
C46   C48   S    
H1    C29   S    
N3    H30   S    
C34   C42   S    
C58   O17   A    
C28   H8    S    
O23   H27   S    
C34   C36   S    
C5    C21   A    
C6    C22   A    
N2    H25   S    
O13   V3    S    
S2    O24   D    
C10   C32   A    
C26   H14   S    
C17   C31   A    
N1    H23   S    
C13   C15   A    
C12   C14   A    
C17   C25   A    
C7    C29   A    
C8    C30   A    
S1    O23   S    
O15   V3    S    
C48   C56   S    
C22   C24   A    
C36   C52   S    
C47   C55   S    
O13   C57   A    
C44   C50   S    
C11   C13   A    
N1    H24   S    
O11   V4    S    
C24   C26   A    
O11   C59   A    
C14   H10   S    
O20   V3    S    
S2    O25   D    
O17   V3    S    
C33   C35   S    
C38   C54   T    
C46   C50   S    
C38   C59   S    
C42   C44   S    
C49   C51   S    
C25   H13   S    
C57   O18   A    
C11   H11   S    
C35   C43   S    
O16   C60   A    
C12   H12   S    
C15   C19   A    
S2    O26   S    
C14   C16   A    
O4    V2    S    
O5    C3    A    
C1    C40   S    
C39   C55   T    
H18   C52   S    
C42   H22   S    
C48   C52   S    
H17   C51   S    
C41   H21   S    
C47   C51   S    
O6    C4    A    
C43   C49   S    
O1    V2    S    
C13   H9    S    
O14   C58   A    
O2    V1    S    
C45   C47   S    
O26   H28   S    
H2    C30   S    
H3    C23   S    
C9    S1    S    
C50   C52   S    
C18   C26   A    
O4    C2    A    
C19   C27   A    
C40   C56   T    
C7    C27   A    
C18   C32   A    
C36   N4    S    
S1    O21   D    
C8    C57   S    
O14   V4    S    
N4    H32   S    
C16   C20   A    
C33   H15   S    
C5    C29   A    
C44   C54   S    
O3    C1    A    
C6    C30   A    
O12   C60   A    
O18   V4    S    
O16   V4    S    
C46   N2    S    
C34   H16   S    
C35   N3    S    
C10   C12   A    
O7    V1    S    
C1    O8    A    
C50   H20   S    
C3    C32   S    
C35   C51   S    
C20   C22   A    
H4    C24   S    
O5    V1    S    
C15   C17   A    
O19   V4    S    
C16   C18   A    
N2    H26   S    
C20   C28   A    
C8    C28   A    
O12   V3    S    
C19   C21   A    
C7    C58   S    
O6    V2    S    
O9    V2    S    
C41   C43   S    
C10   S2    S    
C27   H7    S    
O10   V1    S    
C36   C44   S    
O8    V2    S    
C45   C49   S    
C43   C53   S    
O15   C59   A    
C9    C31   A    
C37   C60   S    
C33   C41   S    
S1    O22   D    
