data_mof_unit_40807.cif
_audit_creation_date              2012-12-11T16:53:34-0500
_audit_creation_method            fapswitch 2.2
_symmetry_space_group_name_H-M    P1
_symmetry_Int_Tables_number       1
_space_group_crystal_system       triclinic
_cell_length_a                    14.976919
_cell_length_b                    14.780338
_cell_length_c                    16.943284
_cell_angle_alpha                 108.401418
_cell_angle_beta                  106.65057
_cell_angle_gamma                 108.38326
_cell_volume                      3051.03783822

loop_
_atom_site_label
_atom_site_type_symbol
_atom_type_description
_atom_site_fract_x
_atom_site_fract_y
_atom_site_fract_z
_atom_type_partial_charge
C1    C     C_R   0.088247 0.284035 0.073293 -0.096744
C2    C     C_R   0.026380 0.598269 0.754655 0.111027
C3    C     C_R   0.765232 0.196556 0.727056 -0.009940
C4    C     C_R   0.330338 0.507245 0.005095 -0.002770
C5    C     C_R   0.270496 0.690223 0.254616 -0.081037
C6    C     C_R   0.704031 0.496625 0.913624 -0.092842
C7    C     C_R   0.892433 0.442499 0.190722 0.451703
C8    C     C_R   0.083016 0.806131 0.017621 -0.119961
C9    C     C_R   0.911012 0.721525 0.940155 -0.041992
C10   C     C_R   0.065274 0.540649 0.265735 -0.056074
C11   C     C_R   0.273687 0.790590 0.181276 -0.079154
C12   C     C_R   0.935823 0.530939 0.752397 -0.144960
C13   C     C_R   0.696941 0.402466 0.991796 -0.041150
C14   C     C_R   0.326527 0.789490 0.263062 0.095387
C15   C     C_R   0.637895 0.432756 0.936426 0.018545
C16   C     C_R   0.975027 0.509883 0.278462 0.009751
C17   C     C_R   0.996285 0.820842 0.979459 0.098014
C18   C     C_R   0.411503 0.483378 0.893888 0.024917
C19   C     C_R   0.386431 0.460209 0.961226 0.077463
C20   C     C_R   0.408052 0.380489 0.978626 -0.162878
C21   C     C_R   0.476538 0.349472 0.949935 -0.113046
C22   C     C_R   0.527099 0.402149 0.907817 0.032569
C23   C     C_R   0.771964 0.200798 0.812254 0.423844
C24   C     C_R   0.479597 0.452905 0.865632 0.082566
C25   C     C_3   0.520809 0.549713 0.850785 0.270649
C26   C     C_3   0.447556 0.583128 0.882927 -0.380952
C27   C     C_R   0.970131 0.548088 0.367938 -0.004807
C28   C     C_R   0.034368 0.650493 0.694137 -0.066250
C29   C     C_R   0.142869 0.703573 0.619846 0.460527
C30   C     C_R   0.131919 0.713542 0.700973 0.332081
C31   C     C_R   0.945019 0.616347 0.615026 -0.225609
C32   C     C_R   0.954752 0.611578 0.534869 0.082045
C33   C     C_R   0.053896 0.638300 0.535048 -0.227046
C34   C     C_R   0.287891 0.570830 0.980407 0.413605
C35   C     C_R   0.059476 0.592199 0.451783 0.500242
C36   C     C_R   0.876287 0.545300 0.370570 -0.155003
C37   C     C_R   0.866754 0.569732 0.452917 -0.120521
C38   C     C_R   0.727937 0.102056 0.640624 0.059381
C39   C     C_R   0.431515 0.866157 0.335602 -0.044338
C40   C     C_R   0.587996 0.029204 0.395603 -0.130289
C41   C     C_R   0.493855 0.949469 0.323391 -0.159475
C42   C     C_R   0.470059 0.857977 0.418523 0.437907
C43   C     C_R   0.573381 0.926171 0.482528 -0.138693
C44   C     C_R   0.625063 0.020422 0.477010 0.074979
C45   C     C_R   0.789569 0.299192 0.736476 -0.172039
C46   C     C_R   0.703344 0.109146 0.557153 -0.195268
C47   C     C_R   0.701731 0.001311 0.638238 -0.193575
C48   C     C_R   0.622290 0.912328 0.559329 0.549136
C49   C     C_R   0.077826 0.138683 0.167838 -0.088940
C50   C     C_R   0.998284 0.110966 0.083610 -0.092743
C51   C     C_R   0.911927 0.008350 0.041102 0.346206
C52   C     C_R   0.899656 0.947945 0.091252 0.352099
C53   C     C_R   0.975814 0.984828 0.179898 0.055510
C54   C     C_R   0.068365 0.075043 0.213018 -0.041149
C55   C     C_3   0.127676 0.167590 0.305986 -0.419528
C56   C     C_R   0.277232 0.464638 0.050286 -0.189102
C57   C     C_3   0.135725 0.238363 0.257204 0.407512
C58   C     C_R   0.107527 0.609156 0.826795 -0.069787
C59   C     C_R   0.916358 0.202453 0.001925 0.022581
C60   C     C_R   0.001872 0.190115 0.046282 0.128757
H1    H     H_    0.166309 0.310271 0.122831 0.104795
H2    H     H_    0.682717 0.515954 0.856904 0.129221
H3    H     H_    0.831439 0.700981 0.898077 0.165502
H4    H     H_    0.143290 0.596555 0.316602 0.192416
H5    H     H_    0.301779 0.848131 0.156906 0.126620
H6    H     H_    0.666628 0.336950 0.006938 0.175513
H7    H     H_    0.381005 0.348879 0.021271 0.136719
H8    H     H_    0.501564 0.298601 0.974668 0.157695
H9    H     H_    0.602770 0.608856 0.898069 0.132256
H10   H     H_    0.857372 0.515089 0.712114 0.113976
H11   H     H_    0.385250 0.584726 0.829386 0.259088
H12   H     H_    0.808537 0.519620 0.308884 0.187932
H13   H     H_    0.790969 0.555138 0.452477 0.151791
H14   H     H_    0.868000 0.580612 0.611588 0.153358
H15   H     H_    0.733606 0.184955 0.555449 0.131716
H16   H     H_    0.736502 0.992053 0.698675 0.219158
H17   H     H_    0.629525 0.099263 0.389178 0.149551
H18   H     H_    0.467222 0.957774 0.260854 0.159948
H19   H     H_    0.079932 0.173170 0.345309 0.237402
H20   H     H_    0.203986 0.171609 0.343979 0.176864
H21   H     H_    0.216858 0.286751 0.270249 0.075065
H22   H     H_    0.290739 0.414713 0.082341 0.124769
H23   H     H_    0.188557 0.660972 0.853456 0.214763
H24   H     H_    0.839002 0.158928 0.994035 0.210449
H25   H     H_    0.297922 0.650610 0.292655 0.169513
N1    N     N_R   0.055640 0.348550 0.045600 -0.055162
N2    N     N_R   0.798340 0.505430 0.954400 -0.049731
N3    N     N_R   0.931580 0.439470 0.128350 -0.090592
N4    N     N_R   0.051950 0.704140 0.002340 -0.048396
N5    N     N_R   0.944360 0.651450 0.954400 -0.062160
N6    N     N_R   0.039170 0.492150 0.176290 -0.072088
N7    N     N_R   0.188710 0.696600 0.128350 -0.047011
N8    N     N_R   0.794820 0.447010 0.002340 -0.057107
N9    N     N_R   0.960830 0.507850 0.823710 -0.052642
N10   N     N_R   0.811290 0.303400 0.871650 -0.087926
N11   N     N_R   0.205180 0.552990 0.997660 -0.078649
N12   N     N_R   0.814810 0.361830 0.823710 -0.066717
N13   N     N_R   0.201660 0.494570 0.045600 -0.063682
N14   N     N_R   0.068420 0.560530 0.871650 -0.059670
N15   N     N_R   0.948050 0.295860 0.997660 -0.080104
N16   N     N_R   0.185190 0.638170 0.176290 -0.066111
Ni1   Ni    Ni4+2 0.119330 0.493420 0.109950 0.238831
Ni2   Ni    Ni4+2 0.880670 0.506580 0.890050 0.221781
Ni3   Ni    Ni4+2 0.872590 0.372590 0.000000 0.286931
Ni4   Ni    Ni4+2 0.127410 0.627410 0.000000 0.269465
Cl1   Cl    Cl    0.769546 0.348269 0.166415 -0.651719
H26   H     H_    0.163367 0.864415 0.047569 0.133359
Cl2   Cl    Cl    0.487614 0.515596 0.731889 -0.503004
H27   H     H_    0.493749 0.656168 0.949532 0.246577
Cl3   Cl    Cl    0.164291 0.558979 0.456510 -0.464704
Cl4   Cl    Cl    0.264272 0.780894 0.625856 -0.355816
Cl5   Cl    Cl    0.235955 0.811938 0.808195 -0.514289
Cl6   Cl    Cl    0.697362 0.096881 0.829828 -0.544481
Cl7   Cl    Cl    0.588685 0.786763 0.559415 -0.457246
Cl8   Cl    Cl    0.383633 0.796260 0.459561 -0.494481
Cl9   Cl    Cl    0.818756 0.953810 0.926499 -0.500225
Cl10  Cl    Cl    0.785361 0.830417 0.048390 -0.587052
Cl11  Cl    Cl    0.062189 0.311412 0.273528 -0.573927
Cl12  Cl    Cl    0.358283 0.699118 0.994306 -0.660282
H28   H     H_    0.791242 0.326839 0.684917 0.130610

loop_
_geom_bond_atom_site_label_1
_geom_bond_atom_site_label_2
_ccdc_geom_bond_type
N11   Ni4   S    
N16   Ni1   S    
C59   N15   A    
C20   H7    S    
C3    C23   A    
C19   C20   A    
C18   C26   S    
C56   N13   A    
C2    C12   A    
C39   C41   A    
C53   C54   A    
C52   C53   A    
C18   C24   A    
C36   C37   A    
C34   N11   A    
C47   H16   S    
C11   C14   A    
C49   C54   A    
C29   C33   A    
N15   Ni3   S    
C49   C57   S    
C18   C19   A    
C7    N3    A    
C12   H10   S    
C14   C39   S    
C4    C19   S    
C11   N7    A    
C15   C22   S    
C47   C48   A    
C3    C38   S    
N11   N13   A    
N1    N15   A    
C43   C48   A    
C13   N8    A    
C5    H25   S    
C52   Cl10  S    
C16   C27   S    
C6    C15   A    
C59   C60   A    
C21   C22   A    
C4    C56   A    
C26   H11   S    
C12   N9    A    
N8    Ni3   S    
C46   H15   S    
N3    Ni3   S    
C44   C46   A    
C39   C42   A    
C5    N16   A    
C13   H6    S    
N14   Ni4   S    
C4    C34   A    
C51   C52   A    
C24   C25   S    
C1    C60   A    
C41   H18   S    
C10   C16   A    
C31   H14   S    
C27   C35   A    
C25   C26   S    
N13   Ni1   S    
C3    C45   A    
C6    N2    A    
C30   Cl5   S    
C43   C44   A    
C29   C30   A    
C23   Cl6   S    
C55   H19   S    
C42   Cl8   S    
C31   C32   A    
N3    N6    A    
C40   C44   A    
C2    C58   A    
C50   C51   A    
C5    C14   A    
C7    Cl1   S    
C32   C37   A    
C59   H24   S    
C26   H27   S    
C38   C47   A    
N12   Ni2   S    
C35   Cl3   S    
N7    N16   A    
N2    Ni2   S    
C45   H28   S    
C9    C17   A    
C7    C16   A    
N9    Ni2   S    
C55   C57   S    
C21   H8    S    
C22   C24   A    
C25   H9    S    
C42   C43   A    
N6    Ni1   S    
N1    Ni1   S    
C8    H26   S    
N10   Ni3   S    
C48   Cl7   S    
C34   Cl12  S    
C37   H13   S    
C54   C55   S    
C40   C41   A    
C9    H3    S    
C29   Cl4   S    
C28   C31   A    
C10   H4    S    
C58   N14   A    
C51   Cl9   S    
C1    H1    S    
C9    N5    A    
C10   N6    A    
N10   N12   A    
C56   H22   S    
C27   C36   A    
C8    C17   A    
C50   C60   S    
C32   C33   A    
C6    H2    S    
C13   C15   A    
C45   N12   A    
C58   H23   S    
C55   H20   S    
N9    N14   A    
N2    N8    A    
C28   C30   A    
C33   C35   A    
C23   N10   A    
C57   H21   S    
N5    Ni2   S    
C38   C46   A    
C11   H5    S    
N7    Ni4   S    
C1    N1    A    
C20   C21   A    
C49   C50   A    
N4    Ni4   S    
C40   H17   S    
C2    C28   S    
C8    N4    A    
N4    N5    A    
C36   H12   S    
C25   Cl2   S    
C57   Cl11  S    
