data_mof_unit_57121.cif
_audit_creation_date              2012-12-11T14:01:08-0500
_audit_creation_method            fapswitch 2.2
_symmetry_space_group_name_H-M    P1
_symmetry_Int_Tables_number       1
_space_group_crystal_system       triclinic
_cell_length_a                    18.922984
_cell_length_b                    10.944876
_cell_length_c                    18.735574
_cell_angle_alpha                 89.92298
_cell_angle_beta                  90.211719
_cell_angle_gamma                 90.255216
_cell_volume                      3880.25095467

loop_
_atom_site_label
_atom_site_type_symbol
_atom_type_description
_atom_site_fract_x
_atom_site_fract_y
_atom_site_fract_z
_atom_type_partial_charge
C1    C     C_R   0.291317 0.993875 0.860386 0.542741
C2    C     C_R   0.706158 0.987971 0.141559 0.560262
C3    C     C_R   0.793727 0.487855 0.858589 0.559303
C4    C     C_R   0.206641 0.489546 0.141189 0.538755
C5    C     C_R   0.478239 0.054599 0.071682 0.258025
C6    C     C_R   0.522292 0.054932 0.928059 0.262584
C7    C     C_R   0.977095 0.552843 0.071276 0.261369
C8    C     C_R   0.021198 0.556444 0.927680 0.264069
C9    C     C_R   0.985425 0.664101 0.034676 -0.130825
C10   C     C_R   0.010163 0.666004 0.964919 -0.124673
C11   C     C_R   0.487992 0.165122 0.034688 -0.135599
C12   C     C_R   0.512700 0.165301 0.964916 -0.131426
C13   C     C_2   0.250404 0.604904 0.927238 0.244028
C14   C     C_2   0.752629 0.596742 0.074299 0.247574
C15   C     C_2   0.747233 0.096621 0.925733 0.248387
C16   C     C_2   0.237800 0.144711 0.065776 0.238938
C17   C     C_2   0.213129 0.491682 0.064141 -0.048623
C18   C     C_2   0.788554 0.484829 0.936043 -0.045496
C19   C     C_2   0.710915 0.984433 0.064091 -0.047854
C20   C     C_2   0.278388 0.011266 0.935932 -0.047131
C21   C     C_2   0.275867 0.480689 0.031339 -0.078118
C22   C     C_2   0.726474 0.469725 0.970135 -0.090988
C23   C     C_2   0.772723 0.968832 0.029760 -0.089834
C24   C     C_2   0.212611 0.013046 0.963146 -0.108387
C25   C     C_2   0.283226 0.507837 0.955081 -0.075240
C26   C     C_2   0.718330 0.500456 0.046335 -0.077356
C27   C     C_2   0.780797 0.999806 0.953528 -0.078027
C28   C     C_2   0.199277 0.054465 0.036314 -0.075034
C29   C     C_2   0.518714 0.837840 0.587797 -0.101260
C30   C     C_2   0.547494 0.829780 0.434695 -0.098255
C31   C     C_2   0.018716 0.337840 0.587798 -0.101287
C32   C     C_2   0.047496 0.329780 0.434695 -0.098927
C33   C     C_2   0.568004 0.742281 0.480129 -0.170034
C34   C     C_2   0.543932 0.739013 0.554303 -0.151945
C35   C     C_2   0.068003 0.242281 0.480129 -0.170043
C36   C     C_2   0.043932 0.239014 0.554304 -0.151919
C37   C     C_2   0.254806 0.613637 0.569160 -0.112683
C38   C     C_2   0.744960 0.613754 0.431027 -0.125156
C39   C     C_2   0.754807 0.113642 0.569159 -0.112476
C40   C     C_2   0.244957 0.113763 0.431030 -0.127137
C41   C     C_2   0.257854 0.604375 0.414246 -0.031311
C42   C     C_2   0.741940 0.605023 0.586007 -0.034182
C43   C     C_2   0.757856 0.104378 0.414245 -0.031807
C44   C     C_2   0.241937 0.105030 0.586011 -0.034463
C45   C     C_R   0.472292 0.822250 0.853006 0.582997
C46   C     C_R   0.527722 0.822073 0.146979 0.594651
C47   C     C_R   0.972700 0.322400 0.852665 0.579606
C48   C     C_R   0.028197 0.321910 0.146603 0.588900
C49   C     C_2   0.223339 0.691259 0.449651 0.207667
C50   C     C_2   0.776639 0.692018 0.550357 0.211710
C51   C     C_2   0.723343 0.191266 0.449648 0.207218
C52   C     C_2   0.276635 0.192027 0.550361 0.212283
C53   C     C_2   0.238212 0.707691 0.525655 -0.156975
C54   C     C_2   0.761680 0.708139 0.474318 -0.163362
C55   C     C_2   0.738213 0.207697 0.525654 -0.156678
C56   C     C_2   0.261677 0.208147 0.474321 -0.164614
C57   C     C_R   0.261529 0.641063 0.853204 0.550304
C58   C     C_R   0.739138 0.638745 0.147315 0.554120
C59   C     C_R   0.760815 0.138854 0.852684 0.550441
C60   C     C_R   0.227097 0.181473 0.140138 0.535672
C61   C     C_R   0.270641 0.049052 0.649757 0.588512
C62   C     C_R   0.729277 0.048670 0.350356 0.579328
C63   C     C_R   0.770643 0.549047 0.649755 0.588485
C64   C     C_R   0.229277 0.548668 0.350357 0.581836
C65   C     C_R   0.473103 0.824368 0.649637 0.560834
C66   C     C_R   0.563688 0.819672 0.359601 0.564441
C67   C     C_R   0.973105 0.324368 0.649638 0.561003
C68   C     C_R   0.063688 0.319672 0.359601 0.564435
C69   C     C_R   0.261264 0.640889 0.644158 0.574463
C70   C     C_R   0.738671 0.640656 0.355917 0.568572
C71   C     C_R   0.761265 0.140891 0.644157 0.573971
C72   C     C_R   0.238669 0.140661 0.355917 0.578188
C73   C     C_R   0.498100 0.829792 0.074638 0.035109
C74   C     C_R   0.501997 0.830018 0.925309 0.035253
C75   C     C_R   0.000392 0.328955 0.073510 0.032799
C76   C     C_R   0.004143 0.330882 0.924188 0.036747
C77   C     C_R   0.494039 0.942701 0.037277 0.002490
C78   C     C_R   0.506274 0.942844 0.962581 0.004795
C79   C     C_R   0.994604 0.442004 0.036554 0.001445
C80   C     C_R   0.006831 0.443425 0.961867 0.002148
C81   C     C_R   0.501685 0.720151 0.963570 -0.168528
C82   C     C_R   0.498236 0.720035 0.036446 -0.168256
C83   C     C_R   0.006995 0.220782 0.961898 -0.169846
C84   C     C_R   0.003733 0.219707 0.034793 -0.174757
Cr1   Cr    Cr6+3 0.230530 0.836340 0.748870 1.014064
Cr2   Cr    Cr6+3 0.769470 0.836340 0.251130 1.015101
Cr3   Cr    Cr6+3 0.730530 0.336340 0.748870 1.012907
Cr4   Cr    Cr6+3 0.269470 0.336340 0.251130 1.014533
Cr5   Cr    Cr6+3 0.387420 0.989430 0.750820 1.079590
Cr6   Cr    Cr6+3 0.612580 0.989430 0.249180 1.078993
Cr7   Cr    Cr6+3 0.887420 0.489430 0.750820 1.077172
Cr8   Cr    Cr6+3 0.112580 0.489430 0.249180 1.077191
Cr9   Cr    Cr6+3 0.385640 0.677860 0.749230 1.033476
Cr10  Cr    Cr6+3 0.614360 0.677860 0.250770 1.029934
Cr11  Cr    Cr6+3 0.885640 0.177860 0.749230 1.032135
Cr12  Cr    Cr6+3 0.114360 0.177860 0.250770 1.030994
H1    H     H_    0.500230 0.632147 0.937129 0.146670
H2    H     H_    0.499513 0.631974 0.062947 0.146769
H3    H     H_    0.007496 0.133199 0.934964 0.144557
H4    H     H_    0.007176 0.131436 0.060828 0.145572
H5    H     H_    0.264269 0.521541 0.550142 0.089662
H6    H     H_    0.735236 0.521677 0.450315 0.093220
H7    H     H_    0.764272 0.021546 0.550140 0.089632
H8    H     H_    0.235230 0.021688 0.450319 0.093776
H9    H     H_    0.973636 0.749951 0.060625 0.098393
H10   H     H_    0.019665 0.753382 0.939426 0.101096
H11   H     H_    0.477428 0.251702 0.060363 0.098636
H12   H     H_    0.523409 0.252021 0.939142 0.098072
H13   H     H_    0.323736 0.460336 0.061061 0.124156
H14   H     H_    0.678774 0.445685 0.940927 0.122929
H15   H     H_    0.820375 0.944569 0.058805 0.125052
H16   H     H_    0.166942 0.988034 0.930985 0.125497
H17   H     H_    0.517463 0.908585 0.451774 0.121480
H18   H     H_    0.525923 0.929100 0.566304 0.112869
H19   H     H_    0.017467 0.408587 0.451775 0.121226
H20   H     H_    0.025927 0.429098 0.566306 0.112940
O1    O     O_R   0.215090 0.709860 0.828130 -0.527102
O2    O     O_R   0.784910 0.709860 0.171870 -0.533635
O3    O     O_R   0.715090 0.209860 0.828130 -0.535030
O4    O     O_R   0.284910 0.209860 0.171870 -0.514723
O5    O     O_R   0.445660 0.919250 0.676780 -0.487697
O6    O     O_R   0.554340 0.919250 0.323220 -0.480333
O7    O     O_R   0.945660 0.419250 0.676780 -0.487402
O8    O     O_R   0.054340 0.419250 0.323220 -0.479785
O9    O     O_R   0.456260 0.718170 0.670000 -0.510132
O10   O     O_R   0.543740 0.718170 0.330000 -0.491763
O11   O     O_R   0.956260 0.218170 0.670000 -0.510222
O12   O     O_R   0.043740 0.218170 0.330000 -0.491222
O13   O     O_R   0.320940 0.626760 0.674370 -0.476991
O14   O     O_R   0.679060 0.626760 0.325630 -0.502263
O15   O     O_R   0.820940 0.126760 0.674370 -0.477065
O16   O     O_R   0.179060 0.126760 0.325630 -0.496603
O17   O     O_3   0.334530 0.834540 0.749640 -0.289435
O18   O     O_3   0.665470 0.834540 0.250360 -0.319294
O19   O     O_3   0.834530 0.334540 0.749640 -0.293420
O20   O     O_3   0.165470 0.334540 0.250360 -0.334277
O21   O     O_R   0.236990 0.958390 0.823710 -0.509441
O22   O     O_R   0.763010 0.958390 0.176290 -0.502091
O23   O     O_R   0.736990 0.458390 0.823710 -0.506757
O24   O     O_R   0.263010 0.458390 0.176290 -0.512051
O25   O     O_R   0.332380 0.074750 0.830850 -0.485968
O26   O     O_R   0.667620 0.074750 0.169150 -0.485796
O27   O     O_R   0.832380 0.574750 0.830850 -0.488685
O28   O     O_R   0.167620 0.574750 0.169150 -0.476514
O29   O     O_R   0.445800 0.917770 0.825070 -0.471582
O30   O     O_R   0.554200 0.917770 0.174930 -0.469914
O31   O     O_R   0.945800 0.417770 0.825070 -0.476141
O32   O     O_R   0.054200 0.417770 0.174930 -0.469915
O33   O     O_R   0.456410 0.716580 0.829970 -0.536148
O34   O     O_R   0.543590 0.716580 0.170030 -0.529885
O35   O     O_R   0.956410 0.216580 0.829970 -0.535205
O36   O     O_R   0.043590 0.216580 0.170030 -0.538199
O37   O     O_R   0.321080 0.625290 0.822650 -0.516099
O38   O     O_R   0.678920 0.625290 0.177350 -0.513299
O39   O     O_R   0.821080 0.125290 0.822650 -0.513810
O40   O     O_R   0.178920 0.125290 0.177350 -0.504259
O41   O     O_R   0.214930 0.711450 0.668160 -0.506868
O42   O     O_R   0.785070 0.711450 0.331840 -0.498489
O43   O     O_R   0.714930 0.211450 0.668160 -0.507169
O44   O     O_R   0.285070 0.211450 0.331840 -0.494551
O45   O     O_R   0.236850 0.959870 0.675420 -0.524241
O46   O     O_R   0.763150 0.959870 0.324580 -0.523922
O47   O     O_R   0.736850 0.459870 0.675420 -0.524478
O48   O     O_R   0.263150 0.459870 0.324580 -0.523879
O49   O     O_R   0.332230 0.076350 0.670880 -0.434831
O50   O     O_R   0.667770 0.076350 0.329120 -0.443304
O51   O     O_R   0.832230 0.576350 0.670880 -0.435482
O52   O     O_R   0.167770 0.576350 0.329120 -0.441121
O53   O     O_3   0.171803 0.760121 0.416091 -0.659532
H21   H     H_    0.151144 0.816715 0.451571 0.315433
O54   O     O_3   0.828598 0.760956 0.583631 -0.663681
H22   H     H_    0.849331 0.817657 0.547993 0.318787
O55   O     O_3   0.671812 0.260135 0.416085 -0.661354
H23   H     H_    0.651154 0.316734 0.451563 0.315499
O56   O     O_3   0.328593 0.260965 0.583635 -0.663552
H24   H     H_    0.349326 0.317667 0.547998 0.318853
H25   H     H_    0.229287 0.798395 0.547476 0.135243
H26   H     H_    0.770709 0.798881 0.452274 0.134123
H27   H     H_    0.729287 0.298400 0.547475 0.135312
H28   H     H_    0.270709 0.298888 0.452276 0.133455
H29   H     H_    0.303717 0.560490 0.438047 0.049754
H30   H     H_    0.695766 0.561125 0.562430 0.032993
H31   H     H_    0.803717 0.060489 0.438047 0.050065
H32   H     H_    0.195763 0.061132 0.562434 0.032945
O57   O     O_3   0.448753 0.053609 0.139078 -0.660313
H33   H     H_    0.439926 0.138840 0.154475 0.326786
O58   O     O_3   0.551798 0.054299 0.860672 -0.674451
H34   H     H_    0.560848 0.139628 0.845202 0.323326
O59   O     O_3   0.947382 0.549976 0.138552 -0.667033
H35   H     H_    0.937258 0.634643 0.154165 0.325601
O60   O     O_3   0.050534 0.557627 0.860215 -0.671027
H36   H     H_    0.058385 0.643435 0.844996 0.325079
H37   H     H_    0.320225 0.454974 0.923601 0.115593
H38   H     H_    0.678965 0.451429 0.077389 0.109125
H39   H     H_    0.819619 0.950541 0.922307 0.109062
H40   H     H_    0.155959 0.011940 0.065144 0.110646
H41   H     H_    0.165028 0.507612 0.033724 0.153886
H42   H     H_    0.837162 0.501184 0.965557 0.155638
H43   H     H_    0.662316 0.001102 0.034737 0.154709
H44   H     H_    0.324515 0.027611 0.969252 0.160002
O61   O     O_3   0.211170 0.680208 0.971701 -0.717324
H45   H     H_    0.196376 0.755143 0.946291 0.335007
O62   O     O_3   0.795456 0.667321 0.030196 -0.726759
H46   H     H_    0.822531 0.728455 0.057861 0.333938
O63   O     O_3   0.705121 0.167344 0.969992 -0.724930
H47   H     H_    0.678629 0.229108 0.942452 0.334961
O64   O     O_3   0.286574 0.207141 0.024296 -0.731830
H48   H     H_    0.320349 0.251128 0.055461 0.328160
H49   H     H_    0.596365 0.663187 0.460403 0.142825
H50   H     H_    0.540472 0.649316 0.578990 0.158411
H51   H     H_    0.096362 0.163185 0.460403 0.142529
H52   H     H_    0.040470 0.149318 0.578989 0.158295

loop_
_geom_bond_atom_site_label_1
_geom_bond_atom_site_label_2
_ccdc_geom_bond_type
C16   C28   D    
Cr3   O47   S    
O54   H22   S    
C38   C70   S    
C37   C69   S    
Cr8   O32   S    
Cr1   O45   S    
O53   H21   S    
C31   H20   S    
Cr9   O33   S    
C35   C36   S    
C24   H16   S    
C5    O57   S    
C64   O48   A    
C16   O64   S    
C41   H29   S    
C68   O8    A    
Cr7   O31   S    
C81   C82   A    
C25   H37   S    
Cr12  O20   S    
Cr11  O11   S    
Cr12  O40   S    
C77   C78   A    
C42   H30   S    
C63   O47   A    
Cr10  O14   S    
Cr5   O5    S    
C37   H5    S    
C45   O29   A    
Cr7   O51   S    
C47   C76   S    
C5    C11   A    
Cr9   O17   S    
Cr8   O8    S    
C16   C60   S    
Cr6   O18   S    
Cr5   O25   S    
C75   C84   A    
C6    C78   A    
C13   C57   S    
C8    O60   S    
C9    H9    S    
Cr12  O36   S    
C48   O32   A    
C70   O14   A    
Cr12  O12   S    
C3    C18   S    
O61   H45   S    
C51   O55   S    
C58   O2    A    
C35   H51   S    
C20   H44   S    
C21   C25   S    
C34   H50   S    
C29   H18   S    
C28   H40   S    
C33   H49   S    
Cr2   O18   S    
Cr6   O6    S    
O56   H24   S    
Cr3   O43   S    
C22   H14   S    
C18   H42   S    
C69   O41   A    
C76   C80   A    
C66   O6    A    
C17   H41   S    
C50   O54   S    
Cr2   O46   S    
C65   O5    A    
Cr4   O4    S    
C58   O38   A    
C9    C10   A    
C44   H32   S    
Cr11  O39   S    
Cr12  O16   S    
C37   C53   D    
C62   O46   A    
C44   C52   D    
C63   O51   A    
C83   H3    S    
Cr6   O50   S    
Cr11  O15   S    
C82   H2    S    
C48   C75   S    
C13   C25   D    
Cr8   O20   S    
C41   C64   S    
Cr1   O41   S    
Cr9   O13   S    
C6    C12   A    
C41   C49   D    
Cr2   O22   S    
C72   O16   A    
Cr7   O27   S    
Cr10  O10   S    
C14   C58   S    
C39   C55   D    
C15   O63   S    
Cr5   O17   S    
O64   H48   S    
C84   H4    S    
C32   C35   D    
Cr3   O19   S    
C3    O27   A    
Cr4   O20   S    
C45   O33   A    
C12   H12   S    
C59   O39   A    
C19   C23   D    
C51   C55   S    
C40   C56   D    
Cr4   O48   S    
C57   O37   A    
C6    O58   S    
C17   C21   D    
C54   H26   S    
C67   O7    A    
C45   C74   S    
C70   O42   A    
C65   O9    A    
C2    O22   A    
Cr5   O29   S    
C71   O43   A    
C60   O40   A    
Cr3   O3    S    
C67   O11   A    
C40   H8    S    
Cr8   O52   S    
C15   C27   D    
C83   C84   A    
C38   C54   D    
Cr10  O38   S    
C14   O62   S    
Cr11  O19   S    
C33   C34   S    
Cr7   O19   S    
O59   H35   S    
Cr2   O2    S    
Cr6   O26   S    
C14   C26   D    
Cr1   O1    S    
Cr2   O42   S    
C52   O56   S    
Cr5   O49   S    
C30   C66   S    
C22   C26   S    
C42   C50   D    
C29   C65   S    
C4    C17   S    
C69   O13   A    
C62   O50   A    
C36   H52   S    
C23   C27   S    
C48   O36   A    
C11   H11   S    
C68   O12   A    
C64   O52   A    
C61   O45   A    
C10   H10   S    
Cr11  O35   S    
C74   C81   A    
C5    C77   A    
C26   H38   S    
C76   C83   A    
C73   C82   A    
C50   C54   S    
C1    O21   A    
C7    C79   A    
C56   H28   S    
Cr1   O21   S    
O60   H36   S    
C7    C9    A    
Cr4   O24   S    
O63   H47   S    
C1    C20   S    
C59   O3    A    
C40   C72   S    
C30   C33   D    
C46   O34   A    
C2    C19   S    
C18   C22   D    
C15   C59   S    
C24   C28   S    
Cr3   O23   S    
C53   H25   S    
C4    O28   A    
C21   H13   S    
C11   C12   A    
C39   H7    S    
C2    O26   A    
C44   C61   S    
Cr10  O34   S    
C23   H15   S    
C19   H43   S    
C72   O44   A    
C32   C68   S    
C47   O35   A    
Cr9   O37   S    
O58   H34   S    
Cr6   O30   S    
C47   O31   A    
C49   O53   S    
C43   C51   D    
O57   H33   S    
C46   O30   A    
C27   H39   S    
C81   H1    S    
C49   C53   S    
C29   C34   D    
C43   H31   S    
Cr10  O18   S    
C13   O61   S    
C60   O4    A    
C61   O49   A    
Cr4   O44   S    
C32   H19   S    
C38   H6    S    
C4    O24   A    
Cr8   O28   S    
Cr9   O9    S    
C57   O1    A    
C1    O25   A    
C31   C67   S    
C71   O15   A    
C79   C80   A    
C66   O10   A    
C3    O23   A    
C73   C77   A    
C8    C10   A    
C74   C78   A    
C8    C80   A    
C39   C71   S    
C31   C36   D    
C7    O59   S    
C55   H27   S    
Cr7   O7    S    
O62   H46   S    
O55   H23   S    
C75   C79   A    
C42   C63   S    
C20   C24   D    
C46   C73   S    
C52   C56   S    
C43   C62   S    
Cr1   O17   S    
C30   H17   S    
