data_mof_unit_35646.cif
_audit_creation_date              2012-12-10T17:03:39-0500
_audit_creation_method            fapswitch 2.2
_symmetry_space_group_name_H-M    P1
_symmetry_Int_Tables_number       1
_space_group_crystal_system       triclinic
_cell_length_a                    10.059601
_cell_length_b                    10.761474
_cell_length_c                    13.111474
_cell_angle_alpha                 90.115754
_cell_angle_beta                  71.035619
_cell_angle_gamma                 90.225664
_cell_volume                      1342.34289457

loop_
_atom_site_label
_atom_site_type_symbol
_atom_type_description
_atom_site_fract_x
_atom_site_fract_y
_atom_site_fract_z
_atom_type_partial_charge
C1    C     C_R   0.501185 0.737484 0.499606 0.958284
C2    C     C_R   0.376243 0.513122 0.821064 -0.093492
C3    C     C_2   0.621025 0.067259 0.470481 0.447574
C4    C     C_R   0.422921 0.506081 0.703671 0.854350
C5    C     C_2   0.500361 0.130880 0.504759 -0.396776
C6    C     C_2   0.616219 0.936619 0.497009 0.079942
C7    C     C_2   0.512025 0.868166 0.482259 -0.413622
C8    C     C_2   0.077763 0.401405 0.488273 0.147084
C9    C     C_2   0.920863 0.402028 0.512960 0.137006
C10   C     C_R   0.500645 0.262757 0.498598 0.994361
C11   C     C_R   0.576239 0.513611 0.297487 0.914476
C12   C     C_R   0.437112 0.537459 0.985240 0.059115
C13   C     C_R   0.783824 0.616837 0.014525 0.175016
C14   C     C_R   0.616252 0.552980 0.185226 -0.189470
C15   C     C_R   0.253019 0.450308 0.878840 -0.197096
C16   C     C_R   0.222735 0.427255 0.987892 -0.227133
C17   C     C_R   0.316982 0.463861 0.041145 0.481143
C18   C     C_R   0.464951 0.564010 0.874955 0.006918
C19   C     C_R   0.538623 0.575063 0.032646 -0.006677
C20   C     C_R   0.674469 0.613957 0.968617 0.042773
C21   C     C_R   0.693468 0.652181 0.863286 -0.149654
C22   C     C_R   0.585443 0.635639 0.820031 -0.143180
C23   C     C_R   0.508248 0.578305 0.142946 0.241768
C24   C     C_R   0.755943 0.574533 0.120700 -0.255852
H1    H     H_    0.840750 0.566297 0.154192 0.201894
H2    H     H_    0.137726 0.642037 0.581750 0.382233
H3    H     H_    0.864822 0.635978 0.409456 0.382353
H4    H     H_    0.211119 0.370465 0.169876 0.340518
H5    H     H_    0.820704 0.060324 0.390226 0.351869
H6    H     H_    0.400205 0.086200 0.546099 0.118676
H7    H     H_    0.436964 0.908787 0.448182 0.158913
H8    H     H_    0.132783 0.314087 0.465036 0.061932
H9    H     H_    0.863588 0.316276 0.540463 0.091587
H10   H     H_    0.790132 0.695428 0.813989 0.203664
H11   H     H_    0.184122 0.411717 0.838164 0.189459
H12   H     H_    0.129928 0.373119 0.029262 0.156849
H13   H     H_    0.600900 0.674219 0.741042 0.194836
I1    I     I_    0.766468 0.879228 0.571769 -0.314872
I2    I     I_    0.990153 0.679952 0.929672 -0.368232
I3    I     I_    0.326704 0.685829 0.231519 -0.215962
N1    N     N_2   0.148270 0.498670 0.498870 0.087276
N2    N     N_2   0.852610 0.498640 0.498840 0.073406
O1    O     O_R   0.386950 0.680940 0.500020 -0.623403
O2    O     O_3   0.931908 0.583771 0.430802 -0.597019
O3    O     O_3   0.299140 0.419872 0.143802 -0.756487
O4    O     O_3   0.747106 0.124869 0.414891 -0.738457
O5    O     O_R   0.613110 0.680900 0.499980 -0.612932
O6    O     O_R   0.330780 0.500000 0.653640 -0.618354
O7    O     O_R   0.556930 0.499960 0.653610 -0.625073
O8    O     O_R   0.386890 0.319100 0.500020 -0.647576
O9    O     O_R   0.613050 0.319060 0.499980 -0.563780
O10   O     O_R   0.443070 0.500040 0.346390 -0.572397
O11   O     O_R   0.669220 0.500000 0.346360 -0.623532
O12   O     O_3   0.070350 0.588345 0.561705 -0.614004
Zn1   Zn    Zn3+2 0.349000 0.500030 0.500020 1.016450
Zn2   Zn    Zn3+2 0.651000 0.499970 0.499980 1.013312

loop_
_geom_bond_atom_site_label_1
_geom_bond_atom_site_label_2
_ccdc_geom_bond_type
C12   C17   A    
C14   C23   A    
O6    Zn1   S    
C2    C4    S    
C6    I1    S    
C6    C7    D    
C21   H10   S    
C2    C18   A    
O7    Zn2   S    
C4    O7    A    
C3    O4    S    
C19   C23   A    
C19   C20   A    
C11   O11   A    
O10   Zn1   S    
H5    O4    S    
C3    C6    S    
N2    Zn2   S    
C5    C10   S    
C18   C22   A    
C21   C22   A    
C20   C21   A    
C9    H9    S    
C2    C15   A    
C9    N2    D    
C16   C17   A    
N2    O2    S    
N1    Zn1   S    
C10   O9    A    
H2    O12   S    
C12   C19   A    
O1    Zn1   S    
C17   O3    S    
C5    H6    S    
C1    O5    A    
H4    O3    S    
C11   C14   S    
N1    O12   S    
C13   I2    S    
C7    H7    S    
C15   C16   A    
C12   C18   A    
C23   I3    S    
C10   O8    A    
C24   H1    S    
O9    Zn2   S    
C4    O6    A    
O11   Zn2   S    
C14   C24   A    
C15   H11   S    
O5    Zn2   S    
C11   O10   A    
C13   C20   A    
C8    N1    D    
C1    C7    S    
C22   H13   S    
H3    O2    S    
C1    O1    A    
C16   H12   S    
O8    Zn1   S    
C13   C24   A    
C8    C9    S    
C3    C5    D    
C8    H8    S    
