data_mof_unit_6961.cif
_audit_creation_date              2012-12-10T20:40:02-0500
_audit_creation_method            fapswitch 2.2
_symmetry_space_group_name_H-M    P1
_symmetry_Int_Tables_number       1
_space_group_crystal_system       triclinic
_cell_length_a                    23.416385
_cell_length_b                    10.674514
_cell_length_c                    9.858367
_cell_angle_alpha                 89.926507
_cell_angle_beta                  90.113636
_cell_angle_gamma                 90.123666
_cell_volume                      2464.17031872

loop_
_atom_site_label
_atom_site_type_symbol
_atom_type_description
_atom_site_fract_x
_atom_site_fract_y
_atom_site_fract_z
_atom_type_partial_charge
C1    C     C_R   0.501670 0.259945 0.500118 0.886971
C2    C     C_R   0.120027 0.613833 0.476112 0.521761
C3    C     C_R   0.239937 0.572282 0.604580 -0.085871
C4    C     C_R   0.389461 0.499527 0.500089 0.930424
C5    C     C_R   0.299179 0.570155 0.601599 -0.230373
C6    C     C_R   0.327486 0.501119 0.501341 -0.183180
C7    C     C_R   0.296155 0.432965 0.404895 0.592950
C8    C     C_R   0.236900 0.435429 0.408108 -0.165358
C9    C     C_R   0.208865 0.505052 0.507741 0.211339
C10   C     C_R   0.762590 0.506223 0.379448 -0.100188
C11   C     C_R   0.703296 0.504617 0.378124 -0.188997
C12   C     C_R   0.970322 0.287915 0.580564 -0.153171
C13   C     C_R   0.673014 0.501725 0.500889 -0.046514
C14   C     C_R   0.702746 0.500683 0.624739 -0.208424
C15   C     C_R   0.761985 0.502225 0.625658 -0.094834
C16   C     C_R   0.501756 0.740056 0.499962 0.880059
C17   C     C_R   0.791817 0.504890 0.503150 0.314238
C18   C     C_R   0.509638 0.063730 0.623431 0.144489
C19   C     C_R   0.510642 0.128608 0.500917 -0.099382
C20   C     C_R   0.522497 0.065061 0.379777 -0.217435
C21   C     C_R   0.522550 0.935535 0.379702 -0.178396
C22   C     C_R   0.510766 0.871469 0.500762 -0.110929
C23   C     C_R   0.029756 0.288250 0.582335 -0.152084
C24   C     C_R   0.509743 0.935968 0.623367 0.128329
C25   C     C_3   0.468163 0.928272 0.738025 -0.443607
C26   C     C_3   0.467961 0.070280 0.737908 -0.492551
C27   C     C_R   0.472730 0.407035 0.071342 -0.040644
C28   C     C_R   0.610721 0.500369 0.500135 0.872367
C29   C     C_R   0.531689 0.584259 0.071901 0.650796
C30   C     C_R   0.531600 0.584318 0.927867 -0.206051
C31   C     C_R   0.472446 0.407441 0.928751 0.058590
C32   C     C_3   0.410158 0.377531 0.924530 0.463035
C33   C     C_3   0.410820 0.376007 0.078302 -0.395060
C34   C     C_R   0.060093 0.397087 0.547268 -0.023963
C35   C     C_R   0.880891 0.612978 0.470700 0.507695
C36   C     C_R   0.880663 0.398227 0.540649 0.505984
C37   C     C_R   0.940266 0.396458 0.543863 -0.016506
C38   C     C_R   0.970321 0.506329 0.509005 -0.018436
C39   C     C_R   0.940525 0.615767 0.472065 -0.017567
C40   C     C_R   0.030317 0.506643 0.510724 -0.020261
C41   C     C_R   0.060393 0.616359 0.475407 -0.022256
C42   C     C_R   0.030321 0.725076 0.439323 -0.152299
C43   C     C_R   0.970870 0.724794 0.437708 -0.153227
C44   C     C_R   0.119709 0.399378 0.547127 0.525486
F1    F     F_    0.563006 0.670940 0.139530 -0.672638
F2    F     F_    0.377921 0.475746 0.874206 -0.632329
F3    F     F_    0.322638 0.360282 0.311650 -0.679123
H1    H     H_    0.948074 0.202466 0.607788 0.195731
H2    H     H_    0.556208 0.653845 0.873315 0.166321
H3    H     H_    0.400413 0.285437 0.877468 0.068391
H4    H     H_    0.385316 0.452684 0.124157 0.274489
H5    H     H_    0.052574 0.810477 0.411949 0.196257
H6    H     H_    0.948832 0.810008 0.409231 0.195824
H7    H     H_    0.218102 0.625697 0.681983 0.168489
H8    H     H_    0.322900 0.623241 0.676560 0.217858
H9    H     H_    0.785911 0.508015 0.284712 0.145125
H10   H     H_    0.527755 0.114279 0.284418 0.177009
H11   H     H_    0.051787 0.203019 0.610775 0.196038
H12   H     H_    0.681295 0.505627 0.281387 0.181544
H13   H     H_    0.403280 0.281333 0.121864 0.196465
H14   H     H_    0.212594 0.382608 0.334041 0.176035
H15   H     H_    0.680359 0.498632 0.720751 0.168230
H16   H     H_    0.784824 0.501390 0.721289 0.143932
H17   H     H_    0.527809 0.886712 0.284312 0.218109
H18   H     H_    0.426535 0.886432 0.707502 0.212017
H19   H     H_    0.487670 0.887371 0.830922 0.215113
H20   H     H_    0.426244 0.111060 0.706963 0.210227
H21   H     H_    0.487233 0.111551 0.830866 0.200911
N1    N     N_R   0.852551 0.505342 0.504552 -0.360395
N2    N     N_R   0.148123 0.506365 0.511135 -0.345449
N3    N     N_R   0.499610 0.499140 0.142800 -0.135244
N4    N     N_R   0.499610 0.499180 0.857150 -0.103577
O1    O     O_R   0.500010 0.316790 0.614690 -0.627109
O2    O     O_R   0.583850 0.500060 0.614640 -0.631462
O3    O     O_R   0.583840 0.500020 0.385300 -0.588283
O4    O     O_2   0.851312 0.716830 0.436751 -0.542215
O5    O     O_2   0.850878 0.293869 0.572464 -0.545189
O6    O     O_2   0.149213 0.295925 0.582886 -0.536997
O7    O     O_2   0.149830 0.717182 0.440765 -0.542182
O8    O     O_R   0.500000 0.316760 0.385350 -0.617210
O9    O     O_R   0.416160 0.499980 0.614700 -0.563122
O10   O     O_R   0.416150 0.499940 0.385360 -0.589843
O11   O     O_R   0.500000 0.683240 0.614650 -0.624757
O12   O     O_R   0.499990 0.683210 0.385310 -0.576317
Zn1   Zn    Zn3+2 0.500000 0.500020 0.653130 0.988796
Zn2   Zn    Zn3+2 0.500000 0.499980 0.346870 1.023583

loop_
_geom_bond_atom_site_label_1
_geom_bond_atom_site_label_2
_ccdc_geom_bond_type
C23   H11   S    
C17   N1    S    
C41   C42   A    
C19   C20   A    
C18   C26   S    
C12   H1    S    
C28   O2    A    
N4    Zn1   S    
C7    C8    A    
C27   C33   S    
C12   C23   A    
C29   C30   A    
C34   C40   A    
C26   H20   S    
C36   C37   A    
O12   Zn2   S    
C36   O5    S    
C38   C39   A    
C3    H7    S    
C10   C17   A    
C14   H15   S    
C16   O12   A    
C18   C19   A    
C12   C37   A    
C21   H17   S    
O8    Zn2   S    
C2    O7    S    
C43   H6    S    
C4    O9    A    
C8    C9    A    
C13   C28   S    
C44   N2    A    
C18   C24   A    
C10   H9    S    
C8    H14   S    
C21   C22   A    
C11   H12   S    
C35   O4    S    
C1    C19   S    
C27   C31   A    
C25   H18   S    
C9    N2    S    
C4    C6    S    
C39   C43   A    
C25   C26   S    
O10   Zn2   S    
C16   O11   A    
C29   F1    S    
C7    F3    S    
C35   C39   A    
C37   C38   A    
C3    C9    A    
N3    Zn2   S    
O3    Zn2   S    
C31   C32   S    
C23   C34   A    
O1    Zn1   S    
C34   C44   A    
C24   C25   S    
C32   H3    S    
C40   C41   A    
O11   Zn1   S    
C30   H2    S    
C33   H13   S    
C22   C24   A    
C42   C43   A    
C27   N3    A    
C36   N1    A    
C15   C17   A    
C31   N4    A    
C16   C22   S    
C32   F2    S    
C5    H8    S    
C25   H19   S    
C3    C5    A    
C30   N4    A    
C6    C7    A    
C33   H4    S    
C1    O1    A    
C32   C33   S    
C44   O6    S    
C26   H21   S    
C2    N2    A    
C38   C40   A    
C11   C13   A    
C5    C6    A    
O2    Zn1   S    
C10   C11   A    
C4    O10   A    
C20   C21   A    
C35   N1    A    
C1    O8    A    
C15   H16   S    
C14   C15   A    
C2    C41   A    
C20   H10   S    
C13   C14   A    
C28   O3    A    
O9    Zn1   S    
C42   H5    S    
C29   N3    A    
