data_mof_unit_43001.cif
_audit_creation_date              2012-12-10T19:23:29-0500
_audit_creation_method            fapswitch 2.2
_symmetry_space_group_name_H-M    P1
_symmetry_Int_Tables_number       1
_space_group_crystal_system       triclinic
_cell_length_a                    13.078417
_cell_length_b                    17.780676
_cell_length_c                    16.610925
_cell_angle_alpha                 90.119837
_cell_angle_beta                  97.126869
_cell_angle_gamma                 95.987743
_cell_volume                      3811.55792252

loop_
_atom_site_label
_atom_site_type_symbol
_atom_type_description
_atom_site_fract_x
_atom_site_fract_y
_atom_site_fract_z
_atom_type_partial_charge
C1    C     C_R   0.506930 0.355518 0.500602 0.908676
C2    C     C_R   0.498902 0.113498 0.521563 -0.025509
C3    C     C_1   0.494269 0.964905 0.529076 0.068342
C4    C     C_1   0.494839 0.032495 0.528763 0.092076
C5    C     C_R   0.525332 0.565099 0.834658 0.264143
C6    C     C_R   0.413751 0.477192 0.158780 0.236344
C7    C     C_R   0.540547 0.563245 0.750435 0.400391
C8    C     C_R   0.415670 0.467094 0.245090 0.408851
C9    C     C_R   0.461799 0.435463 0.741236 0.530525
C10   C     C_R   0.587940 0.530451 0.264168 0.493019
C11   C     C_R   0.482109 0.430261 0.827458 -0.226493
C12   C     C_R   0.491404 0.644074 0.498575 0.886531
C13   C     C_R   0.597927 0.513915 0.181197 -0.239561
C14   C     C_R   0.506274 0.496650 0.874837 -0.136811
C15   C     C_R   0.507878 0.494277 0.126790 -0.130711
C16   C     C_R   0.299827 0.503815 0.485345 0.916499
C17   C     C_R   0.699602 0.495749 0.516095 0.917257
C18   C     C_1   0.510675 0.494953 0.964237 0.283347
C19   C     C_1   0.510954 0.494182 0.037997 0.287038
C20   C     C_R   0.811278 0.482763 0.528806 -0.128439
C21   C     C_R   0.184642 0.504524 0.480502 -0.149963
C22   C     C_R   0.018828 0.475279 0.396684 0.258753
C23   C     C_R   0.474286 0.726356 0.496667 -0.156455
C24   C     C_R   0.973946 0.477703 0.615030 0.289361
C25   C     C_R   0.122216 0.509289 0.405733 -0.091797
C26   C     C_R   0.870616 0.492340 0.606635 -0.157555
C27   C     C_R   0.134639 0.501115 0.551867 -0.025678
C28   C     C_R   0.858914 0.450397 0.466247 -0.010964
C29   C     C_R   0.026490 0.481512 0.545387 -0.084240
C30   C     C_R   0.967831 0.466035 0.468112 -0.113353
C31   C     C_R   0.444716 0.836539 0.576879 -0.078850
C32   C     C_R   0.468387 0.144055 0.444987 -0.073571
C33   C     C_R   0.432648 0.757561 0.562410 0.015326
C34   C     C_R   0.517692 0.272080 0.502671 -0.150721
C35   C     C_R   0.479091 0.223470 0.435061 -0.112800
C36   C     C_2   0.806754 0.380904 0.422910 0.619128
C37   C     C_2   0.185059 0.541733 0.627389 0.578966
C38   C     C_2   0.475738 0.354536 0.866575 0.567268
C39   C     C_2   0.702554 0.518521 0.151809 0.584237
C40   C     C_2   0.830081 0.515705 0.681210 0.640714
C41   C     C_2   0.149819 0.571831 0.350360 0.549781
C42   C     C_2   0.404733 0.870740 0.647412 0.458320
C43   C     C_2   0.427560 0.091482 0.375325 0.411919
C44   C     C_2   0.356855 0.708917 0.603312 0.431474
C45   C     C_R   0.502156 0.775593 0.433686 0.322716
C46   C     C_2   0.461793 0.253434 0.351872 0.571044
C47   C     C_2   0.584874 0.903161 0.396709 0.446524
C48   C     C_2   0.563568 0.131568 0.671787 0.528216
C49   C     C_R   0.562281 0.239294 0.575060 0.356227
C50   C     C_R   0.526024 0.853610 0.451830 -0.080050
C51   C     C_R   0.541933 0.161111 0.587825 -0.078568
C52   C     C_R   0.493222 0.883998 0.521869 -0.017249
Cu1   Cu    Cu3+1 0.500000 0.499980 0.580420 1.157068
Cu2   Cu    Cu3+1 0.500000 0.500020 0.419580 1.177684
H1    H     H_    0.853067 0.339902 0.401146 0.120257
H2    H     H_    0.966419 0.361718 0.796550 0.392243
H3    H     H_    0.380549 0.927296 0.643680 0.089559
H4    H     H_    0.459687 0.038230 0.369337 0.109191
H5    H     H_    0.361979 0.706202 0.668806 0.166778
H6    H     H_    0.387109 0.241940 0.315486 0.156836
H7    H     H_    0.401541 0.802397 0.222942 0.394958
H8    H     H_    0.788723 0.258058 0.728444 0.405495
H9    H     H_    0.583990 0.888516 0.333424 0.162789
H10   H     H_    0.570377 0.170060 0.723419 0.125155
H11   H     H_    0.461927 0.685084 0.996339 0.393394
H12   H     H_    0.157379 0.594400 0.643894 0.069768
H13   H     H_    0.251341 0.505421 0.967294 0.404477
H14   H     H_    0.756558 0.712420 0.781666 0.393576
H15   H     H_    0.253777 0.339067 0.372901 0.371598
H16   H     H_    0.253115 0.285002 0.744482 0.392956
H17   H     H_    0.851883 0.599889 0.354443 0.362426
H18   H     H_    0.495130 0.305788 0.834636 0.120735
H19   H     H_    0.771326 0.544653 0.188052 0.149766
H20   H     H_    0.864363 0.567614 0.712522 0.076232
H21   H     H_    0.093465 0.587861 0.301950 0.092769
H22   H     H_    0.972851 0.516145 0.200634 0.357600
N1    N     N_R   0.499970 0.499970 0.701220 -0.285380
N2    N     N_R   0.500030 0.500030 0.298780 -0.280074
O1    O     O_R   0.499990 0.391240 0.567930 -0.518339
O2    O     O_2   0.249875 0.514754 0.674721 -0.448056
O3    O     O_2   0.312037 0.375498 0.615342 -0.227827
O4    O     O_2   0.425839 0.290345 0.685062 -0.369222
O5    O     O_3   0.284215 0.336968 0.760182 -0.462054
O6    O     O_2   0.714289 0.657729 0.250831 -0.270699
O7    O     O_2   0.664944 0.640349 0.385316 -0.240047
O8    O     O_3   0.796407 0.557794 0.341201 -0.556617
O9    O     O_2   0.447178 0.345127 0.933388 -0.485007
O10   O     O_2   0.715035 0.489493 0.087568 -0.510531
O11   O     O_2   0.765210 0.474710 0.711833 -0.420885
O12   O     O_R   0.500010 0.608760 0.432070 -0.501105
O13   O     O_2   0.233086 0.610488 0.361731 -0.479160
O14   O     O_2   0.989746 0.354866 0.297523 -0.193765
O15   O     O_2   0.851437 0.436640 0.279662 -0.294451
O16   O     O_3   0.020865 0.479259 0.221958 -0.430385
O17   O     O_2   0.106694 0.386737 0.689000 -0.185838
O18   O     O_2   0.072481 0.497098 0.767342 -0.276886
O19   O     O_3   0.931603 0.382540 0.746387 -0.469919
O20   O     O_2   0.402198 0.837666 0.711535 -0.474610
O21   O     O_2   0.354971 0.105380 0.326062 -0.507249
O22   O     O_2   0.285275 0.672161 0.562045 -0.608054
O23   O     O_R   0.500000 0.391270 0.432120 -0.514853
O24   O     O_2   0.532644 0.288513 0.321968 -0.459075
O25   O     O_2   0.575174 0.751309 0.292287 -0.233554
O26   O     O_2   0.414702 0.673313 0.312440 -0.204564
O27   O     O_3   0.404932 0.814060 0.281613 -0.535579
O28   O     O_2   0.726057 0.344013 0.587636 -0.286192
O29   O     O_2   0.628922 0.333072 0.704290 -0.274470
O30   O     O_3   0.749639 0.230370 0.680604 -0.504618
O31   O     O_2   0.639605 0.960098 0.422439 -0.514010
O32   O     O_2   0.574407 0.065181 0.684938 -0.510363
O33   O     O_2   0.637217 0.663727 0.942774 -0.221124
O34   O     O_R   0.500000 0.608730 0.567880 -0.556946
O35   O     O_2   0.515239 0.718699 0.841107 -0.164716
O36   O     O_3   0.441263 0.643400 0.956065 -0.495643
O37   O     O_2   0.285512 0.385839 0.052591 -0.184817
O38   O     O_2   0.201527 0.477342 0.125038 -0.141996
O39   O     O_3   0.304308 0.526482 0.011665 -0.498229
O40   O     O_2   0.681705 0.623249 0.648454 -0.320053
O41   O     O_2   0.570216 0.707533 0.699133 -0.270581
O42   O     O_3   0.720761 0.663717 0.797128 -0.465565
O43   O     O_2   0.282448 0.341912 0.214232 -0.208738
O44   O     O_2   0.218428 0.449559 0.274169 -0.209913
O45   O     O_R   0.348990 0.499980 0.556880 -0.543145
O46   O     O_3   0.323149 0.364814 0.366463 -0.570916
O47   O     O_R   0.651010 0.500020 0.443120 -0.515607
O48   O     O_R   0.349000 0.500000 0.421060 -0.511763
O49   O     O_R   0.651000 0.500000 0.578940 -0.529207
O50   O     O_2   0.712862 0.366865 0.412849 -0.498369
S1    S     S_3+6 0.371251 0.359210 0.695144 0.073044
S2    S     S_3+6 0.309485 0.405346 0.275577 0.107183
S3    S     S_3+6 0.688804 0.599248 0.312631 0.057167
S4    S     S_3+6 0.966460 0.435818 0.298385 0.048093
S5    S     S_3+6 0.025900 0.436294 0.706721 0.066742
S6    S     S_3+6 0.475450 0.749282 0.328531 0.050564
S7    S     S_3+6 0.667261 0.290035 0.638284 0.047811
S8    S     S_3+6 0.532677 0.651106 0.892899 0.095770
S9    S     S_3+6 0.297060 0.464691 0.087748 0.124783
S10   S     S_3+6 0.627619 0.639980 0.719433 0.072629

loop_
_geom_bond_atom_site_label_1
_geom_bond_atom_site_label_2
_ccdc_geom_bond_type
C24   S5    S    
C5    S8    S    
C48   O32   D    
C16   C21   S    
C23   C45   A    
C31   C42   S    
C27   C29   A    
H11   O36   S    
C14   C18   S    
Cu2   O23   S    
C2    C4    S    
O19   S5    S    
C31   C52   A    
C26   C40   S    
C10   N2    A    
Cu1   Cu2   S    
C15   C19   S    
C46   O24   D    
C12   C23   S    
C45   S6    S    
O26   S6    D    
H2    O19   S    
C12   O12   A    
Cu1   O1    S    
O25   S6    D    
C43   O21   D    
Cu2   O12   S    
C42   O20   D    
C47   H9    S    
C11   C14   A    
O8    S3    S    
C48   H10   S    
H8    O30   S    
C44   H5    S    
O17   S5    D    
C17   C20   S    
C2    C32   A    
C34   C35   A    
C10   S3    S    
O29   S7    D    
Cu1   O49   S    
C43   H4    S    
H22   O16   S    
C6    C15   A    
C24   C29   A    
C48   C51   S    
O37   S9    D    
C23   C33   A    
C22   C25   A    
C50   C52   A    
C31   C33   A    
C40   O11   D    
O15   S4    D    
H7    O27   S    
O43   S2    D    
C7    N1    A    
C46   H6    S    
C49   S7    S    
C8    N2    A    
C33   C44   S    
C36   O50   D    
C39   O10   D    
C42   H3    S    
C37   O2    D    
C1    C34   S    
C47   C50   S    
Cu2   O47   S    
C38   H18   S    
C32   C35   A    
O30   S7    S    
Cu1   O45   S    
C25   C41   S    
C5    C7    A    
C18   C19   T    
C6    C8    A    
C20   C28   A    
H15   O46   S    
C49   C51   A    
C47   O31   D    
O39   S9    S    
O35   S8    D    
O16   S4    S    
O14   S4    D    
C11   C38   S    
Cu1   N1    S    
C29   C30   A    
C41   H21   S    
H17   O8    S    
C9    C11   A    
O3    S1    D    
C37   H12   S    
O46   S2    S    
C9    N1    A    
O4    S1    D    
H16   O5    S    
H13   O39   S    
C5    C14   A    
Cu1   O34   S    
O28   S7    D    
C41   O13   D    
C13   C15   A    
C8    S2    S    
C1    O1    A    
O42   S10   S    
C3    C4    T    
C1    O23   A    
C12   O34   A    
O38   S9    D    
C21   C25   A    
C34   C49   A    
C22   C30   A    
C22   S4    S    
O41   S10   D    
C16   O45   A    
C17   O49   A    
C24   C26   A    
C10   C13   A    
C7    S10   S    
C3    C52   S    
O5    S1    S    
O18   S5    D    
C9    S1    S    
O6    S3    D    
C38   O9    D    
C6    S9    S    
C28   C30   A    
C36   H1    S    
O7    S3    D    
C44   O22   D    
C17   O47   A    
C20   C26   A    
C45   C50   A    
C27   C37   S    
C32   C43   S    
C40   H20   S    
C39   H19   S    
C21   C27   A    
O33   S8    D    
C13   C39   S    
C2    C51   A    
Cu2   O48   S    
C28   C36   S    
O36   S8    S    
O40   S10   D    
C35   C46   S    
C16   O48   A    
O44   S2    D    
H14   O42   S    
O27   S6    S    
Cu2   N2    S    
