data_mof_unit_51441.cif
_audit_creation_date              2012-12-10T17:17:23-0500
_audit_creation_method            fapswitch 2.2
_symmetry_space_group_name_H-M    P1
_symmetry_Int_Tables_number       1
_space_group_crystal_system       triclinic
_cell_length_a                    10.158167
_cell_length_b                    10.663704
_cell_length_c                    12.950931
_cell_angle_alpha                 91.30079
_cell_angle_beta                  109.78387
_cell_angle_gamma                 95.335406
_cell_volume                      1312.1698689

loop_
_atom_site_label
_atom_site_type_symbol
_atom_type_description
_atom_site_fract_x
_atom_site_fract_y
_atom_site_fract_z
_atom_type_partial_charge
C1    C     C_R   0.054378 0.733536 0.498104 0.921578
C2    C     C_R   0.221418 0.539341 0.828894 -0.171887
C3    C     C_2   0.092385 0.868595 0.510548 -0.406058
C4    C     C_R   0.138924 0.521704 0.711102 0.918645
C5    C     C_2   0.051208 0.939300 0.578905 0.188392
C6    C     C_2   0.941058 0.136076 0.542533 -0.083293
C7    C     C_2   0.056116 0.074039 0.564825 -0.223457
C8    C     C_2   0.431249 0.517111 0.501581 -0.222998
C9    C     C_2   0.567847 0.490403 0.487705 0.159200
C10   C     C_R   0.952696 0.266997 0.513233 0.877312
C11   C     C_R   0.863618 0.483326 0.288655 0.929095
C12   C     C_R   0.426143 0.490272 0.978985 -0.114806
C13   C     C_R   0.771374 0.394171 0.988264 -0.329904
C14   C     C_R   0.785803 0.461317 0.171474 -0.316302
C15   C     C_R   0.152436 0.562110 0.904751 -0.101752
C16   C     C_R   0.213479 0.530798 0.013960 0.368528
C17   C     C_R   0.339701 0.476474 0.044441 0.446952
C18   C     C_3   0.978108 0.230223 0.098462 0.143228
C19   C     C_3   0.867569 0.125433 0.105739 -0.428028
C20   C     C_3   0.893718 0.998173 0.063876 -0.981025
C21   C     C_3   0.563231 0.305449 0.698771 0.078558
C22   C     C_3   0.597046 0.186746 0.763852 -0.390819
C23   C     C_R   0.365853 0.516146 0.868408 -0.088334
C24   C     C_3   0.520047 0.067673 0.693732 -0.967393
C25   C     C_3   0.609113 0.698504 0.176044 0.037537
C26   C     C_3   0.719729 0.770169 0.275996 -0.263297
C27   C     C_3   0.705750 0.910589 0.275387 -1.016871
C28   C     C_3   0.342699 0.272517 0.088979 0.118000
C29   C     C_3   0.391708 0.184068 0.182111 -0.367143
C30   C     C_3   0.551508 0.185816 0.222856 -0.860176
C31   C     C_3   0.165474 0.663372 0.134578 0.074881
C32   C     C_3   0.263305 0.666817 0.254045 -0.278150
C33   C     C_3   0.298571 0.801160 0.305685 -1.012072
C34   C     C_R   0.569565 0.470821 0.019811 -0.056461
C35   C     C_R   0.637717 0.435614 0.947112 -0.084459
C36   C     C_R   0.573340 0.449398 0.835276 0.495344
C37   C     C_R   0.451215 0.510153 0.801444 -0.242308
C38   C     C_R   0.650292 0.499771 0.129766 0.432827
C39   C     C_R   0.841868 0.396596 0.102096 0.479562
H1    H     H_    0.143910 0.912093 0.457223 0.130561
H2    H     H_    0.873063 0.120025 0.192664 0.236909
H3    H     H_    0.760295 0.146234 0.055280 0.211900
H4    H     H_    0.893079 0.003348 0.978120 0.261949
H5    H     H_    0.809781 0.924191 0.064599 0.266843
H6    H     H_    0.996747 0.970590 0.117065 0.258810
H7    H     H_    0.978654 0.955698 0.707604 0.188155
H8    H     H_    0.076140 0.837378 0.712634 0.161710
H9    H     H_    0.789443 0.129114 0.610801 0.190233
H10   H     H_    0.731682 0.085721 0.475772 0.177752
H11   H     H_    0.532162 0.307785 0.431766 0.133730
H12   H     H_    0.431335 0.598882 0.552820 0.158392
H13   H     H_    0.499074 0.415089 0.333823 0.257624
H14   H     H_    0.598088 0.295870 0.626926 0.172321
H15   H     H_    0.447360 0.310840 0.665523 0.150885
H16   H     H_    0.712261 0.180178 0.791588 0.222967
H17   H     H_    0.564549 0.191836 0.837422 0.217903
H18   H     H_    0.404446 0.069902 0.669182 0.261251
H19   H     H_    0.549209 0.983459 0.741893 0.269308
H20   H     H_    0.549058 0.059301 0.618730 0.262876
H21   H     H_    0.505196 0.732754 0.163621 0.162089
H22   H     H_    0.635300 0.720252 0.100743 0.108659
H23   H     H_    0.683029 0.622609 0.600843 0.162973
H24   H     H_    0.706387 0.735058 0.352350 0.270848
H25   H     H_    0.826359 0.754225 0.276139 0.190068
H26   H     H_    0.696599 0.945916 0.193808 0.270217
H27   H     H_    0.799480 0.962069 0.338435 0.287073
H28   H     H_    0.610285 0.927751 0.294527 0.269705
H29   H     H_    0.025041 0.695378 0.911971 0.170108
H30   H     H_    0.945839 0.545382 0.888920 0.238212
H31   H     H_    0.396268 0.253807 0.028765 0.125285
H32   H     H_    0.227993 0.249293 0.045616 0.078119
H33   H     H_    0.356002 0.212048 0.250634 0.213660
H34   H     H_    0.314638 0.368935 0.406605 0.174452
H35   H     H_    0.343656 0.086221 0.152179 0.168521
H36   H     H_    0.584528 0.136631 0.160773 0.238274
H37   H     H_    0.586304 0.138668 0.301258 0.240212
H38   H     H_    0.603985 0.283424 0.237735 0.295781
H39   H     H_    0.062420 0.692118 0.132993 0.151381
H40   H     H_    0.208970 0.735234 0.089660 0.095752
H41   H     H_    0.210855 0.608015 0.301154 0.275860
H42   H     H_    0.362181 0.626949 0.258784 0.247363
H43   H     H_    0.356953 0.860465 0.262629 0.258174
H44   H     H_    0.365178 0.800118 0.393536 0.277467
H45   H     H_    0.820960 0.362805 0.932029 0.190396
H46   H     H_    0.200571 0.843102 0.300182 0.259539
H47   H     H_    0.428091 0.551287 0.723360 0.181912
H48   H     H_    0.153505 0.119081 0.558673 0.150444
H49   H     H_    0.082637 0.200689 0.145372 0.162410
H50   H     H_    0.976292 0.238939 0.012797 0.111867
N1    N     N_2   0.313640 0.446500 0.454900 -0.209283
N2    N     N_2   0.686360 0.553430 0.545150 -0.169228
N3    N     N_3   0.996726 0.884237 0.659021 -0.386857
N4    N     N_3   0.811937 0.077569 0.550347 -0.439599
N5    N     N_3   0.568829 0.394273 0.409727 -0.371970
N6    N     N_3   0.017170 0.609059 0.869417 -0.401727
O1    O     O_R   0.936910 0.692950 0.509080 -0.593399
O2    O     O_3   0.637619 0.416813 0.761273 -0.663547
O3    O     O_3   0.597654 0.568716 0.196194 -0.602512
O4    O     O_3   0.371413 0.399513 0.131977 -0.589890
O5    O     O_3   0.141916 0.538613 0.087131 -0.589685
O6    O     O_R   0.138320 0.658600 0.480130 -0.626084
O7    O     O_R   0.002900 0.525670 0.675280 -0.575497
O8    O     O_R   0.204310 0.491320 0.646330 -0.642137
O9    O     O_R   0.861680 0.341400 0.519870 -0.597904
O10   O     O_R   0.063090 0.307050 0.490920 -0.617242
O11   O     O_R   0.795690 0.508680 0.353670 -0.569168
O12   O     O_R   0.997100 0.474330 0.324720 -0.567307
O13   O     O_3   0.970261 0.347736 0.148233 -0.576641
Zn1   Zn    Zn3+2 0.865520 0.522940 0.519330 0.979665
Zn2   Zn    Zn3+2 0.134480 0.477060 0.480670 0.928464

loop_
_geom_bond_atom_site_label_1
_geom_bond_atom_site_label_2
_ccdc_geom_bond_type
C8    C9    S    
O10   Zn2   S    
H8    N3    S    
C19   C20   S    
C38   O3    S    
C9    N2    D    
C32   H42   S    
C13   H45   S    
C26   C27   S    
O8    Zn2   S    
C28   C29   S    
H34   N1    S    
C13   C35   A    
C1    O1    A    
C15   N6    S    
C21   H15   S    
C11   C14   S    
H7    N3    S    
C15   C16   A    
C33   H44   S    
C4    O8    A    
C30   H37   S    
C34   C35   A    
C26   H25   S    
C33   H46   S    
C14   C39   A    
C10   O10   A    
C30   H38   S    
C7    H48   S    
C35   C36   A    
C24   H18   S    
C4    O7    A    
C12   C17   A    
H13   N5    S    
C36   O2    S    
C25   H21   S    
C33   H43   S    
C20   H6    S    
C19   H3    S    
C29   H33   S    
C21   C22   S    
C20   H5    S    
C39   O13   S    
C28   H31   S    
H29   N6    S    
H9    N4    S    
C37   H47   S    
C5    C7    S    
C16   O5    S    
C22   H17   S    
C29   H35   S    
H30   N6    S    
C25   C26   S    
C23   C37   A    
C18   H49   S    
C1    C3    S    
C2    C4    S    
C26   H24   S    
C29   C30   S    
C27   H26   S    
C32   H41   S    
C21   O2    S    
C31   C32   S    
C12   C23   A    
C6    N4    S    
H23   N2    S    
C11   O11   A    
C25   H22   S    
C31   O5    S    
C2    C15   A    
C17   O4    S    
C8    H12   S    
C22   H16   S    
C28   O4    S    
C3    H1    S    
C11   O12   A    
O12   Zn2   S    
C22   C24   S    
C28   H32   S    
C8    N1    D    
N1    Zn2   S    
C12   C34   A    
C14   C38   A    
C1    O6    A    
C20   H4    S    
C31   H39   S    
C36   C37   A    
C34   C38   A    
C18   H50   S    
H11   N5    S    
C3    C5    D    
C6    C10   S    
C31   H40   S    
C6    C7    D    
O1    Zn1   S    
C32   C33   S    
N2    Zn1   S    
C10   O9    A    
O6    Zn2   S    
C27   H27   S    
C21   H14   S    
C30   H36   S    
C16   C17   A    
C24   H20   S    
C18   O13   S    
C13   C39   A    
C5    N3    S    
C27   H28   S    
C25   O3    S    
C24   H19   S    
C2    C23   A    
C18   C19   S    
O9    Zn1   S    
O7    Zn1   S    
H10   N4    S    
C9    N5    S    
C19   H2    S    
O11   Zn1   S    
