data_mof_unit_54618.cif
_audit_creation_date              2012-12-10T17:22:07-0500
_audit_creation_method            fapswitch 2.2
_symmetry_space_group_name_H-M    P1
_symmetry_Int_Tables_number       1
_space_group_crystal_system       triclinic
_cell_length_a                    15.87869
_cell_length_b                    10.866599
_cell_length_c                    9.603181
_cell_angle_alpha                 90.634903
_cell_angle_beta                  90.031176
_cell_angle_gamma                 93.776275
_cell_volume                      1653.30299635

loop_
_atom_site_label
_atom_site_type_symbol
_atom_type_description
_atom_site_fract_x
_atom_site_fract_y
_atom_site_fract_z
_atom_type_partial_charge
C1    C     C_R   0.506691 0.263418 0.499983 0.777666
C2    C     C_3   0.955692 0.578764 0.633492 0.305090
C3    C     C_3   0.917091 0.502297 0.506651 0.171539
C4    C     C_3   0.953256 0.562402 0.371426 -0.443027
C5    C     C_3   0.050734 0.561160 0.369092 -0.379166
C6    C     C_1   0.824878 0.501860 0.503041 -0.019666
C7    C     C_1   0.175021 0.501292 0.501440 -0.084251
C8    C     C_1   0.250580 0.500461 0.500327 -0.176610
C9    C     C_R   0.562633 0.127315 0.749308 -0.141055
C10   C     C_R   0.556763 0.070492 0.878489 -0.142223
C11   C     C_R   0.515733 0.954294 0.889437 -0.170303
C12   C     C_R   0.340290 0.499620 0.500045 0.814378
C13   C     C_R   0.488473 0.889937 0.769551 -0.125241
C14   C     C_R   0.502734 0.940957 0.635368 0.120506
C15   C     C_R   0.527538 0.067631 0.628545 0.086926
C16   C     C_R   0.514965 0.130066 0.501920 -0.114126
C17   C     C_R   0.498780 0.062439 0.378969 -0.203945
C18   C     C_R   0.491905 0.935061 0.381200 -0.222309
C19   C     C_R   0.493438 0.872398 0.507855 -0.119172
C20   C     C_R   0.613126 0.663487 0.151236 -0.151829
C21   C     C_R   0.670261 0.744171 0.085820 -0.329617
C22   C     C_R   0.672722 0.746725 0.943748 -0.143187
C23   C     C_R   0.495936 0.737581 0.501856 0.832937
C24   C     C_R   0.617991 0.669393 0.864690 0.639760
C25   C     C_R   0.556965 0.582185 0.927225 0.049104
C26   C     C_R   0.556013 0.581041 0.077236 0.152201
C27   C     C_R   0.447121 0.422583 0.072649 -0.052279
C28   C     C_R   0.447099 0.422621 0.924945 -0.059540
C29   C     C_R   0.659657 0.500246 0.499990 0.858444
C30   C     C_3   0.053742 0.577223 0.630795 -0.441088
C31   C     C_3   0.042677 0.368609 0.513567 -0.366683
C32   C     C_3   0.945167 0.368355 0.510014 -0.346567
C33   C     C_1   0.749309 0.501114 0.500607 -0.100445
C34   C     C_3   0.082833 0.502130 0.503525 0.258099
Cu1   Cu    Cu3+1 0.499990 0.499990 0.640660 0.986062
Cu2   Cu    Cu3+1 0.500010 0.500010 0.359340 0.942891
H1    H     H_    0.081903 0.673643 0.625865 0.142312
H2    H     H_    0.939168 0.676049 0.621199 0.091221
H3    H     H_    0.926613 0.511888 0.278178 0.220612
H4    H     H_    0.491082 0.107917 0.280368 0.162993
H5    H     H_    0.596068 0.217107 0.745190 0.167753
H6    H     H_    0.581695 0.118281 0.970656 0.145066
H7    H     H_    0.506421 0.912759 0.990723 0.133356
H8    H     H_    0.453472 0.802973 0.785854 0.152949
H9    H     H_    0.483595 0.885644 0.283023 0.164779
H10   H     H_    0.403711 0.358939 0.126872 0.131146
H11   H     H_    0.078183 0.536942 0.727613 0.192955
H12   H     H_    0.617408 0.670773 0.260772 0.223817
H13   H     H_    0.712954 0.805634 0.146251 0.188064
H14   H     H_    0.717587 0.811095 0.893189 0.193506
H15   H     H_    0.403716 0.359015 0.868947 0.138968
H16   H     H_    0.064637 0.311413 0.425572 0.166601
H17   H     H_    0.062889 0.325762 0.611810 0.189545
H18   H     H_    0.917636 0.318022 0.600928 0.221716
H19   H     H_    0.921134 0.316849 0.415684 0.165956
H20   H     H_    0.078961 0.657203 0.359549 0.171668
H21   H     H_    0.070607 0.508317 0.276118 0.186656
H22   H     H_    0.934762 0.659199 0.364388 0.176653
N1    N     N_R   0.500800 0.501210 0.147910 -0.182509
N2    N     N_R   0.500820 0.501290 0.852040 -0.190705
O1    O     O_R   0.499990 0.319640 0.618810 -0.596964
O2    O     O_R   0.500000 0.319660 0.381240 -0.582831
O3    O     O_R   0.379430 0.499990 0.618840 -0.584299
O4    O     O_R   0.379440 0.500020 0.381260 -0.575922
O5    O     O_R   0.500000 0.680340 0.618760 -0.533358
O6    O     O_R   0.500010 0.680360 0.381190 -0.614909
O7    O     O_R   0.620560 0.499980 0.618740 -0.493907
O8    O     O_R   0.620570 0.500010 0.381160 -0.610707
S1    S     S_3+6 0.914916 0.531962 0.802141 -0.015778
O9    O     O_2   0.820165 0.528020 0.803546 -0.248217
O10   O     O_2   0.942785 0.407030 0.839932 -0.325037
O11   O     O_3   0.951337 0.635744 0.922678 -0.522017
H23   H     H_    0.009242 0.613165 0.944696 0.339048
F1    F     F_    0.629598 0.689708 0.729065 -0.653454

loop_
_geom_bond_atom_site_label_1
_geom_bond_atom_site_label_2
_ccdc_geom_bond_type
C10   H6    S    
C5    H20   S    
Cu1   Cu2   S    
C31   H16   S    
C3    C6    S    
C1    O2    A    
C21   H13   S    
C7    C8    T    
C23   O6    A    
C21   C22   A    
C12   O4    A    
C28   H15   S    
Cu2   O6    S    
Cu1   O5    S    
C15   C16   A    
C29   C33   S    
C18   C19   A    
S1    O10   D    
C29   O7    A    
C16   C17   A    
C11   H7    S    
C25   N2    A    
C2    S1    S    
C26   N1    A    
C32   H19   S    
C22   H14   S    
Cu2   N1    S    
C13   C14   A    
C3    C32   S    
Cu2   O2    S    
C32   H18   S    
C28   N2    A    
C30   C34   S    
C30   H11   S    
C24   C25   A    
C12   O3    A    
C4    C5    S    
C25   C26   A    
C30   H1    S    
Cu1   N2    S    
C17   H4    S    
S1    O11   S    
C19   C23   S    
C29   O8    A    
C2    H2    S    
C31   C32   S    
C4    H3    S    
Cu1   O7    S    
C8    C12   S    
C5    C34   S    
C17   C18   A    
C31   C34   S    
Cu1   O1    S    
C1    C16   S    
C31   H17   S    
C20   H12   S    
C27   H10   S    
C7    C34   S    
C22   C24   A    
C3    C4    S    
C18   H9    S    
C9    C10   A    
C14   C19   A    
O11   H23   S    
C1    O1    A    
Cu2   O8    S    
C9    H5    S    
C6    C33   T    
C5    H21   S    
C2    C30   S    
C23   O5    A    
C2    C3    S    
C9    C15   A    
C27   N1    A    
C11   C13   A    
C24   F1    S    
C20   C26   A    
S1    O9    D    
C10   C11   A    
C20   C21   A    
C4    H22   S    
C27   C28   A    
C14   C15   A    
Cu1   O3    S    
Cu2   O4    S    
C13   H8    S    
