data_mof_unit_12443.cif
_audit_creation_date              2012-12-10T18:36:58-0500
_audit_creation_method            fapswitch 2.2
_symmetry_space_group_name_H-M    P1
_symmetry_Int_Tables_number       1
_space_group_crystal_system       triclinic
_cell_length_a                    14.980728
_cell_length_b                    15.439798
_cell_length_c                    23.442383
_cell_angle_alpha                 89.917155
_cell_angle_beta                  104.912481
_cell_angle_gamma                 82.169717
_cell_volume                      5186.96001185

loop_
_atom_site_label
_atom_site_type_symbol
_atom_type_description
_atom_site_fract_x
_atom_site_fract_y
_atom_site_fract_z
_atom_type_partial_charge
C1    C     C_R   0.441637 0.662374 0.490415 0.871230
C2    C     C_R   0.558205 0.337693 0.506850 0.872796
C3    C     C_R   0.584585 0.521409 0.774847 -0.098461
C4    C     C_R   0.415328 0.478681 0.225161 -0.095171
C5    C     C_R   0.583420 0.519509 0.715397 -0.217471
C6    C     C_R   0.416527 0.480549 0.284616 -0.211816
C7    C     C_R   0.502882 0.502584 0.673245 -0.044518
C8    C     C_R   0.497095 0.497425 0.326760 -0.043529
C9    C     C_R   0.423592 0.487981 0.691304 -0.215853
C10   C     C_R   0.576383 0.512000 0.308693 -0.210268
C11   C     C_R   0.425008 0.489970 0.750674 -0.107603
C12   C     C_R   0.574935 0.510039 0.249318 -0.104143
C13   C     C_R   0.505405 0.506573 0.792380 0.317411
C14   C     C_R   0.494507 0.493493 0.207618 0.314730
C15   C     C_R   0.406512 0.754941 0.475938 -0.059651
C16   C     C_R   0.592395 0.245494 0.501730 -0.056564
C17   C     C_R   0.282556 0.873621 0.436069 -0.163880
C18   C     C_R   0.715463 0.126636 0.501323 -0.171802
C19   C     C_R   0.311385 0.785616 0.453538 -0.210777
C20   C     C_R   0.687218 0.214690 0.509293 -0.214254
C21   C     C_R   0.471858 0.812104 0.479807 -0.222968
C22   C     C_R   0.526502 0.188792 0.484207 -0.226972
C23   C     C_R   0.501024 0.500571 0.610673 0.872366
C24   C     C_R   0.498972 0.499431 0.389327 0.873754
C25   C     C_R   0.445306 0.898791 0.459169 0.058406
C26   C     C_R   0.552544 0.101613 0.473317 0.058676
C27   C     C_R   0.348790 0.931343 0.439658 0.062561
C28   C     C_R   0.648968 0.068806 0.485041 0.065562
C29   C     C_R   0.513197 0.954700 0.461513 0.006998
C30   C     C_R   0.484389 0.045313 0.455689 0.009142
C31   C     C_R   0.388491 0.076785 0.432578 -0.322486
C32   C     C_R   0.608861 0.922818 0.469400 -0.324339
C33   C     C_R   0.320480 0.020805 0.425142 0.473003
C34   C     C_R   0.676871 0.978869 0.481752 0.471135
C35   C     C_R   0.840640 0.643109 0.583566 -0.335362
C36   C     C_R   0.158963 0.357806 0.415703 -0.327087
C37   C     C_R   0.752202 0.618652 0.570519 0.011327
C38   C     C_R   0.247299 0.382479 0.428597 0.011339
C39   C     C_R   0.794576 0.508278 0.508134 -0.061237
C40   C     C_R   0.205966 0.490526 0.492778 -0.062962
C41   C     C_R   0.885923 0.529688 0.519585 0.000342
C42   C     C_R   0.114711 0.468932 0.481451 -0.001020
C43   C     C_R   0.907785 0.599052 0.558072 0.184727
C44   C     C_R   0.092509 0.400328 0.442366 0.184524
C45   C     C_R   0.544518 0.425608 0.126766 0.513983
C46   C     C_R   0.455350 0.574449 0.873223 0.512719
C47   C     C_R   0.955227 0.485626 0.494063 0.080321
C48   C     C_R   0.045653 0.512473 0.507372 0.080325
C49   C     C_R   0.063853 0.582168 0.545821 -0.233130
C50   C     C_R   0.937085 0.415845 0.455675 -0.234440
C51   C     C_R   0.996126 0.624286 0.570655 -0.210235
C52   C     C_R   0.004471 0.374468 0.430258 -0.210638
C53   C     C_R   0.443738 0.562323 0.110700 0.512491
C54   C     C_R   0.556170 0.437756 0.889299 0.511083
C55   C     C_R   0.445292 0.566150 0.051516 -0.023252
C56   C     C_R   0.554604 0.433925 0.948481 -0.022424
C57   C     C_R   0.498537 0.498045 0.029778 -0.061142
C58   C     C_R   0.501346 0.502024 0.970216 -0.061285
C59   C     C_R   0.548964 0.426205 0.067528 -0.014587
C60   C     C_R   0.450915 0.573861 0.932464 -0.014475
C61   C     C_R   0.395570 0.637068 0.014168 -0.214974
C62   C     C_R   0.604336 0.363014 0.985830 -0.216127
C63   C     C_R   0.397782 0.641732 0.955103 0.116250
C64   C     C_R   0.602115 0.358345 0.044893 0.115820
H1    H     H_    0.354526 0.689753 0.030604 0.190833
H2    H     H_    0.645399 0.310339 0.969399 0.190165
H3    H     H_    0.208531 0.896247 0.420111 0.179770
H4    H     H_    0.789325 0.103873 0.508875 0.175662
H5    H     H_    0.365414 0.144368 0.417807 0.150681
H6    H     H_    0.632155 0.854583 0.464322 0.162518
H7    H     H_    0.013046 0.677469 0.599855 0.144187
H8    H     H_    0.987469 0.321508 0.400869 0.147342
H9    H     H_    0.230483 0.540384 0.522328 0.126872
H10   H     H_    0.770426 0.457626 0.479190 0.126060
H11   H     H_    0.299727 0.349718 0.408722 0.130913
H12   H     H_    0.699321 0.652434 0.589605 0.130699
H13   H     H_    0.856318 0.696070 0.613094 0.147245
H14   H     H_    0.142786 0.306016 0.385252 0.141349
H15   H     H_    0.129869 0.606533 0.557707 0.140158
H16   H     H_    0.871219 0.391181 0.444034 0.141051
H17   H     H_    0.646789 0.534230 0.807322 0.140581
H18   H     H_    0.353101 0.465900 0.192691 0.141761
H19   H     H_    0.645370 0.531096 0.702551 0.163573
H20   H     H_    0.354579 0.468983 0.297471 0.164601
H21   H     H_    0.360535 0.474980 0.659712 0.163349
H22   H     H_    0.639462 0.524958 0.340283 0.164931
H23   H     H_    0.363904 0.478195 0.764465 0.138800
H24   H     H_    0.636041 0.521787 0.235519 0.140404
H25   H     H_    0.454318 0.212801 0.481246 0.156027
H26   H     H_    0.544145 0.788510 0.500631 0.154175
H27   H     H_    0.739333 0.258237 0.521725 0.159406
H28   H     H_    0.259569 0.741880 0.449537 0.163115
N1    N     N_R   0.493191 0.493203 0.146678 -0.365102
N2    N     N_R   0.506700 0.506864 0.853317 -0.364669
N3    N     N_R   0.731690 0.552740 0.533440 -0.098029
N4    N     N_R   0.268310 0.447260 0.466560 -0.098543
O1    O     O_R   0.383120 0.605620 0.483150 -0.615560
O2    O     O_R   0.616880 0.394380 0.516850 -0.615966
O3    O     O_R   0.531890 0.639510 0.504600 -0.623680
O4    O     O_R   0.468110 0.360490 0.495400 -0.623420
O5    O     O_R   0.425590 0.483070 0.573110 -0.619997
O6    O     O_R   0.574410 0.516930 0.426890 -0.619974
O7    O     O_R   0.574360 0.516970 0.594570 -0.619140
O8    O     O_R   0.425640 0.483030 0.405430 -0.620121
O9    O     O_2   0.590730 0.358589 0.164528 -0.524688
O10   O     O_2   0.409104 0.641447 0.835454 -0.529344
O11   O     O_2   0.394237 0.627652 0.132567 -0.554677
O12   O     O_2   0.605699 0.372441 0.867440 -0.558769
Zn1   Zn    Zn3+2 0.400660 0.477370 0.485670 0.945079
Zn2   Zn    Zn3+2 0.599340 0.522630 0.514330 0.945090
N5    N     N_3   0.345598 0.715760 0.918744 -0.375189
H29   H     H_    0.369296 0.772332 0.937860 0.190462
H30   H     H_    0.275508 0.718483 0.918846 0.186751
N6    N     N_3   0.654327 0.284331 0.081257 -0.372535
H31   H     H_    0.630659 0.227747 0.062142 0.191311
H32   H     H_    0.724415 0.281639 0.081158 0.188387
O13   O     O_3   0.227075 0.051516 0.399563 -0.645049
C65   C     C_3   0.190514 0.112696 0.435671 0.072799
H33   H     H_    0.127758 0.152562 0.406850 0.172236
H34   H     H_    0.238892 0.159608 0.455692 0.128029
C66   C     C_3   0.160366 0.066095 0.483890 -0.374985
H35   H     H_    0.110868 0.020609 0.463256 0.233256
H36   H     H_    0.222374 0.027446 0.514338 0.216488
C67   C     C_3   0.113067 0.131694 0.519385 -0.919713
H37   H     H_    0.161740 0.177242 0.541053 0.267792
H38   H     H_    0.092212 0.096229 0.554029 0.264505
H39   H     H_    0.049614 0.169989 0.490085 0.263351
O14   O     O_3   0.769981 0.946787 0.487220 -0.644657
C68   C     C_3   0.806968 0.891142 0.538417 0.075331
H40   H     H_    0.863623 0.842891 0.529686 0.179104
H41   H     H_    0.755781 0.852216 0.549413 0.122552
C69   C     C_3   0.848703 0.943995 0.591478 -0.373260
H42   H     H_    0.901486 0.980716 0.580675 0.230445
H43   H     H_    0.792706 0.991746 0.601449 0.220646
C70   C     C_3   0.895043 0.884655 0.646122 -0.941265
H44   H     H_    0.842910 0.849000 0.658646 0.260078
H45   H     H_    0.925148 0.924815 0.683576 0.274553
H46   H     H_    0.952057 0.836728 0.637547 0.257749

loop_
_geom_bond_atom_site_label_1
_geom_bond_atom_site_label_2
_ccdc_geom_bond_type
C70   H46   S    
C33   O13   S    
O2    Zn2   S    
N5    H29   S    
C45   N1    A    
O14   C68   S    
C1    O3    A    
N6    H31   S    
C70   H44   S    
C39   C41   A    
C23   O5    A    
C27   C33   A    
C15   C19   A    
C59   C64   A    
C51   H7    S    
O7    Zn2   S    
C35   C37   A    
C29   C32   A    
O8    Zn1   S    
C5    H19   S    
C57   C59   A    
C18   H4    S    
C55   C61   A    
C40   H9    S    
C37   N3    A    
C70   H45   S    
C39   H10   S    
C61   C63   A    
C65   H33   S    
C66   C67   S    
C62   C64   A    
C19   H28   S    
C9    H21   S    
C23   O7    A    
C11   H23   S    
C69   H42   S    
C49   C51   A    
C3    H17   S    
C50   C52   A    
C31   C33   A    
C1    C15   S    
C2    C16   S    
C14   N1    S    
C18   C20   A    
C3    C13   A    
C21   H26   S    
C68   C69   S    
C44   C52   A    
C40   C42   A    
C28   C34   A    
O4    Zn1   S    
C4    C14   A    
C41   C43   A    
C42   C44   A    
C40   N4    A    
C45   O9    S    
C47   C50   A    
C38   H11   S    
C53   C55   A    
C25   C29   A    
C20   H27   S    
C54   C56   A    
C17   H3    S    
C64   N6    S    
C62   H2    S    
C53   N1    A    
C17   C27   A    
C6    H20   S    
C4    C6    A    
C1    O1    A    
C5    C7    A    
C12   H24   S    
C32   H6    S    
O3    Zn2   S    
C58   C60   A    
C35   H13   S    
C49   H15   S    
C24   O8    A    
C65   C66   S    
C32   C34   A    
C29   C30   A    
C52   H8    S    
O1    Zn1   S    
C53   O11   S    
N6    H32   S    
C47   C48   A    
C46   N2    A    
C31   H5    S    
C16   C20   A    
C41   C47   A    
C18   C28   A    
N5    H30   S    
C42   C48   A    
C9    C11   A    
C39   N3    A    
C66   H35   S    
C56   C62   A    
C10   C12   A    
C67   H39   S    
C8    C10   A    
C48   C49   A    
C37   H12   S    
C12   C14   A    
C26   C30   A    
C55   C57   A    
C60   C63   A    
C36   C44   A    
C66   H36   S    
C35   C43   A    
C67   H38   S    
C68   H40   S    
C7    C9    A    
C21   C25   A    
C45   C59   A    
C16   C22   A    
C46   C60   A    
C3    C5    A    
N3    Zn2   S    
C50   H16   S    
C6    C8    A    
C34   O14   S    
C25   C27   A    
N4    Zn1   S    
C26   C28   A    
C54   O12   S    
C13   N2    S    
C36   C38   A    
C36   H14   S    
O13   C65   S    
C11   C13   A    
C10   H22   S    
C57   C58   A    
C30   C31   A    
C43   C51   A    
C69   C70   S    
C7    C23   S    
C46   O10   S    
C17   C19   A    
C22   H25   S    
C56   C58   A    
C24   O6    A    
C63   N5    S    
C65   H34   S    
C54   N2    A    
O6    Zn2   S    
C2    O4    A    
C61   H1    S    
C15   C21   A    
C4    H18   S    
C8    C24   S    
C2    O2    A    
C69   H43   S    
C22   C26   A    
C38   N4    A    
O5    Zn1   S    
C67   H37   S    
C68   H41   S    
