data_mof_unit_9524.cif
_audit_creation_date              2012-12-11T15:22:31-0500
_audit_creation_method            fapswitch 2.2
_symmetry_space_group_name_H-M    P1
_symmetry_Int_Tables_number       1
_space_group_crystal_system       monoclinic
_cell_length_a                    22.439103
_cell_length_b                    12.991281
_cell_length_c                    27.036942
_cell_angle_alpha                 90.0
_cell_angle_beta                  90.539232
_cell_angle_gamma                 90.0
_cell_volume                      7881.26270813

loop_
_atom_site_label
_atom_site_type_symbol
_atom_type_description
_atom_site_fract_x
_atom_site_fract_y
_atom_site_fract_z
_atom_type_partial_charge
C1    C     C_R   0.720675 0.344827 0.178211 0.541353
C2    C     C_R   0.279324 0.344827 0.821789 0.541353
C3    C     C_R   0.220675 0.844827 0.178211 0.541353
C4    C     C_R   0.779324 0.844827 0.821789 0.541353
C5    C     C_R   0.473540 0.162583 0.872154 -0.005653
C6    C     C_R   0.526460 0.162583 0.127846 -0.005653
C7    C     C_R   0.973540 0.662583 0.872154 -0.005653
C8    C     C_R   0.026460 0.662583 0.127846 -0.005653
C9    C     C_R   0.520886 0.256947 0.102699 -0.134409
C10   C     C_R   0.479113 0.256947 0.897301 -0.134409
C11   C     C_R   0.020886 0.756946 0.102699 -0.134409
C12   C     C_R   0.979113 0.756947 0.897301 -0.134409
C13   C     C_R   0.509130 0.258329 0.051655 0.010875
C14   C     C_R   0.490869 0.258329 0.948344 0.010875
C15   C     C_R   0.009130 0.758329 0.051655 0.010875
C16   C     C_R   0.990869 0.758329 0.948344 0.010875
C17   C     C_R   0.503861 0.164309 0.025805 0.064083
C18   C     C_R   0.496139 0.164309 0.974195 0.064083
C19   C     C_R   0.003861 0.664309 0.025805 0.064083
C20   C     C_R   0.996139 0.664309 0.974195 0.064083
C21   C     C_R   0.504834 0.351576 0.025615 -0.136212
C22   C     C_R   0.495166 0.351576 0.974385 -0.136212
C23   C     C_R   0.004834 0.851576 0.025615 -0.136212
C24   C     C_R   0.995166 0.851576 0.974385 -0.136212
C25   C     C_R   0.736616 0.962923 0.128686 0.022654
C26   C     C_R   0.263384 0.962923 0.871314 0.022654
C27   C     C_R   0.236616 0.462923 0.128686 0.022654
C28   C     C_R   0.763384 0.462923 0.871314 0.022654
C29   C     C_R   0.792410 0.952854 0.106349 -0.125497
C30   C     C_R   0.207590 0.952855 0.893651 -0.125497
C31   C     C_R   0.292410 0.452854 0.106349 -0.125497
C32   C     C_R   0.707590 0.452855 0.893651 -0.125497
C33   C     C_R   0.795809 0.932191 0.055781 -0.108149
C34   C     C_R   0.204191 0.932191 0.944219 -0.108149
C35   C     C_R   0.295808 0.432191 0.055781 -0.108149
C36   C     C_R   0.704191 0.432191 0.944219 -0.108149
C37   C     C_R   0.743477 0.923946 0.026983 0.034077
C38   C     C_R   0.256522 0.923946 0.973017 0.034076
C39   C     C_R   0.243477 0.423946 0.026983 0.034077
C40   C     C_R   0.756522 0.423946 0.973017 0.034076
C41   C     C_R   0.687922 0.933820 0.049529 -0.102648
C42   C     C_R   0.312077 0.933820 0.950471 -0.102648
C43   C     C_R   0.187922 0.433820 0.049529 -0.102648
C44   C     C_R   0.812078 0.433820 0.950471 -0.102648
C45   C     C_R   0.553943 0.157187 0.177370 0.545254
C46   C     C_R   0.446057 0.157187 0.822630 0.545256
C47   C     C_R   0.053943 0.657187 0.177370 0.545254
C48   C     C_R   0.946057 0.657187 0.822630 0.545256
C49   C     C_R   0.684489 0.950885 0.099997 -0.121652
C50   C     C_R   0.315511 0.950885 0.900003 -0.121652
C51   C     C_R   0.184489 0.450885 0.099997 -0.121652
C52   C     C_R   0.815511 0.450885 0.900003 -0.121652
C53   C     C_R   0.712745 0.833754 0.948107 -0.000961
C54   C     C_R   0.287255 0.833754 0.051893 -0.000961
C55   C     C_R   0.212745 0.333755 0.948107 -0.000961
C56   C     C_R   0.787255 0.333755 0.051893 -0.000961
C57   C     C_R   0.719627 0.820159 0.897366 -0.128416
C58   C     C_R   0.280373 0.820159 0.102634 -0.128416
C59   C     C_R   0.219627 0.320159 0.897366 -0.128416
C60   C     C_R   0.780373 0.320159 0.102634 -0.128416
C61   C     C_R   0.792811 0.957273 0.895467 -0.128850
C62   C     C_R   0.207189 0.957273 0.104532 -0.128850
C63   C     C_R   0.292811 0.457273 0.895467 -0.128850
C64   C     C_R   0.707189 0.457273 0.104532 -0.128850
C65   C     C_R   0.785441 0.972605 0.945940 -0.132067
C66   C     C_R   0.214559 0.972605 0.054060 -0.132067
C67   C     C_R   0.285441 0.472605 0.945940 -0.132067
C68   C     C_R   0.714558 0.472605 0.054060 -0.132067
C69   C     C_R   0.746816 0.909558 0.973030 0.014074
C70   C     C_R   0.253184 0.909558 0.026970 0.014074
C71   C     C_R   0.246816 0.409558 0.973030 0.014074
C72   C     C_R   0.753184 0.409558 0.026970 0.014074
C73   C     C_R   0.761209 0.878997 0.871105 0.007790
C74   C     C_R   0.238791 0.878997 0.128895 0.007790
C75   C     C_R   0.261209 0.378997 0.871105 0.007790
C76   C     C_R   0.738791 0.378997 0.128895 0.007790
C77   C     C_R   0.528050 0.168666 0.371068 0.022873
C78   C     C_R   0.471950 0.168666 0.628932 0.022872
C79   C     C_R   0.028050 0.668667 0.371068 0.022873
C80   C     C_R   0.971950 0.668667 0.628932 0.022872
C81   C     C_R   0.537369 0.259330 0.398417 -0.126993
C82   C     C_R   0.462631 0.259330 0.601583 -0.126993
C83   C     C_R   0.037369 0.759330 0.398417 -0.126993
C84   C     C_R   0.962631 0.759330 0.601583 -0.126993
C85   C     C_R   0.525903 0.261579 0.448907 -0.122200
C86   C     C_R   0.474097 0.261579 0.551092 -0.122200
C87   C     C_R   0.025903 0.761579 0.448907 -0.122200
C88   C     C_R   0.974097 0.761579 0.551092 -0.122200
C89   C     C_R   0.730815 0.002973 0.179038 0.540228
C90   C     C_R   0.269185 0.002973 0.820962 0.540227
C91   C     C_R   0.230815 0.502973 0.179038 0.540228
C92   C     C_R   0.769185 0.502973 0.820962 0.540227
C93   C     C_R   0.504006 0.173753 0.472901 0.037002
C94   C     C_R   0.495994 0.173753 0.527099 0.037002
C95   C     C_R   0.004006 0.673753 0.472901 0.037002
C96   C     C_R   0.995994 0.673753 0.527099 0.037002
C97   C     C_R   0.490794 0.085355 0.444867 -0.121460
C98   C     C_R   0.509206 0.085355 0.555133 -0.121460
C99   C     C_R   0.990794 0.585355 0.444867 -0.121460
C100  C     C_R   0.009206 0.585355 0.555133 -0.121460
C101  C     C_R   0.503051 0.082617 0.394420 -0.132609
C102  C     C_R   0.496949 0.082617 0.605580 -0.132609
C103  C     C_R   0.003051 0.582617 0.394420 -0.132609
C104  C     C_R   0.996949 0.582617 0.605580 -0.132609
C105  C     C_R   0.738447 0.959886 0.372644 0.027863
C106  C     C_R   0.261553 0.959886 0.627356 0.027864
C107  C     C_R   0.238447 0.459886 0.372644 0.027863
C108  C     C_R   0.761553 0.459886 0.627356 0.027863
C109  C     C_R   0.686714 0.937502 0.399382 -0.125679
C110  C     C_R   0.313286 0.937502 0.600617 -0.125679
C111  C     C_R   0.186714 0.437502 0.399382 -0.125679
C112  C     C_R   0.813286 0.437503 0.600617 -0.125679
C113  C     C_R   0.689737 0.924368 0.449991 -0.123127
C114  C     C_R   0.310263 0.924368 0.550008 -0.123127
C115  C     C_R   0.189737 0.424368 0.449991 -0.123126
C116  C     C_R   0.810263 0.424368 0.550008 -0.123126
C117  C     C_R   0.744833 0.929015 0.474630 0.040231
C118  C     C_R   0.255167 0.929015 0.525370 0.040231
C119  C     C_R   0.244833 0.429016 0.474630 0.040231
C120  C     C_R   0.755167 0.429015 0.525370 0.040231
C121  C     C_R   0.797291 0.943183 0.447393 -0.118512
C122  C     C_R   0.202709 0.943183 0.552607 -0.118512
C123  C     C_R   0.297291 0.443183 0.447393 -0.118512
C124  C     C_R   0.702709 0.443183 0.552607 -0.118512
C125  C     C_R   0.794029 0.959970 0.396613 -0.127845
C126  C     C_R   0.205971 0.959970 0.603387 -0.127845
C127  C     C_R   0.294029 0.459970 0.396613 -0.127845
C128  C     C_R   0.705971 0.459970 0.603387 -0.127845
C129  C     C_R   0.788176 0.978245 0.556288 -0.134715
C130  C     C_R   0.211824 0.978245 0.443711 -0.134715
C131  C     C_R   0.288176 0.478245 0.556288 -0.134715
C132  C     C_R   0.711824 0.478245 0.443711 -0.134715
C133  C     C_R   0.721589 0.347949 0.321530 0.551075
C134  C     C_R   0.278411 0.347949 0.678469 0.551075
C135  C     C_R   0.221589 0.847949 0.321530 0.551075
C136  C     C_R   0.778411 0.847949 0.678469 0.551075
C137  C     C_R   0.794127 0.961878 0.606775 -0.162220
C138  C     C_R   0.205873 0.961878 0.393224 -0.162220
C139  C     C_R   0.294126 0.461878 0.606775 -0.162220
C140  C     C_R   0.705873 0.461878 0.393224 -0.162220
C141  C     C_R   0.711398 0.840418 0.603838 0.138609
C142  C     C_R   0.288602 0.840418 0.396162 0.138609
C143  C     C_R   0.211398 0.340418 0.603838 0.138609
C144  C     C_R   0.788602 0.340418 0.396162 0.138609
C145  C     C_R   0.707769 0.853974 0.552875 -0.106462
C146  C     C_R   0.292231 0.853974 0.447125 -0.106463
C147  C     C_R   0.207769 0.353974 0.552875 -0.106463
C148  C     C_R   0.792231 0.353974 0.447125 -0.106463
C149  C     C_R   0.747058 0.920396 0.528665 0.013159
C150  C     C_R   0.252942 0.920395 0.471335 0.013159
C151  C     C_R   0.247058 0.420396 0.528665 0.013159
C152  C     C_R   0.752942 0.420396 0.471335 0.013159
C153  C     C_R   0.758360 0.888637 0.630513 0.042233
C154  C     C_R   0.241640 0.888637 0.369487 0.042233
C155  C     C_R   0.258360 0.388637 0.630513 0.042233
C156  C     C_R   0.741640 0.388637 0.369487 0.042233
C157  C     C_R   0.554513 0.158856 0.321727 0.541709
C158  C     C_R   0.445486 0.158856 0.678272 0.541709
C159  C     C_R   0.054513 0.658856 0.321727 0.541709
C160  C     C_R   0.945486 0.658856 0.678272 0.541709
C161  C     C_R   0.731456 0.002586 0.323145 0.545238
C162  C     C_R   0.268544 0.002586 0.676855 0.545239
C163  C     C_R   0.231456 0.502586 0.323145 0.545238
C164  C     C_R   0.768544 0.502586 0.676855 0.545238
C165  C     C_R   0.516333 0.069961 0.102285 -0.137773
C166  C     C_R   0.483667 0.069961 0.897715 -0.137772
C167  C     C_R   0.016333 0.569961 0.102285 -0.137773
C168  C     C_R   0.983667 0.569961 0.897715 -0.137772
C169  C     C_R   0.506962 0.069945 0.051432 0.005255
C170  C     C_R   0.493038 0.069945 0.948568 0.005255
C171  C     C_R   0.006962 0.569945 0.051432 0.005255
C172  C     C_R   0.993038 0.569945 0.948568 0.005255
C173  C     C_R   0.496803 0.976652 0.974391 -0.138025
C174  C     C_R   0.503197 0.976652 0.025609 -0.138025
C175  C     C_R   0.996803 0.476652 0.974391 -0.138025
C176  C     C_R   0.003197 0.476652 0.025609 -0.138025
Cr1   Cr    Cr6+3 0.756570 0.170940 0.251190 1.027108
Cr2   Cr    Cr6+3 0.243430 0.170940 0.748810 1.027108
Cr3   Cr    Cr6+3 0.256570 0.670940 0.251190 1.027108
Cr4   Cr    Cr6+3 0.743430 0.670940 0.748810 1.027108
Cr5   Cr    Cr6+3 0.623740 0.299110 0.249580 1.011222
Cr6   Cr    Cr6+3 0.376260 0.299110 0.750420 1.011221
Cr7   Cr    Cr6+3 0.123740 0.799110 0.249580 1.011222
Cr8   Cr    Cr6+3 0.876260 0.799110 0.750420 1.011221
Cr9   Cr    Cr6+3 0.625990 0.036240 0.250480 1.008620
Cr10  Cr    Cr6+3 0.374010 0.036240 0.749520 1.008620
Cr11  Cr    Cr6+3 0.125990 0.536240 0.250480 1.008620
Cr12  Cr    Cr6+3 0.874010 0.536240 0.749520 1.008620
H1    H     H_    0.479842 0.996690 0.878735 0.129357
H2    H     H_    0.520158 0.996690 0.121265 0.129357
H3    H     H_    0.979842 0.496690 0.878735 0.129357
H4    H     H_    0.020158 0.496690 0.121265 0.129357
H5    H     H_    0.825196 0.003530 0.876005 0.135858
H6    H     H_    0.174804 0.003530 0.123995 0.135858
H7    H     H_    0.325196 0.503530 0.876005 0.135858
H8    H     H_    0.674804 0.503530 0.123995 0.135858
H9    H     H_    0.647073 0.931593 0.027887 0.128934
H10   H     H_    0.352927 0.931593 0.972113 0.128934
H11   H     H_    0.147073 0.431593 0.027887 0.128934
H12   H     H_    0.852927 0.431593 0.972113 0.128934
H13   H     H_    0.640770 0.961241 0.115895 0.137404
H14   H     H_    0.359230 0.961241 0.884105 0.137404
H15   H     H_    0.140770 0.461241 0.115895 0.137404
H16   H     H_    0.859230 0.461241 0.884105 0.137404
H17   H     H_    0.557292 0.326581 0.381611 0.131873
H18   H     H_    0.442707 0.326581 0.618389 0.131873
H19   H     H_    0.057293 0.826581 0.381611 0.131873
H20   H     H_    0.942707 0.826581 0.618389 0.131873
H21   H     H_    0.527787 0.017493 0.537863 0.097367
H22   H     H_    0.472213 0.017493 0.462137 0.097367
H23   H     H_    0.027787 0.517493 0.537863 0.097367
H24   H     H_    0.972213 0.517493 0.462137 0.097367
H25   H     H_    0.504655 0.011840 0.625826 0.115144
H26   H     H_    0.495344 0.011840 0.374174 0.115144
H27   H     H_    0.004655 0.511840 0.625826 0.115144
H28   H     H_    0.995344 0.511840 0.374174 0.115144
H29   H     H_    0.536895 0.330594 0.469509 0.097753
H30   H     H_    0.463105 0.330594 0.530490 0.097753
H31   H     H_    0.036895 0.830594 0.469509 0.097753
H32   H     H_    0.963105 0.830594 0.530490 0.097753
H33   H     H_    0.643008 0.938363 0.382003 0.137532
H34   H     H_    0.356992 0.938363 0.617997 0.137532
H35   H     H_    0.143008 0.438363 0.382003 0.137532
H36   H     H_    0.856992 0.438363 0.617997 0.137532
H37   H     H_    0.817204 0.033487 0.538648 0.107487
H38   H     H_    0.182796 0.033487 0.461352 0.107487
H39   H     H_    0.317204 0.533487 0.538648 0.107487
H40   H     H_    0.682796 0.533487 0.461352 0.107487
H41   H     H_    0.829274 0.002030 0.626602 0.129968
H42   H     H_    0.170726 0.002030 0.373398 0.129968
H43   H     H_    0.329274 0.502030 0.626602 0.129968
H44   H     H_    0.670726 0.502030 0.373398 0.129968
H45   H     H_    0.494000 0.903721 0.955042 0.122650
H46   H     H_    0.506000 0.903721 0.044958 0.122650
H47   H     H_    0.994000 0.403722 0.955042 0.122650
H48   H     H_    0.006000 0.403722 0.044958 0.122650
H49   H     H_    0.648423 0.915582 0.469914 0.098677
H50   H     H_    0.351577 0.915581 0.530086 0.098677
H51   H     H_    0.148423 0.415582 0.469914 0.098677
H52   H     H_    0.851577 0.415582 0.530086 0.098677
H53   H     H_    0.675119 0.809758 0.532175 0.090857
H54   H     H_    0.324881 0.809758 0.467824 0.090857
H55   H     H_    0.175119 0.309758 0.532175 0.090857
H56   H     H_    0.824881 0.309759 0.467824 0.090857
H57   H     H_    0.840557 0.944039 0.465464 0.100110
H58   H     H_    0.159443 0.944039 0.534536 0.100110
H59   H     H_    0.340557 0.444039 0.465464 0.100110
H60   H     H_    0.659443 0.444039 0.534536 0.100110
H61   H     H_    0.834379 0.977193 0.376546 0.121276
H62   H     H_    0.165621 0.977193 0.623454 0.121276
H63   H     H_    0.334379 0.477193 0.376546 0.121276
H64   H     H_    0.665621 0.477193 0.623454 0.121276
H65   H     H_    0.471380 0.328694 0.877799 0.125406
H66   H     H_    0.528620 0.328694 0.122201 0.125406
H67   H     H_    0.971380 0.828694 0.877799 0.125406
H68   H     H_    0.028619 0.828694 0.122201 0.125406
H69   H     H_    0.491155 0.424432 0.955133 0.117435
H70   H     H_    0.508845 0.424432 0.044866 0.117435
H71   H     H_    0.991155 0.924432 0.955133 0.117435
H72   H     H_    0.008845 0.924432 0.044866 0.117435
H73   H     H_    0.833065 0.963423 0.127658 0.123035
H74   H     H_    0.166935 0.963423 0.872342 0.123035
H75   H     H_    0.333065 0.463423 0.127658 0.123035
H76   H     H_    0.666935 0.463423 0.872342 0.123035
H77   H     H_    0.695389 0.758454 0.879122 0.139376
H78   H     H_    0.304611 0.758454 0.120878 0.139376
H79   H     H_    0.195389 0.258454 0.879122 0.139376
H80   H     H_    0.804611 0.258454 0.120878 0.139376
H81   H     H_    0.839204 0.924802 0.038915 0.121402
H82   H     H_    0.160796 0.924803 0.961085 0.121403
H83   H     H_    0.339204 0.424802 0.038915 0.121402
H84   H     H_    0.660795 0.424803 0.961085 0.121403
H85   H     H_    0.811167 0.032212 0.964178 0.151324
H86   H     H_    0.188833 0.032212 0.035822 0.151324
H87   H     H_    0.311167 0.532212 0.964178 0.151324
H88   H     H_    0.688833 0.532212 0.035822 0.151324
O1    O     O_R   0.769900 0.064540 0.196060 -0.520826
O2    O     O_R   0.230100 0.064540 0.803940 -0.520827
O3    O     O_R   0.269900 0.564540 0.196060 -0.520826
O4    O     O_R   0.730100 0.564540 0.803940 -0.520827
O5    O     O_R   0.574760 0.239320 0.300850 -0.504029
O6    O     O_R   0.425240 0.239320 0.699150 -0.504029
O7    O     O_R   0.074760 0.739320 0.300850 -0.504029
O8    O     O_R   0.925240 0.739320 0.699150 -0.504029
O9    O     O_R   0.566290 0.069580 0.305400 -0.524502
O10   O     O_R   0.433710 0.069580 0.694600 -0.524501
O11   O     O_R   0.066290 0.569580 0.305400 -0.524502
O12   O     O_R   0.933710 0.569580 0.694600 -0.524501
O13   O     O_R   0.680760 0.993330 0.302620 -0.509502
O14   O     O_R   0.319240 0.993330 0.697380 -0.509502
O15   O     O_R   0.180760 0.493330 0.302620 -0.509502
O16   O     O_R   0.819240 0.493330 0.697380 -0.509502
O17   O     O_3   0.668770 0.168760 0.250420 -0.241765
O18   O     O_3   0.331230 0.168760 0.749580 -0.241765
O19   O     O_3   0.168770 0.668760 0.250420 -0.241765
O20   O     O_3   0.831230 0.668760 0.749580 -0.241765
O21   O     O_R   0.750800 0.274080 0.199250 -0.510194
O22   O     O_R   0.249200 0.274080 0.800750 -0.510194
O23   O     O_R   0.250800 0.774080 0.199250 -0.510194
O24   O     O_R   0.749200 0.774080 0.800750 -0.510194
O25   O     O_R   0.669990 0.371670 0.194150 -0.519366
O26   O     O_R   0.330010 0.371670 0.805850 -0.519367
O27   O     O_R   0.169990 0.871670 0.194150 -0.519366
O28   O     O_R   0.830010 0.871670 0.805850 -0.519367
O29   O     O_R   0.574600 0.238480 0.197800 -0.499554
O30   O     O_R   0.425400 0.238480 0.802200 -0.499555
O31   O     O_R   0.074600 0.738480 0.197800 -0.499554
O32   O     O_R   0.925400 0.738480 0.802200 -0.499555
O33   O     O_R   0.566130 0.068680 0.194240 -0.527793
O34   O     O_R   0.433870 0.068680 0.805760 -0.527793
O35   O     O_R   0.066130 0.568680 0.194240 -0.527793
O36   O     O_R   0.933870 0.568680 0.805760 -0.527793
O37   O     O_R   0.680610 0.992490 0.199570 -0.506311
O38   O     O_R   0.319390 0.992490 0.800430 -0.506311
O39   O     O_R   0.180610 0.492490 0.199570 -0.506311
O40   O     O_R   0.819390 0.492490 0.800430 -0.506311
O41   O     O_R   0.770060 0.065440 0.307230 -0.504039
O42   O     O_R   0.229940 0.065440 0.692770 -0.504039
O43   O     O_R   0.270060 0.565440 0.307230 -0.504039
O44   O     O_R   0.729940 0.565440 0.692770 -0.504039
O45   O     O_R   0.750960 0.274920 0.302300 -0.460979
O46   O     O_R   0.249040 0.274920 0.697700 -0.460979
O47   O     O_R   0.250960 0.774920 0.302300 -0.460979
O48   O     O_R   0.749040 0.774920 0.697700 -0.460979
O49   O     O_R   0.670160 0.372580 0.305320 -0.534698
O50   O     O_R   0.329840 0.372580 0.694680 -0.534699
O51   O     O_R   0.170160 0.872580 0.305320 -0.534698
O52   O     O_R   0.829840 0.872580 0.694680 -0.534699
N1    N     N_2   0.669942 0.773495 0.627154 -0.479597
H89   H     H_    0.653350 0.715962 0.604589 0.237464
C177  C     C_3   0.623328 0.826580 0.653528 -0.288800
H90   H     H_    0.595045 0.769532 0.672907 0.133493
H91   H     H_    0.594977 0.871069 0.627223 0.118789
H92   H     H_    0.642715 0.879669 0.681599 0.155920
N2    N     N_2   0.330058 0.773495 0.372846 -0.479597
H93   H     H_    0.346650 0.715962 0.395411 0.237464
C178  C     C_3   0.376672 0.826580 0.346472 -0.288800
H94   H     H_    0.404954 0.769532 0.327093 0.133493
H95   H     H_    0.405023 0.871069 0.372777 0.118789
H96   H     H_    0.357285 0.879669 0.318401 0.155920
N3    N     N_2   0.169942 0.273496 0.627154 -0.479597
H97   H     H_    0.153350 0.215962 0.604589 0.237464
C179  C     C_3   0.123328 0.326580 0.653528 -0.288800
H98   H     H_    0.095045 0.269533 0.672907 0.133493
H99   H     H_    0.094977 0.371069 0.627223 0.118789
H100  H     H_    0.142715 0.379669 0.681599 0.155920
N4    N     N_2   0.830058 0.273496 0.372846 -0.479597
H101  H     H_    0.846650 0.215963 0.395411 0.237464
C180  C     C_3   0.876672 0.326581 0.346472 -0.288800
H102  H     H_    0.904955 0.269533 0.327093 0.133493
H103  H     H_    0.905023 0.371069 0.372776 0.118790
H104  H     H_    0.857285 0.379669 0.318400 0.155920
C181  C     C_1   0.673674 0.763908 0.973853 0.176721
N5    N     N_1   0.642194 0.708093 0.994343 -0.341112
C182  C     C_1   0.326325 0.763908 0.026146 0.176721
N6    N     N_1   0.357806 0.708093 0.005657 -0.341112
C183  C     C_1   0.173674 0.263908 0.973853 0.176721
N7    N     N_1   0.142194 0.208093 0.994343 -0.341112
C184  C     C_1   0.826325 0.263908 0.026146 0.176721
N8    N     N_1   0.857806 0.208093 0.005657 -0.341112

loop_
_geom_bond_atom_site_label_1
_geom_bond_atom_site_label_2
_ccdc_geom_bond_type
C99   C103  A    
C7    C168  A    
C92   O40   A    
C183  N7    T    
C55   C59   A    
C142  C146  A    
C131  C151  A    
C19   C20   A    
C45   O29   A    
C53   C69   A    
C38   C70   S    
C178  H94   S    
C108  C164  S    
C37   C69   S    
C26   C50   A    
C95   C99   A    
C54   C182  S    
C29   C33   A    
C100  C104  A    
C31   H75   S    
C32   H76   S    
C3    C74   S    
C9    C13   A    
C163  O43   A    
C146  C150  A    
C77   C101  A    
Cr7   O51   S    
C12   C16   A    
C56   C72   A    
C169  C174  A    
Cr2   O2    S    
C172  C175  A    
C141  C145  A    
C122  H58   S    
C108  C112  A    
C138  C154  A    
C6    C165  A    
C21   C22   A    
C135  O51   A    
C112  H36   S    
C174  H46   S    
C41   C49   A    
Cr12  O16   S    
C50   H14   S    
C22   H69   S    
C165  C169  A    
C27   C31   A    
C28   C32   A    
Cr9   O13   S    
Cr10  O10   S    
N2    C178  S    
C62   C66   A    
C167  C171  A    
C98   C102  A    
C60   C76   A    
Cr6   O30   S    
C30   H74   S    
C78   C82   A    
C102  H25   S    
C182  N6    T    
C54   C70   A    
C147  H55   S    
C68   C72   A    
C11   H68   S    
C137  C153  A    
C2    O26   A    
C3    O23   A    
Cr8   O28   S    
C20   C172  A    
C175  H47   S    
C132  C152  A    
C62   H6    S    
C130  C138  A    
C178  H96   S    
C109  H33   S    
C160  O8    A    
C84   C88   A    
C92   O4    A    
Cr6   O6    S    
C119  C123  A    
C26   C90   S    
C5    C46   S    
C105  C125  A    
C7    C48   S    
Cr6   O26   S    
C125  H61   S    
C8    C47   S    
C107  C127  A    
C115  H51   S    
C136  C153  S    
C66   C70   A    
C31   C35   A    
Cr3   O23   S    
N2    H93   S    
C61   C65   A    
C158  O6    A    
C129  C137  A    
C130  H38   S    
C184  N8    T    
C39   C71   S    
C34   H82   S    
C139  H43   S    
C4    O24   A    
C53   C181  S    
C89   O37   A    
C103  H28   S    
C55   C71   A    
C2    C75   S    
C144  C156  A    
C180  H102  S    
Cr10  O38   S    
C10   H65   S    
C161  O13   A    
C134  O46   A    
Cr4   O4    S    
C46   O34   A    
C6    C9    A    
C129  C149  A    
C64   C68   A    
Cr5   O17   S    
C144  N4    S    
C48   O36   A    
C86   H30   S    
C81   H17   S    
C57   C73   A    
C83   H19   S    
C123  C127  A    
C78   C158  S    
C42   H10   S    
C87   C95   A    
C130  C150  A    
C23   C24   A    
C27   C91   S    
C110  C114  A    
C114  H50   S    
C88   H32   S    
C44   C52   A    
C164  O44   A    
N1    C177  S    
C79   C103  A    
C11   C15   A    
C27   C51   A    
N3    C179  S    
C7    C12   A    
C98   H21   S    
C49   H13   S    
C30   C34   A    
C65   H85   S    
C138  H42   S    
C41   H9    S    
C10   C14   A    
C164  O16   A    
C133  O49   A    
C108  C128  A    
C116  C120  A    
C124  H60   S    
C147  C151  A    
C121  C125  A    
C84   H20   S    
C143  C155  A    
C139  C155  A    
Cr5   O25   S    
C146  H54   S    
C89   O1    A    
C17   C18   A    
C36   H84   S    
C5    C166  A    
C142  C154  A    
C91   O3    A    
C4    C73   S    
Cr12  O20   S    
C42   C50   A    
C113  C117  A    
C143  N3    S    
C107  C163  S    
C23   H72   S    
C26   C30   A    
C180  H104  S    
C115  C119  A    
C179  H99   S    
C105  C161  S    
Cr9   O17   S    
Cr10  O14   S    
C61   H5    S    
C112  C116  A    
Cr11  O19   S    
C58   C74   A    
Cr4   O44   S    
C105  C109  A    
C40   C72   S    
C1    C76   S    
C107  C111  A    
C148  C152  A    
C117  C149  S    
C44   H12   S    
C117  C121  A    
C171  C176  A    
C100  H23   S    
C13   C17   A    
C166  H1    S    
C14   C22   A    
Cr3   O47   S    
C142  N2    S    
C141  C153  A    
C63   C75   A    
C64   H8    S    
C37   C41   A    
C177  H92   S    
C163  O15   A    
C131  C139  A    
C173  C174  A    
C40   C44   A    
C18   C170  A    
C129  H37   S    
C148  H56   S    
C81   C85   A    
C83   C87   A    
C88   C96   A    
Cr1   O17   S    
C6    C45   S    
C93   C97   A    
C78   C102  A    
C133  C156  S    
Cr3   O19   S    
Cr2   O22   S    
Cr7   O19   S    
C80   C84   A    
C181  N5    T    
C15   C19   A    
C135  C154  S    
C80   C104  A    
C1    O21   A    
C60   H80   S    
C132  H40   S    
C79   C159  S    
C80   C160  S    
C94   C98   A    
C135  O47   A    
C47   O35   A    
C4    O28   A    
C118  C150  S    
C90   O38   A    
Cr12  O12   S    
C173  H45   S    
C159  O7    A    
Cr11  O39   S    
C82   H18   S    
C46   O30   A    
C124  C128  A    
C121  H57   S    
C12   H67   S    
Cr4   O20   S    
Cr1   O21   S    
Cr7   O31   S    
Cr6   O18   S    
C178  H95   S    
C51   H15   S    
C162  O42   A    
C137  H41   S    
N4    H101  S    
C53   C57   A    
C157  O9    A    
C61   C73   A    
C82   C86   A    
C33   C37   A    
C56   C60   A    
C52   H16   S    
Cr12  O36   S    
C35   C39   A    
C177  H90   S    
C8    C167  A    
Cr4   O48   S    
C77   C81   A    
C101  H26   S    
Cr9   O33   S    
C111  H35   S    
C55   C183  S    
Cr11  O35   S    
C140  H44   S    
C54   C58   A    
C63   H7    S    
C66   H86   S    
Cr1   O41   S    
C110  H34   S    
C32   C36   A    
Cr3   O43   S    
C133  O45   A    
C104  H27   S    
Cr8   O8    S    
C162  O14   A    
C132  C140  A    
C106  C126  A    
C25   C89   S    
C126  H62   S    
C45   O33   A    
Cr12  O40   S    
C79   C83   A    
C43   C51   A    
C65   C69   A    
C67   C71   A    
C106  C162  S    
C67   H87   S    
Cr10  O18   S    
C25   C49   A    
Cr11  O15   S    
C131  H39   S    
C168  C172  A    
C90   O2    A    
Cr7   O7    S    
C134  O50   A    
C62   C74   A    
Cr8   O52   S    
C145  C149  A    
C170  C173  A    
C179  H98   S    
C93   C94   S    
Cr2   O46   S    
N1    H89   S    
C14   C18   A    
C9    H66   S    
C144  C148  A    
Cr8   O20   S    
N3    H97   S    
C143  C147  A    
C167  H4    S    
C24   H71   S    
C128  H64   S    
C168  H3    S    
C161  O41   A    
C19   C171  A    
C38   C42   A    
Cr8   O32   S    
C17   C169  A    
C21   H70   S    
C96   C100  A    
Cr9   O9    S    
C85   H29   S    
C86   C94   A    
Cr11  O11   S    
C175  C176  A    
C56   C184  S    
Cr5   O29   S    
Cr2   O18   S    
C29   H73   S    
C59   H79   S    
C87   H31   S    
C16   C20   A    
Cr5   O49   S    
C15   C23   A    
Cr3   O3    S    
C16   C24   A    
C1    O25   A    
Cr1   O45   S    
C2    O22   A    
C47   O31   A    
C3    O27   A    
C165  H2    S    
C99   H24   S    
C119  C151  S    
C63   C67   A    
C120  C152  S    
C97   H22   S    
C13   C21   A    
C36   C40   A    
C58   H78   S    
C91   O39   A    
C39   C43   A    
C159  O11   A    
C160  O12   A    
C122  C126  A    
C118  C122  A    
Cr5   O5    S    
N4    C180  S    
C85   C93   A    
C68   H88   S    
Cr4   O24   S    
C64   C76   A    
C145  H53   S    
C28   C92   S    
C48   O32   A    
C109  C113  A    
C177  H91   S    
Cr7   O27   S    
C114  C118  A    
C140  C156  A    
C59   C75   A    
C157  O5    A    
C106  C110  A    
C158  O10   A    
C134  C155  S    
C33   H81   S    
C34   C38   A    
C35   H83   S    
C43   H11   S    
Cr1   O1    S    
C116  H52   S    
Cr9   O37   S    
Cr6   O50   S    
Cr10  O34   S    
C5    C10   A    
C25   C29   A    
C123  H59   S    
C28   C52   A    
C176  H48   S    
C8    C11   A    
C113  H49   S    
C166  C170  A    
C141  N1    S    
C136  O48   A    
C127  H63   S    
Cr2   O42   S    
C136  O52   A    
C57   H77   S    
C180  H103  S    
C179  H100  S    
C95   C96   S    
C111  C115  A    
C97   C101  A    
C120  C124  A    
C77   C157  S    
