data_mof_unit_12245.cif
_audit_creation_date              2012-10-26T19:27:43-0400
_audit_creation_method            fapswitch 2.2
_symmetry_space_group_name_H-M    P1
_symmetry_Int_Tables_number       1
_space_group_crystal_system       triclinic
_cell_length_a                    20.792529
_cell_length_b                    21.208827
_cell_length_c                    14.741886
_cell_angle_alpha                 89.995539
_cell_angle_beta                  127.82048
_cell_angle_gamma                 89.99975
_cell_volume                      5135.33587153

loop_
_atom_site_label
_atom_site_type_symbol
_atom_type_description
_atom_site_fract_x
_atom_site_fract_y
_atom_site_fract_z
_atom_type_partial_charge
C1    C     C_R   0.602273 0.913301 0.630837 0.548076
C2    C     C_R   0.705245 0.200677 0.116346 -0.134489
C3    C     C_R   0.701477 0.758794 0.940299 0.031896
C4    C     C_R   0.244144 0.709075 0.990477 0.031762
C5    C     C_R   0.797195 0.259798 0.058156 0.031804
C6    C     C_R   0.755772 0.708975 0.009383 0.031906
C7    C     C_R   0.243474 0.290414 0.989686 0.031891
C8    C     C_R   0.351364 0.782127 0.037218 -0.140223
C9    C     C_R   0.700052 0.179524 0.023001 -0.139404
C10   C     C_R   0.648329 0.781854 0.962347 -0.139875
C11   C     C_R   0.350368 0.217091 0.036075 -0.139377
C12   C     C_R   0.850088 0.283089 0.035784 -0.139225
C13   C     C_R   0.652776 0.760145 0.054796 -0.133176
C14   C     C_R   0.201193 0.678709 0.024298 -0.138644
C15   C     C_R   0.200639 0.320874 0.023619 -0.139298
C16   C     C_R   0.798820 0.678671 0.975678 -0.138885
C17   C     C_R   0.345850 0.238711 0.943539 -0.132365
C18   C     C_R   0.845616 0.261444 0.943305 -0.132289
C19   C     C_R   0.206364 0.699912 0.117609 -0.132918
C20   C     C_R   0.205856 0.299729 0.116994 -0.134328
C21   C     C_R   0.793649 0.699880 0.882362 -0.133447
C22   C     C_R   0.322466 0.998073 0.666406 -0.159143
C23   C     C_R   0.677552 0.003109 0.333638 -0.160574
C24   C     C_R   0.822487 0.503042 0.666434 -0.160234
C25   C     C_R   0.397656 0.086635 0.369090 0.549102
C26   C     C_R   0.177596 0.498104 0.333663 -0.161775
C27   C     C_R   0.351981 0.998746 0.603381 0.037072
C28   C     C_R   0.648020 0.001681 0.396640 0.036738
C29   C     C_R   0.851983 0.501638 0.603392 0.037135
C30   C     C_R   0.148035 0.498765 0.396651 0.036576
C31   C     C_R   0.488071 0.000892 0.775124 0.031129
C32   C     C_R   0.511963 0.999442 0.224876 0.030539
C33   C     C_R   0.988086 0.499471 0.775135 0.032054
C34   C     C_R   0.011975 0.500873 0.224876 0.031576
C35   C     C_R   0.461914 0.000487 0.844833 -0.000748
C36   C     C_R   0.397721 0.913311 0.369156 0.548390
C37   C     C_R   0.538139 0.000675 0.155192 -0.001166
C38   C     C_R   0.961948 0.500678 0.844860 0.000463
C39   C     C_R   0.038180 0.500480 0.155212 -0.000059
C40   C     C_R   0.376906 0.998805 0.786816 0.038800
C41   C     C_R   0.623137 0.002712 0.213221 0.037814
C42   C     C_R   0.876939 0.502664 0.786850 0.038159
C43   C     C_R   0.123195 0.498829 0.213249 0.036927
C44   C     C_R   0.516175 0.001468 0.968595 0.019832
C45   C     C_R   0.483888 0.000106 0.031432 0.019244
C46   C     C_R   0.016230 0.500125 0.968628 0.021071
C47   C     C_R   0.603738 0.085483 0.632645 0.549562
C48   C     C_R   0.983935 0.501448 0.031461 0.020946
C49   C     C_R   0.398557 0.998232 0.968368 -0.145015
C50   C     C_R   0.601492 0.003920 0.031657 -0.148164
C51   C     C_R   0.898610 0.503842 0.968409 -0.148079
C52   C     C_R   0.101575 0.498302 0.031699 -0.151807
C53   C     C_R   0.346524 0.997745 0.848942 -0.127507
C54   C     C_R   0.653514 0.004493 0.151092 -0.131828
C55   C     C_R   0.846574 0.504406 0.848988 -0.131843
C56   C     C_R   0.153601 0.497802 0.151133 -0.135750
C57   C     C_R   0.666597 0.131383 0.711823 -0.003221
C58   C     C_R   0.103774 0.414543 0.632693 0.548859
C59   C     C_R   0.344358 0.859939 0.301498 -0.003305
C60   C     C_R   0.344080 0.139863 0.301231 -0.003602
C61   C     C_R   0.655607 0.859900 0.698455 -0.003178
C62   C     C_R   0.167059 0.631029 0.712398 -0.003459
C63   C     C_R   0.843921 0.360261 0.301060 -0.003296
C64   C     C_R   0.832918 0.631012 0.287559 -0.003600
C65   C     C_R   0.166732 0.368723 0.711989 -0.002983
C66   C     C_R   0.780682 0.198246 0.771827 -0.132841
C67   C     C_R   0.254533 0.775353 0.269681 -0.133103
C68   C     C_R   0.254196 0.224423 0.269314 -0.133673
C69   C     C_R   0.896149 0.585407 0.367206 0.549870
C70   C     C_R   0.745486 0.775351 0.730307 -0.133249
C71   C     C_R   0.281621 0.697470 0.772916 -0.132994
C72   C     C_R   0.753742 0.275884 0.268826 -0.133684
C73   C     C_R   0.718176 0.697294 0.226803 -0.132812
C74   C     C_R   0.280814 0.301854 0.771959 -0.132816
C75   C     C_R   0.721011 0.155280 0.694309 -0.136663
C76   C     C_R   0.300540 0.828385 0.331313 -0.135923
C77   C     C_R   0.300346 0.171475 0.331132 -0.135993
C78   C     C_R   0.699485 0.828395 0.668699 -0.135766
C79   C     C_R   0.221627 0.654781 0.695053 -0.136573
C80   C     C_R   0.897624 0.413394 0.369056 0.548511
C81   C     C_R   0.800052 0.328732 0.330816 -0.135872
C82   C     C_R   0.778262 0.654687 0.304788 -0.136660
C83   C     C_R   0.221085 0.344780 0.694392 -0.136549
C84   C     C_R   0.673266 0.149986 0.808174 -0.137135
C85   C     C_R   0.341455 0.838180 0.209647 -0.134207
C86   C     C_R   0.340860 0.161411 0.209042 -0.134204
C87   C     C_R   0.658417 0.838064 0.790190 -0.134041
C88   C     C_R   0.173988 0.649441 0.809052 -0.136868
C89   C     C_R   0.840661 0.338744 0.208828 -0.134025
C90   C     C_R   0.826015 0.649441 0.190934 -0.137093
C91   C     C_R   0.103854 0.585403 0.632794 0.549441
C92   C     C_R   0.173564 0.350245 0.808523 -0.136980
C93   C     C_R   0.734645 0.191462 0.889695 0.031389
C94   C     C_R   0.298653 0.783243 0.149610 0.032187
C95   C     C_R   0.297990 0.216294 0.148879 0.032278
C96   C     C_R   0.701223 0.783122 0.850205 0.032184
C97   C     C_R   0.235636 0.690697 0.890840 0.031467
C98   C     C_R   0.797637 0.283950 0.148499 0.032278
C99   C     C_R   0.764274 0.690603 0.109018 0.031436
C100  C     C_R   0.234985 0.308788 0.890064 0.031438
C101  C     C_R   0.787299 0.217051 0.868457 0.051684
C102  C     C_R   0.346906 0.760427 0.944761 -0.133493
C103  C     C_R   0.253017 0.752692 0.178975 0.050393
C104  C     C_R   0.252500 0.246953 0.178388 0.050373
C105  C     C_R   0.746946 0.752636 0.820939 0.050433
C106  C     C_R   0.288387 0.716186 0.869700 0.052005
C107  C     C_R   0.752025 0.253368 0.177879 0.050396
C108  C     C_R   0.711411 0.716003 0.130014 0.051992
C109  C     C_R   0.287541 0.283123 0.868708 0.051713
C110  C     C_R   0.743036 0.209891 0.989219 0.031927
C111  C     C_R   0.298346 0.758962 0.059443 0.031896
C112  C     C_R   0.297558 0.240449 0.058543 0.031789
Cu1   Cu    Cu3+1 0.526640 0.000000 0.436960 0.927453
Cu2   Cu    Cu3+1 0.473360 0.000000 0.563040 0.927622
Cu3   Cu    Cu3+1 0.026640 0.500000 0.436960 0.928260
Cu4   Cu    Cu3+1 0.973360 0.500000 0.563040 0.928482
H1    H     H_    0.388568 0.779411 0.930681 0.108303
H2    H     H_    0.630330 0.005597 0.991036 0.090816
H3    H     H_    0.869761 0.505475 0.009015 0.090426
H4    H     H_    0.130442 0.497258 0.991098 0.089068
H5    H     H_    0.302186 0.844388 0.402477 0.129629
H6    H     H_    0.717098 0.141209 0.620436 0.127794
H7    H     H_    0.697902 0.844452 0.597612 0.130199
H8    H     H_    0.302193 0.155599 0.402523 0.130317
H9    H     H_    0.801910 0.344599 0.402220 0.130395
H10   H     H_    0.217584 0.640815 0.621032 0.128570
H11   H     H_    0.217067 0.358771 0.620400 0.127889
H12   H     H_    0.671434 0.176076 0.139460 0.113364
H13   H     H_    0.782289 0.640710 0.378791 0.127962
H14   H     H_    0.322436 0.716198 0.757097 0.106916
H15   H     H_    0.719647 0.252348 0.292417 0.106922
H16   H     H_    0.677282 0.715957 0.242518 0.107019
H17   H     H_    0.321468 0.282975 0.755962 0.107425
H18   H     H_    0.821402 0.217076 0.755913 0.107398
H19   H     H_    0.220450 0.751822 0.293297 0.107556
H20   H     H_    0.220202 0.248019 0.293014 0.106911
H21   H     H_    0.779626 0.751867 0.706753 0.107483
H22   H     H_    0.398934 0.815834 0.091846 0.105699
H23   H     H_    0.611016 0.779047 0.068748 0.108343
H24   H     H_    0.663656 0.137853 0.981171 0.102210
H25   H     H_    0.600671 0.815480 0.907572 0.106057
H26   H     H_    0.397835 0.183283 0.090549 0.106795
H27   H     H_    0.897594 0.316857 0.090293 0.106818
H28   H     H_    0.164848 0.637005 0.982498 0.103718
H29   H     H_    0.164351 0.362607 0.981875 0.102673
H30   H     H_    0.835248 0.637017 0.017590 0.102371
H31   H     H_    0.281413 0.996377 0.804537 0.111093
H32   H     H_    0.718609 0.006374 0.195496 0.111573
H33   H     H_    0.781474 0.506244 0.804601 0.111478
H34   H     H_    0.387337 0.219565 0.929262 0.111388
H35   H     H_    0.218714 0.496455 0.195540 0.111997
H36   H     H_    0.448540 0.998296 0.188131 0.115524
H37   H     H_    0.551505 0.001642 0.811867 0.115127
H38   H     H_    0.948537 0.501607 0.188106 0.114698
H39   H     H_    0.051519 0.498365 0.811871 0.114035
H40   H     H_    0.690130 0.002235 0.489478 0.122250
H41   H     H_    0.309860 0.998074 0.510549 0.123294
H42   H     H_    0.190143 0.498104 0.489490 0.121234
H43   H     H_    0.809850 0.502172 0.510552 0.122141
H44   H     H_    0.372031 0.865725 0.185096 0.118457
H45   H     H_    0.887174 0.280534 0.929116 0.111391
H46   H     H_    0.628252 0.132806 0.816177 0.121206
H47   H     H_    0.627791 0.865561 0.814707 0.119472
H48   H     H_    0.371294 0.133754 0.184401 0.119018
H49   H     H_    0.871197 0.366354 0.184300 0.119203
H50   H     H_    0.128939 0.632338 0.817061 0.121983
H51   H     H_    0.128625 0.367483 0.816643 0.121200
H52   H     H_    0.871136 0.632413 0.183020 0.121420
H53   H     H_    0.257263 0.996875 0.621131 0.092566
H54   H     H_    0.742749 0.004652 0.378939 0.092056
H55   H     H_    0.757288 0.504547 0.621165 0.092307
H56   H     H_    0.172565 0.675321 0.140752 0.114892
H57   H     H_    0.242805 0.496926 0.378973 0.091884
H58   H     H_    0.172154 0.324393 0.140223 0.113516
H59   H     H_    0.827513 0.675332 0.859295 0.114715
H60   H     H_    0.369692 0.997148 0.008964 0.092876
N1    N     N_R   0.433280 0.000000 0.657760 -0.231812
N2    N     N_R   0.566720 0.000000 0.342240 -0.231622
N3    N     N_R   0.933280 0.500000 0.657760 -0.231255
N4    N     N_R   0.066720 0.500000 0.342240 -0.231138
O1    O     O_R   0.600040 0.935040 0.546740 -0.503564
O2    O     O_R   0.444990 0.064930 0.346780 -0.508360
O3    O     O_R   0.444990 0.935070 0.346780 -0.509719
O4    O     O_R   0.555010 0.064930 0.653220 -0.509662
O5    O     O_R   0.055010 0.435070 0.653220 -0.510097
O6    O     O_R   0.944990 0.564930 0.346780 -0.509038
O7    O     O_R   0.944990 0.435070 0.346780 -0.508867
O8    O     O_R   0.055010 0.564930 0.653220 -0.508686
O9    O     O_R   0.399960 0.064960 0.453260 -0.502821
O10   O     O_R   0.399960 0.935040 0.453260 -0.504027
O11   O     O_R   0.600040 0.064960 0.546740 -0.503742
O12   O     O_R   0.100040 0.435040 0.546740 -0.504275
O13   O     O_R   0.899960 0.564960 0.453260 -0.503380
O14   O     O_R   0.899960 0.435040 0.453260 -0.503377
O15   O     O_R   0.100040 0.564960 0.546740 -0.503004
O16   O     O_R   0.555010 0.935070 0.653220 -0.509313

loop_
_geom_bond_atom_site_label_1
_geom_bond_atom_site_label_2
_ccdc_geom_bond_type
C65   C92   A    
C87   H47   S    
C91   O8    A    
C16   C21   A    
Cu2   O10   S    
C70   C78   A    
C75   H6    S    
C24   C42   A    
C94   C111  A    
C34   N4    A    
C17   H34   S    
C64   C90   A    
C74   C83   A    
C96   C105  A    
C3    C6    A    
C74   C109  A    
C71   C79   A    
C67   C103  A    
C29   H43   S    
C95   C104  A    
C99   C108  A    
Cu4   O8    S    
C50   C54   A    
Cu2   O16   S    
C31   N1    A    
C68   C77   A    
C36   O10   A    
C76   H5    S    
C13   H23   S    
C16   H30   S    
C38   C42   A    
C95   C112  A    
C18   H45   S    
Cu2   O4    S    
C65   C83   A    
C33   N3    A    
C5    C110  A    
Cu3   Cu4   S    
C74   H17   S    
C46   C52   A    
C2    C107  A    
C53   H31   S    
Cu3   O7    S    
C7    C112  A    
C8    H22   S    
C24   H55   S    
C24   C29   A    
C61   C87   A    
C66   H18   S    
C19   C103  A    
C48   C51   A    
C20   H58   S    
C21   H59   S    
C51   H3    S    
C80   O14   A    
C3    C96   A    
C85   H44   S    
Cu3   N4    S    
C93   C110  A    
Cu4   O14   S    
C36   C59   S    
C7    C15   A    
Cu1   N2    S    
C73   H16   S    
C100  C109  A    
Cu2   O9    S    
C4    C97   A    
C87   C96   A    
C58   O5    A    
C37   C41   A    
C66   C101  A    
C32   N2    A    
C13   C108  A    
C33   H39   S    
C31   H37   S    
C26   C43   A    
C55   H33   S    
C46   C48   A    
C63   C80   S    
C34   H38   S    
C15   C20   A    
Cu1   O11   S    
C14   H28   S    
C60   C77   A    
Cu4   O13   S    
C7    C100  A    
C34   C39   A    
C68   C104  A    
C62   C79   A    
C68   H20   S    
C1    O16   A    
C19   H56   S    
C5    C12   A    
C8    C111  A    
C93   C101  A    
C15   H29   S    
Cu3   O6    S    
C60   C86   A    
C73   C108  A    
C39   C43   A    
C26   H57   S    
C23   C28   A    
C62   C88   A    
C10   C13   A    
C98   C107  A    
C28   H40   S    
C1    C61   S    
C82   H13   S    
C10   H25   S    
C67   H19   S    
C59   C85   A    
C35   C44   A    
C42   C55   A    
C47   C57   S    
C81   H9    S    
C91   O15   A    
C85   C94   A    
C58   C65   S    
Cu1   O2    S    
C32   H36   S    
C72   C107  A    
C45   C49   A    
C61   C78   A    
Cu2   N1    S    
C22   C40   A    
C62   C91   S    
C63   C89   A    
C69   O13   A    
C57   C84   A    
C36   O3    A    
C32   C37   A    
C56   H35   S    
C78   H7    S    
C64   C82   A    
C102  H1    S    
Cu3   O12   S    
C52   H4    S    
C25   C60   S    
C79   H10   S    
C63   C81   A    
C94   C103  A    
C26   C30   A    
C88   H50   S    
C22   C27   A    
C58   O12   A    
C31   C35   A    
Cu4   N3    S    
Cu1   O1    S    
C86   H48   S    
C97   C106  A    
C37   C45   A    
C90   C99   A    
C84   H46   S    
C25   O2    A    
C92   C100  A    
C72   H15   S    
C54   H32   S    
Cu1   Cu2   S    
C44   C50   A    
C9    C110  A    
C30   H42   S    
Cu3   O15   S    
C11   C17   A    
C1    O1    A    
C90   H52   S    
C11   C112  A    
C50   H2    S    
C14   C19   A    
C4    C111  A    
C44   C45   A    
C72   C81   A    
C83   H11   S    
C47   O4    A    
C70   C105  A    
C17   C109  A    
C27   N1    A    
C47   O11   A    
C20   C104  A    
C27   H41   S    
C64   C69   S    
Cu4   O5    S    
C33   C38   A    
C23   C41   A    
C12   H27   S    
C89   C98   A    
C6    C99   A    
C57   C75   A    
C35   C40   A    
C88   C97   A    
C3    C10   A    
C25   O9    A    
C71   H14   S    
C92   H51   S    
Cu1   O3    S    
C23   H54   S    
C28   N2    A    
C49   C53   A    
C66   C75   A    
C59   C76   A    
C9    H24   S    
C80   O7    A    
C73   C82   A    
C102  C106  A    
C51   C55   A    
C84   C93   A    
C4    C14   A    
C11   H26   S    
C41   C54   A    
C38   C46   A    
C22   H53   S    
C86   C95   A    
C6    C16   A    
C43   C56   A    
C5    C98   A    
C70   H21   S    
C40   C53   A    
C29   N3    A    
C71   C106  A    
C12   C18   A    
C77   H8    S    
C30   N4    A    
C67   C76   A    
C2    C9    A    
C8    C102  A    
C69   O6    A    
C18   C101  A    
C49   H60   S    
C21   C105  A    
C52   C56   A    
C2    H12   S    
C39   C48   A    
C89   H49   S    
