data_mof_unit_63010.cif
_audit_creation_date              2012-10-26T20:53:59-0400
_audit_creation_method            fapswitch 2.2
_symmetry_space_group_name_H-M    P1
_symmetry_Int_Tables_number       1
_space_group_crystal_system       triclinic
_cell_length_a                    17.724619
_cell_length_b                    16.449574
_cell_length_c                    10.680705
_cell_angle_alpha                 90.276374
_cell_angle_beta                  90.164599
_cell_angle_gamma                 90.006642
_cell_volume                      3114.04321906

loop_
_atom_site_label
_atom_site_type_symbol
_atom_type_description
_atom_site_fract_x
_atom_site_fract_y
_atom_site_fract_z
_atom_type_partial_charge
C1    C     C_R   0.355233 0.499997 0.499814 0.550982
C2    C     C_R   0.453697 0.256700 0.420248 0.065935
C3    C     C_R   0.453649 0.742804 0.420334 0.044820
C4    C     C_R   0.546351 0.257196 0.579666 0.044820
C5    C     C_R   0.499983 0.873055 0.500049 0.022514
C6    C     C_R   0.500017 0.126945 0.499951 0.022514
C7    C     C_1   0.499996 0.962702 0.500019 -0.020242
C8    C     C_1   0.500004 0.037298 0.499981 -0.020242
C9    C     C_R   0.500144 0.499756 0.259199 0.602031
C10   C     C_R   0.499855 0.500244 0.740801 0.602031
C11   C     C_3   0.439078 0.537500 0.041995 0.202747
C12   C     C_R   0.644767 0.500003 0.500186 0.550982
C13   C     C_3   0.560922 0.462500 0.958005 0.202752
C14   C     C_3   0.500159 0.576302 0.961282 0.214588
C15   C     C_3   0.499841 0.423698 0.038718 0.214589
C16   C     C_3   0.436606 0.461006 0.957284 -0.174517
C17   C     C_3   0.563394 0.538994 0.042716 -0.174515
C18   C     C_3   0.499170 0.500659 0.876597 0.035027
C19   C     C_3   0.500829 0.499341 0.123403 0.035027
C20   C     C_R   0.846382 0.573698 0.499941 -0.111001
C21   C     C_R   0.153618 0.426302 0.500059 -0.111001
C22   C     C_R   0.153634 0.573689 0.498933 -0.109727
C23   C     C_1   0.966173 0.500001 0.500135 -0.026610
C24   C     C_R   0.846366 0.426311 0.501066 -0.109727
C25   C     C_R   0.767734 0.573800 0.499971 -0.127835
C26   C     C_R   0.232266 0.426200 0.500029 -0.127835
C27   C     C_R   0.232282 0.573788 0.498907 -0.118651
C28   C     C_R   0.767718 0.426212 0.501093 -0.118651
C29   C     C_R   0.727714 0.500006 0.500433 0.020489
C30   C     C_R   0.272286 0.499994 0.499567 0.020489
C31   C     C_R   0.885586 0.500003 0.500420 0.039324
C32   C     C_R   0.114414 0.499997 0.499580 0.039324
C33   C     C_1   0.033827 0.499999 0.499865 -0.026610
C34   C     C_R   0.547125 0.829124 0.581218 -0.131350
C35   C     C_R   0.452875 0.170876 0.418782 -0.131350
C36   C     C_R   0.452823 0.828615 0.418900 -0.138560
C37   C     C_R   0.547176 0.171384 0.581100 -0.138560
C38   C     C_R   0.546303 0.743300 0.579752 0.065935
Cu1   Cu    Cu3+1 0.500000 0.580420 0.500000 0.980794
Cu2   Cu    Cu3+1 0.500000 0.419580 0.500000 0.980794
H1    H     H_    0.385325 0.429623 0.921817 0.120040
H2    H     H_    0.738343 0.368477 0.501586 0.131319
H3    H     H_    0.584395 0.860873 0.645401 0.103028
H4    H     H_    0.415605 0.139127 0.354599 0.103027
H5    H     H_    0.415538 0.859961 0.354751 0.104096
H6    H     H_    0.584462 0.140039 0.645249 0.104097
H7    H     H_    0.582957 0.710377 0.642822 0.143832
H8    H     H_    0.417043 0.289623 0.357178 0.143831
H9    H     H_    0.416955 0.709494 0.357302 0.145833
H10   H     H_    0.583045 0.290506 0.642698 0.145833
H11   H     H_    0.346716 0.595436 0.015651 0.336016
H12   H     H_    0.614675 0.570377 0.078183 0.120041
H13   H     H_    0.653285 0.404566 0.984350 0.336012
H14   H     H_    0.500266 0.690891 0.994125 0.332720
H15   H     H_    0.499727 0.309109 0.005876 0.332720
H16   H     H_    0.876583 0.630977 0.499481 0.111968
H17   H     H_    0.123417 0.369023 0.500519 0.111968
H18   H     H_    0.123445 0.630970 0.498511 0.112459
H19   H     H_    0.876555 0.369030 0.501489 0.112459
H20   H     H_    0.738370 0.631536 0.499556 0.125573
H21   H     H_    0.261630 0.368464 0.500444 0.125573
H22   H     H_    0.261657 0.631523 0.498414 0.131319
N1    N     N_R   0.500000 0.701220 0.500000 -0.226135
N2    N     N_R   0.500000 0.298780 0.500000 -0.226135
O1    O     O_R   0.391260 0.567930 0.500000 -0.504569
O2    O     O_3   0.623787 0.421718 0.910065 -0.691664
O3    O     O_3   0.498469 0.656331 0.917903 -0.680662
O4    O     O_3   0.501531 0.343669 0.082097 -0.680662
O5    O     O_R   0.608740 0.432070 0.500000 -0.504569
O6    O     O_R   0.608740 0.567930 0.500000 -0.519236
O7    O     O_R   0.391260 0.432070 0.500000 -0.519236
O8    O     O_R   0.499980 0.567900 0.316850 -0.502259
O9    O     O_R   0.500020 0.432100 0.683150 -0.502259
O10   O     O_R   0.500020 0.567900 0.683150 -0.463116
O11   O     O_R   0.499980 0.432100 0.316850 -0.463116
O12   O     O_3   0.376213 0.578282 0.089935 -0.691671

loop_
_geom_bond_atom_site_label_1
_geom_bond_atom_site_label_2
_ccdc_geom_bond_type
C2    C35   A    
C12   O5    A    
Cu2   O7    S    
C12   C29   S    
C14   C18   S    
C9    O8    A    
C20   H16   S    
H15   O4    S    
C3    H9    S    
C7    C8    T    
C6    C35   A    
C15   C19   S    
C11   C19   S    
C1    O7    A    
C22   C32   A    
C13   C18   S    
C28   C29   A    
C26   H21   S    
C11   O12   S    
C10   O9    A    
C20   C25   A    
C15   C16   S    
C5    C36   A    
Cu2   O9    S    
Cu1   O10   S    
C17   C19   S    
C9    C19   S    
C23   C33   T    
C1    O1    A    
Cu1   O8    S    
C25   H20   S    
C27   C30   A    
Cu1   O1    S    
C14   C17   S    
C17   H12   S    
C21   C26   A    
C2    N2    A    
C13   O2    S    
C25   C29   A    
C21   C32   A    
Cu2   O5    S    
H11   O12   S    
Cu1   Cu2   S    
C5    C7    S    
C6    C8    S    
H14   O3    S    
C2    H8    S    
C4    H10   S    
C23   C31   S    
C21   H17   S    
C35   H4    S    
C27   H22   S    
C11   C16   S    
C14   O3    S    
C5    C34   A    
C6    C37   A    
C36   H5    S    
H13   O2    S    
C38   H7    S    
C26   C30   A    
C22   C27   A    
C13   C15   S    
C38   N1    A    
C12   O6    A    
C34   C38   A    
C34   H3    S    
C24   C28   A    
C22   H18   S    
C3    N1    A    
Cu1   N1    S    
C4    N2    A    
Cu2   N2    S    
Cu2   O11   S    
C13   C17   S    
C32   C33   S    
C24   C31   A    
C10   O10   A    
C3    C36   A    
C10   C18   S    
C24   H19   S    
C15   O4    S    
C28   H2    S    
C1    C30   S    
C11   C14   S    
Cu1   O6    S    
C4    C37   A    
C16   C18   S    
C9    O11   A    
C37   H6    S    
C16   H1    S    
C20   C31   A    
