data_mof_unit_55828.cif
_audit_creation_date              2012-12-10T18:52:19-0500
_audit_creation_method            fapswitch 2.2
_symmetry_space_group_name_H-M    P1
_symmetry_Int_Tables_number       1
_space_group_crystal_system       triclinic
_cell_length_a                    15.736442
_cell_length_b                    10.666865
_cell_length_c                    9.852685
_cell_angle_alpha                 90.002643
_cell_angle_beta                  90.38057
_cell_angle_gamma                 90.308691
_cell_volume                      1653.79645745

loop_
_atom_site_label
_atom_site_type_symbol
_atom_type_description
_atom_site_fract_x
_atom_site_fract_y
_atom_site_fract_z
_atom_type_partial_charge
C1    C     C_R   0.500919 0.260200 0.499913 0.924743
C2    C     C_R   0.450951 0.416765 0.071726 -0.282837
C3    C     C_R   0.337916 0.499813 0.499513 0.899845
C4    C     C_R   0.662036 0.500025 0.500458 0.874904
C5    C     C_3   0.972222 0.414003 0.597771 -0.503065
C6    C     C_3   0.026663 0.582112 0.405107 -0.501695
C7    C     C_3   0.026719 0.383394 0.471492 0.483355
C8    C     C_3   0.972665 0.611801 0.531715 0.523323
C9    C     C_1   0.249102 0.499630 0.498217 -0.174394
C10   C     C_1   0.750754 0.498956 0.501713 -0.186614
C11   C     C_3   0.029128 0.530585 0.623188 0.504690
C12   C     C_R   0.499044 0.739917 0.500248 0.945891
C13   C     C_3   0.970639 0.464715 0.379585 0.485606
C14   C     C_3   0.083107 0.499410 0.498411 -0.112112
C15   C     C_3   0.916607 0.496614 0.504036 -0.075173
C16   C     C_1   0.173892 0.499500 0.497422 0.058838
C17   C     C_1   0.825905 0.497843 0.503117 0.089795
C18   C     C_R   0.550439 0.063442 0.403738 0.537098
C19   C     C_R   0.454795 0.936607 0.602671 0.524531
C20   C     C_3   0.998210 0.174055 0.437188 -0.302759
C21   C     C_3   0.999858 0.822099 0.562307 -0.256860
C22   C     C_3   0.993928 0.421180 0.154403 -0.296223
C23   C     C_R   0.546655 0.934617 0.402720 -0.343207
C24   C     C_3   0.096977 0.474345 0.821639 -0.310592
C25   C     C_3   0.681028 0.142282 0.357508 -0.289535
C26   C     C_3   0.435588 0.891003 0.826958 -0.230090
C27   C     C_3   0.685505 0.651212 0.118568 -0.273666
C28   C     C_3   0.315779 0.342565 0.883576 -0.347313
C29   C     C_R   0.455091 0.065843 0.598993 -0.343576
C30   C     C_R   0.499218 0.872402 0.501348 -0.214049
C31   C     C_R   0.502460 0.127931 0.500393 -0.214635
C32   C     C_R   0.550584 0.582201 0.072969 0.586360
C33   C     C_R   0.449723 0.417367 0.926980 0.603515
C34   C     C_R   0.549155 0.583099 0.928291 -0.315822
H1    H     H_    0.943777 0.199163 0.370072 0.191583
H2    H     H_    0.017200 0.516604 0.127955 0.175588
H3    H     H_    0.964057 0.380403 0.062111 0.184695
H4    H     H_    0.146084 0.424585 0.762016 0.164268
H5    H     H_    0.046958 0.407359 0.854511 0.156248
H6    H     H_    0.128308 0.512120 0.914270 0.179205
H7    H     H_    0.681625 0.198810 0.452542 0.137255
H8    H     H_    0.718698 0.194460 0.281071 0.203602
H9    H     H_    0.712668 0.050506 0.374792 0.156728
H10   H     H_    0.505058 0.872103 0.834132 0.156288
H11   H     H_    0.403181 0.823974 0.895710 0.186842
H12   H     H_    0.975942 0.155867 0.542208 0.155496
H13   H     H_    0.421508 0.987118 0.863730 0.170672
H14   H     H_    0.582127 0.883417 0.326950 0.220759
H15   H     H_    0.416805 0.117665 0.670572 0.215099
H16   H     H_    0.702604 0.689085 0.017270 0.153391
H17   H     H_    0.704309 0.550879 0.127186 0.177956
H18   H     H_    0.722984 0.704231 0.195405 0.195417
H19   H     H_    0.294991 0.442267 0.879425 0.164459
H20   H     H_    0.300263 0.300431 0.983569 0.157271
H21   H     H_    0.278804 0.290474 0.805403 0.195345
H22   H     H_    0.586962 0.650579 0.872943 0.172576
H23   H     H_    0.025351 0.085521 0.398008 0.182077
H24   H     H_    0.413375 0.349102 0.127195 0.177845
H25   H     H_    0.017645 0.841225 0.455291 0.145905
H26   H     H_    0.057139 0.798036 0.623576 0.200462
H27   H     H_    0.973356 0.909807 0.604684 0.175002
H28   H     H_    0.947506 0.347143 0.674461 0.175760
H29   H     H_    0.050512 0.649375 0.328131 0.180350
H30   H     H_    0.047955 0.359743 0.183568 0.188411
N1    N     N_R   0.499980 0.499970 0.857200 -0.133464
N2    N     N_R   0.500020 0.500030 0.142800 -0.134506
O1    O     O_R   0.499990 0.316750 0.614620 -0.585330
O2    O     O_3   0.937041 0.727829 0.568943 -0.589680
O3    O     O_3   0.932035 0.426800 0.256586 -0.607947
O4    O     O_3   0.061320 0.574780 0.748499 -0.585839
O5    O     O_3   0.597734 0.125719 0.306715 -0.583630
O6    O     O_3   0.403928 0.872441 0.694027 -0.600063
O7    O     O_3   0.598397 0.668813 0.145267 -0.596792
O8    O     O_3   0.402934 0.329670 0.854465 -0.584107
O9    O     O_R   0.500010 0.683250 0.385380 -0.583489
O10   O     O_R   0.500000 0.316780 0.385290 -0.581337
O11   O     O_R   0.500000 0.683220 0.614710 -0.596705
O12   O     O_R   0.376780 0.499970 0.614640 -0.579215
O13   O     O_R   0.623220 0.500030 0.385360 -0.583029
O14   O     O_R   0.376780 0.500000 0.385310 -0.628714
O15   O     O_R   0.623220 0.500000 0.614690 -0.623057
O16   O     O_3   0.062239 0.266770 0.436329 -0.599992
Zn1   Zn    Zn3+2 0.500000 0.499980 0.653120 1.003485
Zn2   Zn    Zn3+2 0.500000 0.500020 0.346880 1.008578

loop_
_geom_bond_atom_site_label_1
_geom_bond_atom_site_label_2
_ccdc_geom_bond_type
O1    Zn1   S    
C20   O16   S    
C26   O6    S    
O14   Zn2   S    
C28   O8    S    
C25   H9    S    
C11   O4    S    
C33   N1    A    
C29   H15   S    
C34   H22   S    
C9    C16   T    
C21   H25   S    
O13   Zn2   S    
C11   C14   S    
O9    Zn2   S    
N1    Zn1   S    
O11   Zn1   S    
C10   C17   T    
C1    C31   S    
C24   H5    S    
C26   H11   S    
C24   H6    S    
C20   H1    S    
O12   Zn1   S    
C7    C14   S    
C4    O15   A    
C24   H4    S    
C25   O5    S    
C22   O3    S    
C21   H27   S    
C27   H16   S    
O10   Zn2   S    
C19   O6    S    
C26   H10   S    
C3    O14   A    
C34   N1    A    
O15   Zn1   S    
C28   H21   S    
C27   H17   S    
C24   O4    S    
C18   C23   A    
C23   C30   A    
C21   H26   S    
C25   H7    S    
C32   O7    S    
C5    C7    S    
C28   H20   S    
C6    C8    S    
C22   H3    S    
C22   H30   S    
C32   C34   A    
C6    H29   S    
C3    C9    S    
C6    C14   S    
C12   O11   A    
C26   H13   S    
C4    O13   A    
C2    C33   A    
C8    O2    S    
C8    C15   S    
C13   C15   S    
C21   O2    S    
C14   C16   S    
C4    C10   S    
C19   C29   A    
C27   H18   S    
C32   N2    A    
C18   O5    S    
C15   C17   S    
C23   H14   S    
C12   C30   S    
C1    O10   A    
C2    N2    A    
C25   H8    S    
C28   H19   S    
C2    H24   S    
C5    C11   S    
C22   H2    S    
C29   C31   A    
C6    C13   S    
C19   C30   A    
C13   O3    S    
C8    C11   S    
C1    O1    A    
C5    H28   S    
C5    C15   S    
N2    Zn2   S    
C33   O8    S    
C7    C13   S    
C7    O16   S    
C12   O9    A    
C18   C31   A    
C20   H23   S    
C27   O7    S    
C3    O12   A    
C20   H12   S    
