data_mof_unit_21522.cif
_audit_creation_date              2012-12-10T16:53:28-0500
_audit_creation_method            fapswitch 2.2
_symmetry_space_group_name_H-M    P1
_symmetry_Int_Tables_number       1
_space_group_crystal_system       triclinic
_cell_length_a                    7.84596
_cell_length_b                    8.598807
_cell_length_c                    13.57976
_cell_angle_alpha                 92.938844
_cell_angle_beta                  78.405219
_cell_angle_gamma                 93.383297
_cell_volume                      895.182853142

loop_
_atom_site_label
_atom_site_type_symbol
_atom_type_description
_atom_site_fract_x
_atom_site_fract_y
_atom_site_fract_z
_atom_type_partial_charge
C1    C     C_R   0.544933 0.794188 0.497491 0.920589
C2    C     C_1   0.553160 0.448438 0.121195 0.050391
C3    C     C_2   0.561117 0.956400 0.512169 0.074250
C4    C     C_2   0.439139 0.043617 0.487432 0.073393
C5    C     C_3   0.034027 0.333699 0.324346 0.235923
C6    C     C_3   0.931342 0.190456 0.291179 -0.377493
C7    C     C_3   0.945217 0.182043 0.177288 -0.822739
C8    C     C_3   0.021524 0.719524 0.656942 0.197392
C9    C     C_3   0.950016 0.617731 0.746847 -0.393434
C10   C     C_3   0.010031 0.684496 0.841324 -0.800347
C11   C     C_R   0.455116 0.205805 0.502360 0.915384
C12   C     C_R   0.469993 0.502550 0.687147 0.880693
C13   C     C_R   0.529239 0.493910 0.312884 0.882183
C14   C     C_1   0.545945 0.470284 0.208780 -0.137446
C15   C     C_1   0.446848 0.499970 0.791917 -0.149266
C16   C     C_2   0.548539 0.430021 0.018067 0.286424
C17   C     C_2   0.419808 0.493024 0.985073 0.294607
C18   C     C_1   0.428993 0.497031 0.880568 0.065447
Cl1   Cl    Cl    0.246048 0.585470 0.065568 -0.627697
Cl2   Cl    Cl    0.718678 0.332323 0.938231 -0.616339
Cl3   Cl    Cl    0.717976 0.023371 0.585092 -0.533954
Cl4   Cl    Cl    0.282695 0.976747 0.414228 -0.549330
H1    H     H_    0.170964 0.327289 0.283207 0.160114
H2    H     H_    0.805655 0.613183 0.761627 0.250412
H3    H     H_    0.994179 0.497134 0.730097 0.265353
H4    H     H_    0.154290 0.697345 0.827972 0.262527
H5    H     H_    0.964263 0.605426 0.904321 0.318733
H6    H     H_    0.955533 0.800392 0.863382 0.269086
H7    H     H_    0.985651 0.442529 0.300733 0.148009
H8    H     H_    0.982407 0.083055 0.314233 0.284226
H9    H     H_    0.792187 0.195096 0.327565 0.242810
H10   H     H_    0.893209 0.287749 0.152675 0.288849
H11   H     H_    0.083193 0.172461 0.138328 0.281421
H12   H     H_    0.868262 0.077999 0.155544 0.281685
H13   H     H_    0.975162 0.838848 0.676699 0.193042
H14   H     H_    0.163948 0.733283 0.643671 0.172642
N1    N     N_2   0.954190 0.457600 0.473930 0.188011
N2    N     N_2   0.045810 0.542400 0.526070 0.176539
O1    O     O_R   0.388300 0.738660 0.506400 -0.617140
O2    O     O_3   0.957699 0.665802 0.570913 -0.512988
O3    O     O_R   0.611700 0.261340 0.493600 -0.596928
O4    O     O_R   0.679920 0.711490 0.489690 -0.541844
O5    O     O_R   0.320080 0.288510 0.510310 -0.546468
O6    O     O_R   0.333200 0.515510 0.649910 -0.663669
O7    O     O_R   0.666800 0.484490 0.350090 -0.653865
O8    O     O_R   0.624820 0.488340 0.633200 -0.573451
O9    O     O_R   0.375180 0.511660 0.366800 -0.593265
O10   O     O_3   0.034739 0.331563 0.428293 -0.507959
Zn1   Zn    Zn3+2 0.305280 0.518140 0.511160 1.066984
Zn2   Zn    Zn3+2 0.694720 0.481860 0.488840 1.088504

loop_
_geom_bond_atom_site_label_1
_geom_bond_atom_site_label_2
_ccdc_geom_bond_type
C10   H5    S    
O6    Zn1   S    
C15   C18   T    
N2    O2    S    
C1    O4    A    
C9    H2    S    
C11   O5    A    
C6    C7    S    
C2    C16   S    
C9    C10   S    
O8    Zn2   S    
C5    H1    S    
C12   C15   S    
C16   Cl2   S    
C10   H4    S    
C6    H9    S    
C8    C9    S    
C9    H3    S    
O9    Zn1   S    
N2    Zn1   S    
C13   C14   S    
C4    C11   S    
C13   O7    A    
N1    Zn2   S    
C7    H11   S    
N1    N2    D    
O7    Zn2   S    
O4    Zn2   S    
C12   O8    A    
O1    Zn1   S    
C11   O3    A    
C5    H7    S    
C17   C18   S    
C5    C6    S    
C2    C14   T    
C5    O10   S    
C3    Cl3   S    
C1    O1    A    
C3    C4    D    
O3    Zn2   S    
C4    Cl4   S    
C7    H12   S    
C12   O6    A    
C8    H14   S    
C10   H6    S    
C1    C3    S    
C13   O9    A    
O5    Zn1   S    
C7    H10   S    
C8    O2    S    
C17   Cl1   S    
C6    H8    S    
C16   C17   D    
N1    O10   S    
C8    H13   S    
