data_mof_unit_47372.cif
_audit_creation_date              2012-12-11T14:07:16-0500
_audit_creation_method            fapswitch 2.2
_symmetry_space_group_name_H-M    P1
_symmetry_Int_Tables_number       1
_space_group_crystal_system       triclinic
_cell_length_a                    19.686107
_cell_length_b                    16.959294
_cell_length_c                    15.483629
_cell_angle_alpha                 89.806883
_cell_angle_beta                  53.588241
_cell_angle_gamma                 89.832261
_cell_volume                      4160.16413003

loop_
_atom_site_label
_atom_site_type_symbol
_atom_type_description
_atom_site_fract_x
_atom_site_fract_y
_atom_site_fract_z
_atom_type_partial_charge
C1    C     C_R   0.339770 0.174555 0.050188 -0.065035
C2    C     C_R   0.375583 0.801880 0.995138 -0.138137
C3    C     C_R   0.839770 0.674555 0.050188 -0.065034
C4    C     C_R   0.875582 0.301881 0.995139 -0.138133
C5    C     C_R   0.632988 0.894593 0.106049 -0.159682
C6    C     C_R   0.669649 0.081743 0.050522 -0.154384
C7    C     C_R   0.132988 0.394594 0.106050 -0.159681
C8    C     C_R   0.169649 0.581743 0.050523 -0.154386
C9    C     C_R   0.711711 0.145080 0.980546 0.118183
C10   C     C_R   0.648121 0.815345 0.077471 0.150392
C11   C     C_R   0.211711 0.645080 0.980546 0.118186
C12   C     C_R   0.148121 0.315346 0.077472 0.150400
C13   C     C_R   0.682265 0.852022 0.676730 -0.047074
C14   C     C_R   0.610593 0.184143 0.695807 -0.098197
C15   C     C_R   0.182254 0.352015 0.676727 -0.047071
C16   C     C_R   0.110595 0.684143 0.695806 -0.098193
C17   C     C_3   0.251271 0.194711 0.467195 -0.395736
C18   C     C_3   0.177291 0.861936 0.503741 -0.398782
C19   C     C_3   0.751259 0.694742 0.467174 -0.395709
C20   C     C_3   0.677291 0.361932 0.503737 -0.398785
C21   C     C_3   0.197195 0.235917 0.574628 -0.410361
C22   C     C_3   0.117655 0.813222 0.607115 -0.396497
C23   C     C_3   0.697197 0.735936 0.574619 -0.410377
C24   C     C_3   0.617653 0.313219 0.607112 -0.396496
C25   C     C_3   0.379841 0.239140 0.455624 -0.423784
C26   C     C_3   0.304592 0.786092 0.462835 -0.387151
C27   C     C_3   0.879829 0.739105 0.455652 -0.423765
C28   C     C_3   0.804588 0.286095 0.462841 -0.387170
C29   C     C_3   0.826502 0.820225 0.370533 -0.410194
C30   C     C_3   0.721587 0.235560 0.398483 -0.416239
C31   C     C_3   0.326457 0.320207 0.370537 -0.410198
C32   C     C_3   0.221582 0.735561 0.398483 -0.416224
C33   C     C_3   0.338834 0.234952 0.395664 0.408058
C34   C     C_3   0.254342 0.811040 0.419057 0.398178
C35   C     C_3   0.838840 0.734955 0.395664 0.408058
C36   C     C_3   0.754343 0.311040 0.419058 0.398173
C37   C     C_3   0.741583 0.811862 0.573448 0.413689
C38   C     C_3   0.658467 0.231815 0.596548 0.401336
C39   C     C_3   0.241570 0.311855 0.573447 0.413712
C40   C     C_3   0.158467 0.731816 0.596547 0.401329
C41   C     C_3   0.826783 0.792854 0.554224 -0.371368
C42   C     C_3   0.747615 0.242480 0.568511 -0.406668
C43   C     C_3   0.326779 0.292872 0.554211 -0.371345
C44   C     C_3   0.247618 0.742476 0.568506 -0.406671
C45   C     C_R   0.352460 0.825462 0.217473 -0.139492
C46   C     C_R   0.399051 0.199924 0.205849 -0.126210
C47   C     C_R   0.852461 0.325461 0.217473 -0.139490
C48   C     C_R   0.899050 0.699924 0.205851 -0.126211
C49   C     C_3   0.763578 0.863483 0.476040 -0.417911
C50   C     C_3   0.667626 0.187711 0.501879 -0.388103
C51   C     C_3   0.263542 0.363467 0.476043 -0.417910
C52   C     C_3   0.167621 0.687712 0.501879 -0.388103
C53   C     C_2   0.285870 0.683311 0.959545 -0.193799
C54   C     C_2   0.188747 0.257969 0.103120 -0.219541
C55   C     C_2   0.785870 0.183311 0.959544 -0.193799
C56   C     C_2   0.688747 0.757968 0.103119 -0.219544
C57   C     C_2   0.813361 0.250986 0.903953 -0.211604
C58   C     C_2   0.710312 0.686698 0.055630 -0.176127
C59   C     C_2   0.313361 0.750986 0.903952 -0.211605
C60   C     C_2   0.210311 0.186698 0.055632 -0.176129
C61   C     C_R   0.366330 0.888065 0.896060 -0.162095
C62   C     C_R   0.328814 0.086821 0.953119 -0.137930
C63   C     C_R   0.866329 0.388065 0.896060 -0.162094
C64   C     C_R   0.828814 0.586821 0.953119 -0.137928
C65   C     C_R   0.407805 0.108691 0.302079 -0.153108
C66   C     C_R   0.359305 0.919068 0.314176 -0.141167
C67   C     C_R   0.907801 0.608690 0.302081 -0.153109
C68   C     C_R   0.859306 0.419068 0.314176 -0.141168
C69   C     C_R   0.286816 0.147779 0.026554 0.114982
C70   C     C_R   0.348587 0.811410 0.932214 0.161323
C71   C     C_R   0.786816 0.647779 0.026553 0.114982
C72   C     C_R   0.848586 0.311410 0.932215 0.161323
C73   C     C_R   0.312779 0.855508 0.319831 -0.005344
C74   C     C_R   0.388861 0.186416 0.300131 -0.016016
C75   C     C_R   0.812780 0.355507 0.319831 -0.005343
C76   C     C_R   0.888862 0.686416 0.300132 -0.016013
C77   C     C_R   0.661608 0.176488 0.953376 -0.070551
C78   C     C_R   0.619490 0.799213 0.017605 -0.082220
C79   C     C_R   0.161608 0.676489 0.953377 -0.070556
C80   C     C_R   0.119489 0.299213 0.017607 -0.082241
C81   C     C_R   0.641978 0.819836 0.780290 0.004836
C82   C     C_R   0.599627 0.199639 0.791635 -0.007478
C83   C     C_R   0.141974 0.319834 0.780289 0.004816
C84   C     C_R   0.099629 0.699639 0.791633 -0.007476
C85   C     C_R   0.591411 0.105949 0.697766 -0.144312
C86   C     C_R   0.637490 0.918603 0.685318 -0.167159
C87   C     C_R   0.091412 0.605949 0.697765 -0.144311
C88   C     C_R   0.137482 0.418598 0.685317 -0.167161
H1    H     H_    0.330367 0.223371 0.100454 0.091272
H2    H     H_    0.384956 0.746728 0.021781 0.079412
H3    H     H_    0.830367 0.723371 0.100454 0.091273
H4    H     H_    0.884956 0.246728 0.021782 0.079412
H5    H     H_    0.219374 0.197105 0.427165 0.159948
H6    H     H_    0.142611 0.882325 0.471449 0.155806
H7    H     H_    0.719368 0.697184 0.427135 0.159941
H8    H     H_    0.642613 0.382318 0.471442 0.155808
H9    H     H_    0.634586 0.750431 0.593128 0.149739
H10   H     H_    0.556247 0.304285 0.620017 0.163638
H11   H     H_    0.134586 0.250399 0.593122 0.149734
H12   H     H_    0.056247 0.804290 0.620023 0.163638
H13   H     H_    0.186222 0.193348 0.635885 0.187437
H14   H     H_    0.103861 0.847799 0.675998 0.145650
H15   H     H_    0.686229 0.693357 0.635864 0.187419
H16   H     H_    0.603856 0.347798 0.675995 0.145648
H17   H     H_    0.383103 0.179421 0.482877 0.165389
H18   H     H_    0.331325 0.838063 0.476690 0.148206
H19   H     H_    0.883043 0.679377 0.482929 0.165396
H20   H     H_    0.831317 0.338067 0.476697 0.148211
H21   H     H_    0.819703 0.764707 0.623223 0.221806
H22   H     H_    0.744586 0.276174 0.632152 0.137060
H23   H     H_    0.319709 0.264720 0.623202 0.221805
H24   H     H_    0.244592 0.776170 0.632147 0.137061
H25   H     H_    0.887993 0.851897 0.323110 0.165018
H26   H     H_    0.775016 0.197433 0.337381 0.149070
H27   H     H_    0.387936 0.351895 0.323087 0.165009
H28   H     H_    0.275010 0.697431 0.337378 0.149064
H29   H     H_    0.800543 0.820448 0.323379 0.146121
H30   H     H_    0.683988 0.251534 0.368609 0.156981
H31   H     H_    0.300474 0.320400 0.323410 0.146128
H32   H     H_    0.183980 0.751538 0.368610 0.156975
H33   H     H_    0.705661 0.875383 0.481065 0.154739
H34   H     H_    0.604458 0.177251 0.520247 0.150840
H35   H     H_    0.205614 0.375356 0.481086 0.154734
H36   H     H_    0.104451 0.677256 0.520251 0.150840
H37   H     H_    0.790948 0.921082 0.475245 0.153252
H38   H     H_    0.698752 0.129422 0.488206 0.149918
H39   H     H_    0.290910 0.421072 0.475232 0.153251
H40   H     H_    0.198747 0.629422 0.488204 0.149916
H41   H     H_    0.445393 0.262287 0.401473 0.155848
H42   H     H_    0.358589 0.747512 0.403625 0.158634
H43   H     H_    0.945399 0.762217 0.401512 0.155835
H44   H     H_    0.858586 0.247519 0.403634 0.158641
H45   H     H_    0.335118 0.774727 0.192906 0.093437
H46   H     H_    0.399000 0.256048 0.172705 0.125358
H47   H     H_    0.835120 0.274725 0.192907 0.093436
H48   H     H_    0.899000 0.756048 0.172706 0.125355
H49   H     H_    0.861740 0.848663 0.539820 0.147243
H50   H     H_    0.776147 0.184003 0.562370 0.159819
H51   H     H_    0.361717 0.348691 0.539822 0.147232
H52   H     H_    0.276149 0.683997 0.562364 0.159819
H53   H     H_    0.305255 0.664445 0.008869 0.125444
H54   H     H_    0.214927 0.280401 0.143039 0.125638
H55   H     H_    0.805255 0.164445 0.008868 0.125445
H56   H     H_    0.714926 0.780400 0.143040 0.125639
H57   H     H_    0.796583 0.268739 0.851558 0.122195
H58   H     H_    0.682841 0.663225 0.017874 0.144786
H59   H     H_    0.296584 0.768739 0.851557 0.122194
H60   H     H_    0.182840 0.163224 0.017877 0.144777
H61   H     H_    0.363028 0.913556 0.834493 0.096017
H62   H     H_    0.307071 0.052729 0.915001 0.113751
H63   H     H_    0.863028 0.413556 0.834493 0.096016
H64   H     H_    0.807072 0.552729 0.915000 0.113751
H65   H     H_    0.411403 0.079214 0.361272 0.089365
H66   H     H_    0.348195 0.954281 0.379466 0.089220
H67   H     H_    0.911400 0.579212 0.361274 0.089365
H68   H     H_    0.848196 0.454280 0.379466 0.089220
H69   H     H_    0.674284 0.226870 0.903760 0.100264
H70   H     H_    0.605346 0.741780 0.003029 0.089826
H71   H     H_    0.174284 0.726871 0.903761 0.100262
H72   H     H_    0.105343 0.241779 0.003035 0.089806
H73   H     H_    0.582598 0.075746 0.643761 0.094902
H74   H     H_    0.647050 0.956015 0.622602 0.101881
H75   H     H_    0.082598 0.575746 0.643761 0.094901
H76   H     H_    0.147038 0.456010 0.622602 0.101879
H77   H     H_    0.637736 0.922124 0.165164 0.090650
H78   H     H_    0.690449 0.047809 0.090019 0.101553
H79   H     H_    0.137736 0.422125 0.165164 0.090649
H80   H     H_    0.190449 0.547809 0.090020 0.101552
H81   H     H_    0.256720 0.131301 0.481339 0.154894
H82   H     H_    0.198654 0.915255 0.523121 0.151750
H83   H     H_    0.756677 0.631315 0.481302 0.154882
H84   H     H_    0.698649 0.415252 0.523118 0.151752
N1    N     N_R   0.408680 0.130160 0.995800 -0.034926
N2    N     N_R   0.408680 0.869840 0.995800 -0.044934
N3    N     N_R   0.908680 0.630160 0.995800 -0.034926
N4    N     N_R   0.908680 0.369840 0.995800 -0.044934
N5    N     N_R   0.421680 0.867580 0.153120 -0.039820
N6    N     N_R   0.421680 0.132420 0.153120 -0.033387
N7    N     N_R   0.921680 0.367580 0.153120 -0.039819
N8    N     N_R   0.921680 0.632420 0.153120 -0.033387
N9    N     N_R   0.403730 0.921770 0.935950 -0.040932
N10   N     N_R   0.403730 0.078230 0.935950 -0.047711
N11   N     N_R   0.903730 0.421770 0.935950 -0.040932
N12   N     N_R   0.903730 0.578230 0.935950 -0.047712
N13   N     N_R   0.426630 0.075970 0.212960 -0.036517
N14   N     N_R   0.426630 0.924030 0.212960 -0.035401
N15   N     N_R   0.926630 0.575970 0.212960 -0.036517
N16   N     N_R   0.926630 0.424030 0.212960 -0.035400
N17   N     N_R   0.591320 0.134600 0.004200 -0.032119
N18   N     N_R   0.591320 0.865400 0.004200 -0.058239
N19   N     N_R   0.091320 0.634600 0.004200 -0.032121
N20   N     N_R   0.091320 0.365400 0.004200 -0.058240
N21   N     N_R   0.578320 0.867660 0.846880 -0.075224
N22   N     N_R   0.578320 0.132340 0.846880 -0.041527
N23   N     N_R   0.078320 0.367660 0.846880 -0.075223
N24   N     N_R   0.078320 0.632340 0.846880 -0.041528
N25   N     N_R   0.573370 0.074390 0.787040 -0.042279
N26   N     N_R   0.573370 0.925610 0.787040 -0.041221
N27   N     N_R   0.073370 0.574390 0.787040 -0.042280
N28   N     N_R   0.073370 0.425610 0.787040 -0.041218
N29   N     N_R   0.596270 0.927870 0.064040 -0.041618
N30   N     N_R   0.596270 0.072130 0.064040 -0.045328
N31   N     N_R   0.096270 0.427870 0.064040 -0.041617
N32   N     N_R   0.096270 0.572130 0.064040 -0.045328
Ni1   Ni    Ni4+2 0.500000 0.131190 0.000000 0.282807
Ni2   Ni    Ni4+2 0.500000 0.868810 0.000000 0.191962
Ni3   Ni    Ni4+2 0.000000 0.631190 0.000000 0.282806
Ni4   Ni    Ni4+2 0.000000 0.368810 0.000000 0.191961
Ni5   Ni    Ni4+2 0.488650 0.000000 0.862740 0.204918
Ni6   Ni    Ni4+2 0.988650 0.500000 0.862740 0.204918
Ni7   Ni    Ni4+2 0.511350 0.000000 0.137260 0.205327
Ni8   Ni    Ni4+2 0.011350 0.500000 0.137260 0.205327
C89   C     C_2   0.645409 0.739231 0.813503 0.404798
H85   H     H_    0.586536 0.709505 0.872843 0.008385
O1    O     O_2   0.711805 0.706180 0.779894 -0.618269
C90   C     C_2   0.588441 0.277528 0.840563 0.418384
H86   H     H_    0.627075 0.327292 0.792944 -0.003235
O2    O     O_2   0.536114 0.286386 0.937078 -0.599160
C91   C     C_2   0.145414 0.239234 0.813506 0.404832
H87   H     H_    0.086546 0.209511 0.872867 0.008377
O3    O     O_2   0.211813 0.206181 0.779869 -0.618278
C92   C     C_2   0.088446 0.777528 0.840561 0.418386
H88   H     H_    0.127088 0.827290 0.792940 -0.003245
O4    O     O_2   0.036114 0.786388 0.937076 -0.599154

loop_
_geom_bond_atom_site_label_1
_geom_bond_atom_site_label_2
_ccdc_geom_bond_type
C61   C70   A    
C42   H22   S    
N4    N11   A    
C87   H75   S    
N12   Ni6   S    
C6    H78   S    
C51   H35   S    
C3    H3    S    
C57   H57   S    
C42   H50   S    
C27   H43   S    
C48   C76   A    
C20   C36   S    
C39   C51   S    
C50   H34   S    
C87   N27   A    
N30   Ni7   S    
C45   C73   A    
C25   H41   S    
C25   C43   S    
C6    C9    A    
C52   H36   S    
C53   C59   D    
C26   C44   S    
C54   C60   D    
C89   H85   S    
N11   Ni6   S    
C1    N1    A    
C17   C33   S    
C64   H64   S    
C24   H10   S    
N9    Ni5   S    
C36   C75   S    
C90   O2    D    
C38   C42   S    
C79   H71   S    
C21   H11   S    
C17   H81   S    
C58   C71   S    
C80   H72   S    
N22   N25   A    
C91   O3    D    
N21   N26   A    
N6    Ni1   S    
C13   C81   A    
C16   C84   A    
C85   H73   S    
N5    Ni2   S    
C79   N19   A    
C55   H55   S    
C67   H67   S    
C64   C71   A    
C2    H2    S    
N26   Ni5   S    
C46   N6    A    
C32   C52   S    
C47   N7    A    
C8    H80   S    
N6    N13   A    
N18   Ni2   S    
C23   H15   S    
N23   Ni4   S    
C20   C24   S    
N17   Ni1   S    
C78   N18   A    
C13   C86   A    
C16   C87   A    
C7    N31   A    
C31   C33   S    
N28   Ni6   S    
C43   H51   S    
C86   H74   S    
N3    Ni3   S    
N8    Ni3   S    
C10   C56   S    
C13   C37   S    
C11   C53   S    
C45   N5    A    
C81   C89   S    
C19   H83   S    
C21   H13   S    
C18   H82   S    
C20   H8    S    
C22   C40   S    
C44   H52   S    
C20   H84   S    
C41   H21   S    
N14   Ni7   S    
C37   C41   S    
C80   N20   A    
C26   H18   S    
C63   H63   S    
C43   H23   S    
C32   H32   S    
N24   N27   A    
N2    N9    A    
C31   H27   S    
C67   N15   A    
C28   H44   S    
C89   O1    D    
C52   H40   S    
C7    C12   A    
C30   C50   S    
C65   N13   A    
C35   C76   S    
C48   N8    A    
C63   N11   A    
C25   H17   S    
C8    N32   A    
C22   H12   S    
C90   H86   S    
C91   H87   S    
C66   H66   S    
C19   C23   S    
C56   H56   S    
C29   C49   S    
N7    N16   A    
C30   H30   S    
C27   C35   S    
C34   C73   S    
C40   C52   S    
C66   C73   A    
C29   H29   S    
N10   Ni5   S    
C1    C69   A    
N5    N14   A    
C62   C69   A    
C68   C75   A    
C32   C34   S    
C3    C71   A    
N8    N15   A    
C46   H46   S    
C83   C91   S    
C45   H45   S    
C27   C41   S    
C24   C38   S    
C21   C39   S    
C27   H19   S    
C88   H76   S    
C15   C39   S    
N32   Ni8   S    
C25   C33   S    
N13   Ni7   S    
C47   H47   S    
N19   Ni3   S    
C32   H28   S    
C92   O4    D    
C18   C34   S    
C46   C74   A    
C31   H31   S    
C37   C49   S    
C11   C79   A    
C86   N26   A    
C50   H38   S    
C44   H24   S    
C3    N3    A    
C23   H9    S    
C16   C40   S    
C19   C35   S    
N20   Ni4   S    
C5    H77   S    
C66   N14   A    
C18   H6    S    
C68   N16   A    
C82   C90   S    
N31   Ni8   S    
C17   H5    S    
N19   N32   A    
C14   C82   A    
C14   C38   S    
C4    C72   A    
C19   H7    S    
N23   N28   A    
C30   H26   S    
C85   N25   A    
N22   Ni1   S    
C7    H79   S    
N7    Ni4   S    
C1    H1    S    
N21   Ni2   S    
C62   H62   S    
C26   C34   S    
C18   C22   S    
C41   H49   S    
C78   H70   S    
C48   H48   S    
C14   C85   A    
C31   C51   S    
N15   Ni8   S    
C68   H68   S    
C26   H42   S    
N1    N10   A    
C15   C83   A    
C58   H58   S    
N18   N29   A    
C6    N30   A    
C38   C50   S    
N17   N30   A    
C49   H37   S    
C29   C35   S    
C61   N9    A    
C22   H14   S    
C30   C36   S    
C84   N24   A    
N27   Ni6   S    
C77   N17   A    
C54   H54   S    
N4    Ni4   S    
N24   Ni3   S    
C55   C57   D    
C9    C77   A    
C47   C75   A    
C5    C10   A    
C23   C37   S    
C2    N2    A    
C5    N29   A    
N16   Ni8   S    
C88   N28   A    
C60   C69   S    
C84   C92   S    
C8    C11   A    
C12   C80   A    
C28   C42   S    
C63   C72   A    
N20   N31   A    
C56   C58   D    
C10   C78   A    
C53   H53   S    
C49   H33   S    
C65   H65   S    
C83   N23   A    
C9    C55   S    
C28   H20   S    
C17   C21   S    
C82   N22   A    
N25   Ni5   S    
C65   C74   A    
C59   C70   S    
C81   N21   A    
C64   N12   A    
C33   C74   S    
C40   C44   S    
C51   H39   S    
C28   C36   S    
C4    N4    A    
C39   C43   S    
C29   H25   S    
C62   N10   A    
N2    Ni2   S    
C57   C72   S    
C15   C88   A    
N1    Ni1   S    
C67   C76   A    
C60   H60   S    
C24   H16   S    
C2    C70   A    
C61   H61   S    
C92   H88   S    
N29   Ni7   S    
C12   C54   S    
C77   H69   S    
N3    N12   A    
C4    H4    S    
C59   H59   S    
