data_mof_unit_17101.cif
_audit_creation_date              2012-12-10T17:38:20-0500
_audit_creation_method            fapswitch 2.2
_symmetry_space_group_name_H-M    P1
_symmetry_Int_Tables_number       1
_space_group_crystal_system       triclinic
_cell_length_a                    12.443694
_cell_length_b                    13.189958
_cell_length_c                    19.348274
_cell_angle_alpha                 74.544816
_cell_angle_beta                  101.434956
_cell_angle_gamma                 116.936572
_cell_volume                      2717.62613094

loop_
_atom_site_label
_atom_site_type_symbol
_atom_type_description
_atom_site_fract_x
_atom_site_fract_y
_atom_site_fract_z
_atom_type_partial_charge
C1    C     C_R   0.855459 0.286190 0.507815 0.813547
C2    C     C_R   0.016361 0.520789 0.707500 -0.188633
C3    C     C_R   0.003917 0.506167 0.070433 0.431703
C4    C     C_R   0.016850 0.517912 0.930181 0.440192
C5    C     C_R   0.035008 0.425089 0.200924 -0.248628
C6    C     C_R   0.036337 0.423612 0.273761 0.432984
C7    C     C_R   0.997433 0.497263 0.292347 -0.112489
C8    C     C_R   0.959317 0.571701 0.238190 -0.261401
C9    C     C_R   0.961154 0.574542 0.166014 -0.148353
C10   C     C_R   0.999760 0.501833 0.146727 -0.000031
C11   C     C_R   0.292136 0.032508 0.401090 -0.236863
C12   C     C_R   0.005830 0.507801 0.631785 0.840756
C13   C     C_R   0.229024 0.839153 0.475734 -0.096954
C14   C     C_R   0.804191 0.089412 0.580415 -0.203254
C15   C     C_R   0.716954 0.981572 0.609347 0.026809
C16   C     C_R   0.597723 0.943537 0.578231 -0.218837
C17   C     C_R   0.563695 0.012473 0.516254 0.067836
C18   C     C_R   0.654021 0.121801 0.486497 0.073638
C19   C     C_R   0.441865 0.979373 0.484884 0.083225
C20   C     C_R   0.412458 0.058483 0.427976 0.149032
C21   C     C_R   0.503512 0.161917 0.397072 -0.227321
C22   C     C_R   0.623025 0.190620 0.423828 -0.186115
C23   C     C_R   0.144945 0.714560 0.489207 0.766783
C24   C     C_R   0.348619 0.869277 0.506820 -0.260252
C25   C     C_R   0.199720 0.924979 0.425888 -0.019318
C26   C     C_R   0.772888 0.161998 0.521200 -0.106043
C27   C     C_R   0.325653 0.304322 0.604099 -0.374240
C28   C     C_R   0.759936 0.647228 0.401516 0.092302
C29   C     C_R   0.665713 0.680963 0.380007 -0.231657
C30   C     C_R   0.562327 0.624489 0.416963 -0.191940
C31   C     C_R   0.549619 0.530489 0.475366 -0.001434
C32   C     C_R   0.648970 0.497058 0.496710 0.221898
C33   C     C_R   0.441405 0.468878 0.513079 -0.031745
C34   C     C_R   0.998896 0.498920 0.367952 0.806133
C35   C     C_R   0.427561 0.367564 0.565406 0.086217
C36   C     C_R   0.516953 0.329982 0.582155 -0.269765
C37   C     C_R   0.628774 0.395753 0.555087 -0.022255
C38   C     C_R   0.344228 0.501456 0.501360 -0.071922
C39   C     C_R   0.236606 0.343781 0.593317 0.678134
C40   C     C_R   0.120097 0.524713 0.755892 -0.143076
C41   C     C_R   0.121817 0.524103 0.829117 -0.054660
C42   C     C_R   0.022166 0.523286 0.853877 -0.056748
C43   C     C_R   0.925867 0.530317 0.804867 -0.260491
C44   C     C_R   0.923793 0.533199 0.731960 0.446402
Cu1   Cu    Cu3+1 0.098280 0.475420 0.516260 0.994509
Cu2   Cu    Cu3+1 0.901720 0.524580 0.483740 0.952402
H1    H     H_    0.482436 0.220287 0.351204 0.147841
H2    H     H_    0.270467 0.095654 0.359338 0.137907
H3    H     H_    0.367833 0.802669 0.545555 0.162909
H4    H     H_    0.894372 0.120795 0.607841 0.190816
H5    H     H_    0.533157 0.862074 0.605469 0.142406
H6    H     H_    0.690769 0.268755 0.395393 0.168456
H7    H     H_    0.501373 0.250592 0.622942 0.151667
H8    H     H_    0.316062 0.225300 0.643074 0.153873
H9    H     H_    0.343725 0.575661 0.461207 0.139678
H10   H     H_    0.837814 0.688391 0.370962 0.149420
H11   H     H_    0.491834 0.653882 0.397207 0.135581
H12   H     H_    0.672354 0.750695 0.333888 0.159409
H13   H     H_    0.850324 0.532455 0.823316 0.170131
H14   H     H_    0.060014 0.364894 0.186946 0.163628
H15   H     H_    0.930061 0.629327 0.251761 0.165683
H16   H     H_    0.932974 0.634283 0.125402 0.168850
N1    N     N_R   0.966558 0.578179 0.948605 -0.231881
N2    N     N_R   0.960604 0.572729 0.017451 -0.236073
N3    N     N_R   0.052962 0.444950 0.051854 -0.237243
N4    N     N_R   0.059063 0.450500 0.983047 -0.216930
N5    N     N_R   0.246290 0.438200 0.540910 -0.215958
N6    N     N_R   0.754310 0.561190 0.459520 -0.221531
O1    O     O_R   0.972510 0.318130 0.520450 -0.520940
O2    O     O_R   0.806530 0.359650 0.492990 -0.606106
O3    O     O_R   0.083010 0.479220 0.613590 -0.555030
O4    O     O_R   0.917030 0.520740 0.586130 -0.539803
O5    O     O_R   0.193470 0.640350 0.507010 -0.586888
O6    O     O_R   0.027490 0.681870 0.479550 -0.584724
O7    O     O_R   0.082970 0.479260 0.413870 -0.558256
O8    O     O_R   0.916990 0.520780 0.386410 -0.603675
C45   C     C_1   0.228987 0.537704 0.730695 0.269574
N7    N     N_1   0.316177 0.548675 0.710782 -0.291856
C46   C     C_1   0.747529 0.914517 0.675550 0.210878
N8    N     N_1   0.772072 0.861017 0.728907 -0.293643
O9    O     O_3   0.131505 0.281276 0.628284 -0.571506
C47   C     C_3   0.156022 0.258439 0.704195 0.045780
H17   H     H_    0.106901 0.291932 0.727513 0.185971
H18   H     H_    0.253338 0.301592 0.724041 0.140071
C48   C     C_3   0.107824 0.127949 0.733307 -0.812350
H19   H     H_    0.149595 0.089054 0.708678 0.240287
H20   H     H_    0.129165 0.110749 0.792592 0.225243
H21   H     H_    0.008165 0.086103 0.721283 0.255936
C49   C     C_1   0.228245 0.529191 0.877942 0.282078
N9    N     N_1   0.313213 0.533320 0.916756 -0.252372
C50   C     C_1   0.709556 0.348942 0.599516 0.431131
N10   N     N_1   0.766612 0.304337 0.638251 -0.317322
O10   O     O_3   0.828897 0.545187 0.684816 -0.575567
C51   C     C_3   0.837966 0.658452 0.677140 0.070339
H22   H     H_    0.933401 0.725933 0.674187 0.135450
H23   H     H_    0.799624 0.662682 0.722972 0.175639
C52   C     C_3   0.766071 0.687498 0.607799 -0.722404
H24   H     H_    0.770983 0.775423 0.601487 0.204635
H25   H     H_    0.805159 0.687064 0.561209 0.256127
H26   H     H_    0.669812 0.623399 0.608609 0.246514
O11   O     O_3   0.060381 0.340388 0.326629 -0.569569
C53   C     C_3   0.184527 0.366021 0.331675 0.080683
H27   H     H_    0.242181 0.455386 0.341760 0.140434
H28   H     H_    0.208885 0.357477 0.281874 0.133182
C54   C     C_3   0.211260 0.280134 0.394352 -0.734493
H29   H     H_    0.156676 0.190378 0.385029 0.246125
H30   H     H_    0.308893 0.299605 0.399823 0.192912
H31   H     H_    0.187571 0.285851 0.445088 0.261030
C55   C     C_1   0.077876 0.907007 0.397184 0.248926
N11   N     N_1   0.981150 0.896081 0.373713 -0.311156

loop_
_geom_bond_atom_site_label_1
_geom_bond_atom_site_label_2
_ccdc_geom_bond_type
C41   C49   S    
O10   C51   S    
Cu1   O3    S    
C53   H27   S    
C41   C42   A    
C35   C36   A    
C18   C26   A    
C16   H5    S    
C2    C12   S    
Cu2   O8    S    
C52   H24   S    
C28   H10   S    
C27   H8    S    
C7    C8    A    
C14   H4    S    
C3    N2    A    
C54   H30   S    
C4    N1    A    
O11   C53   S    
C28   C29   A    
C28   N6    A    
C5    C6    A    
C11   C25   A    
C15   C16   A    
C30   H11   S    
C13   C23   S    
C53   C54   S    
Cu1   O5    S    
C6    O11   S    
C44   O10   S    
C17   C19   A    
C15   C46   S    
C38   H9    S    
C19   C20   A    
C2    C44   A    
C16   C17   A    
Cu1   N5    S    
C31   C33   A    
C36   H7    S    
C9    C10   A    
Cu2   O4    S    
C43   H13   S    
C8    H15   S    
C32   N6    A    
C12   O4    A    
C21   C22   A    
C13   C25   A    
C11   H2    S    
C3    N3    A    
C23   O5    A    
C52   H25   S    
O9    C47   S    
C48   H20   S    
C54   H31   S    
C11   C20   A    
C37   C50   S    
Cu1   O1    S    
C9    H16   S    
C39   O9    S    
C27   C39   A    
C50   N10   T    
C8    C9    A    
C51   C52   S    
C27   C35   A    
C48   H19   S    
C1    O1    A    
N1    N2    A    
C13   C24   A    
C51   H23   S    
C43   C44   A    
Cu2   N6    S    
C29   C30   A    
C2    C40   A    
C31   C32   A    
C14   C15   A    
C20   C21   A    
C17   C18   A    
C32   C37   A    
C14   C26   A    
C53   H28   S    
C40   C41   A    
C12   O3    A    
C47   H17   S    
C47   H18   S    
C1    C26   S    
C7    C34   S    
C42   C43   A    
C23   O6    A    
Cu2   O6    S    
C52   H26   S    
C29   H12   S    
C22   H6    S    
C48   H21   S    
C24   H3    S    
C36   C37   A    
C5    H14   S    
C18   C22   A    
C39   N5    A    
C1    O2    A    
C6    C7    A    
C25   C55   S    
C47   C48   S    
C54   H29   S    
C34   O7    A    
C33   C38   A    
Cu1   O7    S    
C19   C24   A    
C5    C10   A    
C3    C10   S    
C55   N11   T    
C4    N4    A    
C30   C31   A    
C4    C42   S    
C33   C35   A    
C40   C45   S    
C51   H22   S    
Cu2   O2    S    
C46   N8    T    
Cu1   Cu2   S    
C38   N5    A    
N3    N4    A    
C45   N7    T    
C49   N9    T    
C34   O8    A    
C21   H1    S    
