data_mof_unit_15742.cif
_audit_creation_date              2013-03-05T16:22:15-0500
_audit_creation_method            fapswitch 2.2
_symmetry_space_group_name_H-M    P1
_symmetry_Int_Tables_number       1
_space_group_crystal_system       triclinic
_cell_length_a                    10.516671
_cell_length_b                    10.52238
_cell_length_c                    9.839615
_cell_angle_alpha                 90.457927
_cell_angle_beta                  89.022032
_cell_angle_gamma                 91.589463
_cell_volume                      1088.24751572

loop_
_atom_site_label
_atom_site_type_symbol
_atom_site_description
_atom_site_fract_x
_atom_site_fract_y
_atom_site_fract_z
_atom_type_partial_charge
O1    O     O_R   0.500010 0.313960 0.616610 -0.589613
O2    O     O_R   0.499990 0.686040 0.383390 -0.589635
O3    O     O_R   0.500060 0.313950 0.383350 -0.601620
O4    O     O_R   0.499940 0.686050 0.616650 -0.601619
C1    C     C_R   0.499168 0.257842 0.499279 0.920345
C2    C     C_R   0.500837 0.742158 0.500721 0.920376
O5    O     O_R   0.313930 0.499970 0.616610 -0.559330
O6    O     O_R   0.686070 0.500030 0.383390 -0.559359
O7    O     O_R   0.313980 0.499960 0.383350 -0.599313
O8    O     O_R   0.686020 0.500040 0.616650 -0.599314
C3    C     C_R   0.257981 0.497635 0.500690 0.939290
C4    C     C_R   0.742019 0.502369 0.499310 0.939259
Zn1   Zn    Zn3+2 0.499970 0.500010 0.655740 1.059376
Zn2   Zn    Zn3+2 0.500030 0.499990 0.344260 1.059365
C5    C     C_3   0.033174 0.397164 0.563531 0.380065
C6    C     C_3   0.966825 0.602846 0.436470 0.380083
C7    C     C_3   0.953500 0.395317 0.434466 -0.291414
C8    C     C_3   0.046500 0.604692 0.565536 -0.291372
H1    H     H_    0.912519 0.309658 0.382999 0.194451
H2    H     H_    0.087482 0.690350 0.617004 0.194511
C9    C     C_3   0.876834 0.503000 0.498768 -0.147679
C10   C     C_3   0.123166 0.497009 0.501233 -0.147678
C11   C     C_3   0.955052 0.502322 0.629709 -0.169786
C12   C     C_3   0.044948 0.497688 0.370292 -0.169787
H3    H     H_    0.916534 0.502113 0.735529 0.227025
H4    H     H_    0.083466 0.497897 0.264472 0.227002
C13   C     C_3   0.584630 0.047254 0.590955 -0.305316
C14   C     C_3   0.415387 0.952745 0.409046 -0.305049
C15   C     C_3   0.618881 0.961651 0.467674 -0.300153
C16   C     C_3   0.381134 0.038344 0.532327 -0.299949
H5    H     H_    0.716467 0.931686 0.442843 0.228202
H6    H     H_    0.283548 0.068295 0.557179 0.228261
H7    H     H_    0.652116 0.089489 0.665452 0.200174
H8    H     H_    0.347926 0.910518 0.334517 0.200234
C17   C     C_3   0.501193 0.877198 0.502123 -0.117047
C18   C     C_3   0.498819 0.122800 0.497876 -0.117044
C19   C     C_3   0.467512 0.961633 0.623271 0.618565
C20   C     C_3   0.532501 0.038365 0.376731 0.618513
C21   C     C_3   0.481651 0.384678 0.048533 -0.387116
C22   C     C_3   0.518349 0.615322 0.951467 -0.387097
C23   C     C_3   0.588080 0.430538 0.949345 0.509030
C24   C     C_3   0.411919 0.569464 0.050657 0.508991
H9    H     H_    0.464904 0.288986 0.093173 0.223893
H10   H     H_    0.535098 0.711014 0.906828 0.223844
N1    N     N_3   0.499910 0.500030 0.863290 -0.161151
N2    N     N_3   0.500090 0.499970 0.136710 -0.161158
C25   C     C_3   0.393993 0.456509 0.955706 0.253599
C26   C     C_3   0.606004 0.543493 0.044295 0.253622
N3    N     N_R   0.068386 0.282931 0.634431 0.235749
O9    O     O_R   0.980284 0.206239 0.683338 -0.379584
O10   O     O_R   0.187235 0.257889 0.651122 -0.397516
N4    N     N_R   0.931611 0.717082 0.365579 0.235699
O11   O     O_R   0.019710 0.793821 0.316756 -0.379693
O12   O     O_R   0.812761 0.742102 0.348849 -0.397479
O13   O     O_3   0.434834 0.912358 0.752513 -0.628812
C27   C     C_3   0.402374 0.013224 0.840363 -0.255748
H11   H     H_    0.313586 0.058114 0.807618 0.236024
H12   H     H_    0.481051 0.085759 0.848324 0.176141
H13   H     H_    0.384283 0.974592 0.943535 0.174107
O14   O     O_3   0.565077 0.087616 0.247453 -0.628953
C28   C     C_3   0.598275 0.986832 0.159835 -0.255760
H14   H     H_    0.520325 0.913476 0.152370 0.176869
H15   H     H_    0.687648 0.943021 0.192437 0.235802
H16   H     H_    0.615663 0.025284 0.056484 0.173717
O15   O     O_3   0.682495 0.358529 0.883329 -0.590650
C29   C     C_3   0.747659 0.283547 0.976279 -0.171006
H17   H     H_    0.704826 0.278706 0.080497 0.170843
H18   H     H_    0.847195 0.320409 0.983679 0.233908
H19   H     H_    0.751203 0.185173 0.935340 0.176423
O16   O     O_3   0.317534 0.641502 0.116686 -0.590710
C30   C     C_3   0.252290 0.716400 0.023723 -0.170958
H20   H     H_    0.152818 0.679372 0.016235 0.233869
H21   H     H_    0.295199 0.721369 0.919547 0.170879
H22   H     H_    0.248545 0.814748 0.064707 0.176666
N5    N     N_R   0.273284 0.405205 0.906106 0.256486
O17   O     O_R   0.238983 0.288582 0.934354 -0.368620
O18   O     O_R   0.190089 0.480822 0.857332 -0.392556
N6    N     N_R   0.726711 0.594797 0.093898 0.256528
O19   O     O_R   0.809928 0.519172 0.142618 -0.392520
O20   O     O_R   0.760986 0.711438 0.065698 -0.368620

loop_
_geom_bond_atom_site_label_1
_geom_bond_atom_site_label_2
_geom_bond_distance
_ccdc_geom_bond_type
C29   H18   1.109571 S    
O13   C27   1.409101 S    
C6    C9    1.520049 S    
C13   C15   1.548599 S    
O7    Zn2   1.987613 S    
C21   C23   1.542225 S    
C2    C17   1.420809 S    
O5    C3    1.292076 A    
O1    C1    1.292583 A    
C17   C19   1.523776 S    
C12   H4    1.110781 S    
N6    O20   1.300304 A    
C29   H19   1.109106 S    
C1    C18   1.420822 S    
C24   O16   1.412037 S    
C27   H11   1.111754 S    
C22   C26   1.527667 S    
C24   N2    1.478444 S    
C26   N6    1.456033 S    
O4    Zn1   1.998036 S    
C28   H15   1.111550 S    
C5    C10   1.520050 S    
C14   C17   1.537736 S    
N3    O10   1.297930 A    
C15   C20   1.535434 S    
O16   C30   1.411220 S    
C22   H10   1.110139 S    
C5    C11   1.531028 S    
C29   H17   1.113945 S    
C14   H8    1.110682 S    
C6    C12   1.531031 S    
O2    C2    1.292579 A    
N4    O12   1.297936 A    
N1    C25   1.490350 S    
C22   N1    1.495990 S    
N2    C26   1.490329 S    
C7    C12   1.554552 S    
C8    C11   1.554545 S    
Zn2   N2    2.042199 S    
C30   H21   1.113943 S    
N6    O19   1.299228 A    
C23   O15   1.412031 S    
C4    C9    1.417559 S    
C13   H7    1.110679 S    
C16   C19   1.535410 S    
O14   C28   1.409057 S    
C28   H16   1.107896 S    
N5    O17   1.300291 A    
N5    O18   1.299220 A    
C14   C20   1.536026 S    
O6    C4    1.292078 A    
O7    C3    1.287216 A    
O3    Zn2   1.998036 S    
O8    C4    1.287213 A    
C21   N2    1.495984 S    
C20   O14   1.410620 S    
O4    C2    1.288383 A    
N3    O9    1.300304 A    
C9    C11   1.540573 S    
C10   C12   1.540574 S    
O1    Zn1   1.992181 S    
N4    O11   1.300275 A    
Zn1   N1    2.042199 S    
C21   C25   1.527686 S    
C5    C7    1.533064 S    
O6    Zn2   2.000472 S    
C8    C10   1.534956 S    
C6    N4    1.454487 S    
C22   C24   1.542225 S    
O3    C1    1.288386 A    
O8    Zn1   1.987612 S    
C30   H22   1.109119 S    
C21   H9    1.110137 S    
C13   C18   1.537774 S    
C15   C17   1.538162 S    
C3    C10   1.417560 S    
C27   H13   1.108030 S    
C16   C18   1.538157 S    
C14   C16   1.548579 S    
C25   N5    1.456039 S    
C30   H20   1.109576 S    
C15   H5    1.104770 S    
C16   H6    1.104771 S    
C13   C19   1.536064 S    
C18   C20   1.523771 S    
C7    H1    1.110503 S    
C23   C26   1.515549 S    
C27   H12   1.113334 S    
C8    H2    1.110502 S    
C24   C25   1.515560 S    
C5    N3    1.454486 S    
C28   H14   1.113213 S    
O2    Zn2   1.992181 S    
C7    C9    1.534953 S    
C19   O13   1.410633 S    
O5    Zn1   2.000473 S    
C11   H3    1.110781 S    
C6    C8    1.533067 S    
O15   C29   1.411226 S    
C23   N1    1.478442 S    
