data_mof_unit_25870.cif
_audit_creation_date              2012-12-10T20:21:44-0500
_audit_creation_method            fapswitch 2.2
_symmetry_space_group_name_H-M    P1
_symmetry_Int_Tables_number       1
_space_group_crystal_system       triclinic
_cell_length_a                    19.014852
_cell_length_b                    18.674453
_cell_length_c                    8.896339
_cell_angle_alpha                 89.992984
_cell_angle_beta                  92.872103
_cell_angle_gamma                 90.525273
_cell_volume                      3154.91755564

loop_
_atom_site_label
_atom_site_type_symbol
_atom_type_description
_atom_site_fract_x
_atom_site_fract_y
_atom_site_fract_z
_atom_type_partial_charge
C1    C     C_R   0.365687 0.499936 0.502950 0.844545
C2    C     C_R   0.548635 0.197192 0.591485 -0.279514
C3    C     C_R   0.499344 0.842568 0.500181 0.038093
C4    C     C_R   0.501261 0.157520 0.499375 0.035992
C5    C     C_R   0.436655 0.962251 0.484719 -0.186237
C6    C     C_R   0.564022 0.037961 0.515015 -0.185809
C7    C     C_R   0.563499 0.962636 0.514649 -0.185639
C8    C     C_R   0.437199 0.037569 0.484770 -0.185836
C9    C     C_R   0.500884 0.076776 0.499923 0.145399
C10   C     C_R   0.499798 0.923378 0.499666 0.146084
C11   C     C_R   0.499691 0.500000 0.218789 0.927635
C12   C     C_R   0.634309 0.500172 0.503186 0.844101
C13   C     C_R   0.500320 0.500002 0.781211 0.922028
C14   C     C_1   0.499879 0.500004 0.065427 -0.213642
C15   C     C_1   0.500116 0.500001 0.934558 -0.212430
C16   C     C_R   0.736934 0.534868 0.663239 -0.209538
C17   C     C_R   0.269454 0.546810 0.645693 -0.202317
C18   C     C_R   0.243463 0.457667 0.451312 -0.230370
C19   C     C_R   0.753164 0.463598 0.439233 -0.226191
C20   C     C_R   0.809029 0.536539 0.694398 -0.186007
C21   C     C_R   0.198742 0.549776 0.675667 -0.193054
C22   C     C_R   0.172620 0.460395 0.481589 -0.181834
C23   C     C_R   0.548638 0.728449 0.588787 0.292563
C24   C     C_R   0.825434 0.465011 0.470537 -0.194106
C25   C     C_R   0.853238 0.502460 0.596834 0.177642
C26   C     C_R   0.150341 0.507302 0.592039 0.171244
C27   C     C_R   0.709353 0.500398 0.533437 0.006212
C28   C     C_R   0.291755 0.501074 0.532860 0.005910
C29   C     C_R   0.962464 0.565209 0.532371 0.122673
C30   C     C_R   0.042456 0.465752 0.711885 0.121862
C31   C     C_R   0.036553 0.565728 0.528721 0.118853
C32   C     C_R   0.968176 0.464013 0.712357 0.118913
C33   C     C_R   0.075290 0.514076 0.614095 -0.071685
C34   C     C_R   0.452722 0.271485 0.407977 0.290946
C35   C     C_R   0.929295 0.511616 0.617288 -0.069723
C36   C     C_3   0.918210 0.622067 0.448340 -0.392176
C37   C     C_3   0.906657 0.686607 0.549230 -0.880628
C38   C     C_3   0.087214 0.416631 0.814749 -0.386005
C39   C     C_3   0.104724 0.452260 0.966795 -0.895007
C40   C     C_3   0.074484 0.619724 0.430980 -0.383569
C41   C     C_3   0.078245 0.593296 0.268878 -0.894349
C42   C     C_3   0.929777 0.410461 0.809830 -0.394750
C43   C     C_3   0.915747 0.339562 0.727506 -0.882931
C44   C     C_3   0.604998 0.694395 0.689838 -0.384687
C45   C     C_R   0.450812 0.727150 0.411568 0.285915
C46   C     C_3   0.678176 0.707310 0.630132 -0.884522
C47   C     C_3   0.398321 0.305546 0.301817 -0.374158
C48   C     C_3   0.323543 0.288459 0.347560 -0.916229
C49   C     C_3   0.394792 0.691326 0.310439 -0.374379
C50   C     C_3   0.321861 0.698843 0.373442 -0.879172
C51   C     C_3   0.604349 0.308873 0.692076 -0.376943
C52   C     C_3   0.677616 0.300743 0.631000 -0.871042
C53   C     C_R   0.548605 0.272966 0.590249 0.286431
C54   C     C_R   0.547697 0.804142 0.590410 -0.281743
C55   C     C_R   0.454137 0.195789 0.405977 -0.276189
C56   C     C_R   0.450837 0.802933 0.410609 -0.280385
H1    H     H_    0.702553 0.560031 0.740488 0.134670
H2    H     H_    0.957779 0.711000 0.588427 0.250426
H3    H     H_    0.875396 0.727462 0.485331 0.250038
H4    H     H_    0.942249 0.640331 0.344207 0.208643
H5    H     H_    0.866163 0.600900 0.407023 0.215309
H6    H     H_    0.136216 0.501836 0.952012 0.264471
H7    H     H_    0.055946 0.466205 0.023256 0.253576
H8    H     H_    0.135924 0.415097 0.040597 0.247371
H9    H     H_    0.060992 0.364360 0.832437 0.208049
H10   H     H_    0.137142 0.401854 0.763980 0.213075
H11   H     H_    0.112974 0.546128 0.264078 0.270995
H12   H     H_    0.306813 0.580250 0.710145 0.145021
H13   H     H_    0.025371 0.578105 0.220102 0.249638
H14   H     H_    0.100370 0.636332 0.198704 0.248792
H15   H     H_    0.048948 0.672792 0.432111 0.204641
H16   H     H_    0.128726 0.631327 0.476214 0.211849
H17   H     H_    0.878799 0.347286 0.628556 0.267782
H18   H     H_    0.965345 0.316654 0.688763 0.250533
H19   H     H_    0.891616 0.300696 0.804573 0.247938
H20   H     H_    0.959340 0.400502 0.918119 0.206828
H21   H     H_    0.878952 0.432064 0.844461 0.204659
H22   H     H_    0.682629 0.680186 0.520004 0.283589
H23   H     H_    0.260201 0.423994 0.361507 0.143659
H24   H     H_    0.688965 0.765379 0.616052 0.248051
H25   H     H_    0.719013 0.686114 0.711304 0.245428
H26   H     H_    0.603549 0.718183 0.804210 0.177793
H27   H     H_    0.596670 0.636971 0.705614 0.253124
H28   H     H_    0.313452 0.229855 0.349374 0.253404
H29   H     H_    0.315069 0.310730 0.460918 0.279693
H30   H     H_    0.285034 0.312183 0.264397 0.242497
H31   H     H_    0.404089 0.363620 0.293940 0.258647
H32   H     H_    0.404826 0.284711 0.186315 0.182194
H33   H     H_    0.322057 0.679072 0.491127 0.276826
H34   H     H_    0.731615 0.435491 0.340585 0.135799
H35   H     H_    0.305348 0.755730 0.371344 0.244168
H36   H     H_    0.282760 0.667068 0.303887 0.250574
H37   H     H_    0.394314 0.716447 0.197059 0.174025
H38   H     H_    0.404837 0.634712 0.290982 0.258259
H39   H     H_    0.693664 0.243717 0.633192 0.243776
H40   H     H_    0.678263 0.320731 0.513526 0.277313
H41   H     H_    0.716613 0.332098 0.701735 0.255711
H42   H     H_    0.594750 0.365653 0.710019 0.258994
H43   H     H_    0.604081 0.284231 0.805842 0.175112
H44   H     H_    0.584894 0.833078 0.664581 0.147365
H45   H     H_    0.830505 0.565026 0.792609 0.124441
H46   H     H_    0.418485 0.166601 0.328892 0.148384
H47   H     H_    0.413059 0.830880 0.337268 0.146272
H48   H     H_    0.585757 0.169249 0.666393 0.146794
H49   H     H_    0.386411 0.934474 0.475578 0.129087
H50   H     H_    0.614222 0.065827 0.524408 0.129782
H51   H     H_    0.613397 0.935140 0.523644 0.129245
H52   H     H_    0.387349 0.065163 0.475415 0.130150
H53   H     H_    0.181420 0.586257 0.760644 0.130324
H54   H     H_    0.134843 0.427758 0.416405 0.134206
H55   H     H_    0.859925 0.438854 0.394731 0.133384
H56   H     H_    0.877415 0.670479 0.648776 0.262048
N1    N     N_R   0.500000 0.689440 0.500000 -0.128294
N2    N     N_R   0.500000 0.310560 0.500000 -0.129561
O1    O     O_R   0.398180 0.560840 0.499960 -0.623853
O2    O     O_R   0.601820 0.439160 0.500040 -0.620009
O3    O     O_R   0.601820 0.560840 0.500040 -0.620980
O4    O     O_R   0.398180 0.439160 0.499960 -0.619574
O5    O     O_R   0.500000 0.560800 0.285330 -0.633245
O6    O     O_R   0.500000 0.439200 0.714670 -0.633103
O7    O     O_R   0.500000 0.560800 0.714670 -0.637780
O8    O     O_R   0.500000 0.439200 0.285330 -0.635534
Zn1   Zn    Zn3+2 0.500000 0.581210 0.500000 0.916605
Zn2   Zn    Zn3+2 0.500000 0.418790 0.500000 0.920656

loop_
_geom_bond_atom_site_label_1
_geom_bond_atom_site_label_2
_ccdc_geom_bond_type
C43   H17   S    
C7    C10   A    
C30   C32   A    
C21   C26   A    
C40   H15   S    
C44   H27   S    
C11   O5    A    
C6    C9    A    
C41   H11   S    
C5    H49   S    
C39   H8    S    
C55   H46   S    
C36   C37   S    
C44   H26   S    
C38   C39   S    
C11   C14   S    
C20   C25   A    
C52   H41   S    
C31   C40   S    
C30   C38   S    
C52   H39   S    
C37   H56   S    
C50   H33   S    
O2    Zn2   S    
C38   H10   S    
C45   C56   A    
C18   H23   S    
C22   H54   S    
N1    Zn1   S    
C1    C28   S    
C31   C33   A    
C45   C49   S    
C49   H38   S    
C19   C27   A    
C37   H2    S    
C16   H1    S    
N2    Zn2   S    
C51   H42   S    
C34   C55   A    
C43   H19   S    
C54   H44   S    
C24   H55   S    
C8    H52   S    
C44   C46   S    
C51   H43   S    
O1    Zn1   S    
C12   C27   S    
C51   C52   S    
C32   C35   A    
C18   C28   A    
C24   C25   A    
C46   H22   S    
C8    C9    A    
C20   H45   S    
C17   C21   A    
C23   C44   S    
C48   H28   S    
C51   C53   S    
C43   H18   S    
C47   H31   S    
C2    C4    A    
C23   N1    A    
C46   H25   S    
C13   O7    A    
C3    C56   A    
C26   C33   S    
C47   C48   S    
C29   C36   S    
C38   H9    S    
C2    H48   S    
C16   C20   A    
C14   C15   T    
C6    H50   S    
O4    Zn2   S    
C37   H3    S    
C25   C35   S    
C50   H36   S    
C40   C41   S    
C13   C15   S    
C4    C55   A    
C48   H30   S    
C11   O8    A    
C42   C43   S    
O8    Zn2   S    
C36   H5    S    
C13   O6    A    
C53   N2    A    
C23   C54   A    
C41   H13   S    
C39   H6    S    
C17   H12   S    
C40   H16   S    
C30   C33   A    
C18   C22   A    
C17   C28   A    
C56   H47   S    
C36   H4    S    
C2    C53   A    
C5    C8    A    
C21   H53   S    
C6    C7    A    
O5    Zn1   S    
C34   N2    A    
C39   H7    S    
C29   C35   A    
C42   H20   S    
C47   H32   S    
C19   C24   A    
O3    Zn1   S    
C5    C10   A    
C29   C31   A    
C19   H34   S    
C46   H24   S    
C16   C27   A    
C3    C54   A    
C52   H40   S    
C7    H51   S    
C1    O4    A    
O7    Zn1   S    
C12   O3    A    
C45   N1    A    
C50   H35   S    
C42   H21   S    
C49   C50   S    
C22   C26   A    
C3    C10   S    
C32   C42   S    
C48   H29   S    
C34   C47   S    
C1    O1    A    
C49   H37   S    
C4    C9    S    
O6    Zn2   S    
C41   H14   S    
C12   O2    A    
