data_mof_unit_51442.cif
_audit_creation_date              2012-12-11T15:08:38-0500
_audit_creation_method            fapswitch 2.2
_symmetry_space_group_name_H-M    P1
_symmetry_Int_Tables_number       1
_space_group_crystal_system       triclinic
_cell_length_a                    27.228017
_cell_length_b                    7.212755
_cell_length_c                    12.212123
_cell_angle_alpha                 90.000184
_cell_angle_beta                  104.225664
_cell_angle_gamma                 89.999951
_cell_volume                      2324.783022

loop_
_atom_site_label
_atom_site_type_symbol
_atom_type_description
_atom_site_fract_x
_atom_site_fract_y
_atom_site_fract_z
_atom_type_partial_charge
O1    O     O_R   0.437360 0.505910 0.042120 -0.541998
O2    O     O_R   0.562640 0.005910 0.957880 -0.541995
O3    O     O_R   0.542480 0.176660 0.157100 -0.540827
O4    O     O_R   0.457520 0.676660 0.842900 -0.540827
C1    C     C_R   0.555638 0.344373 0.197332 0.681395
C2    C     C_R   0.444361 0.844372 0.802668 0.681390
O5    O     O_R   0.436520 0.176250 0.054800 -0.540324
O6    O     O_R   0.563480 0.676250 0.945200 -0.540325
O7    O     O_R   0.455920 0.005040 0.854840 -0.541501
O8    O     O_R   0.544080 0.505040 0.145160 -0.541504
C3    C     C_R   0.417722 0.344180 0.060997 0.706678
C4    C     C_R   0.582279 0.844180 0.939004 0.706672
O9    O     O_3   0.506490 0.338900 0.934520 -0.380417
O10   O     O_3   0.493510 0.838900 0.065480 -0.380418
V1    V     V_3+5 0.498800 0.064400 0.012150 1.431596
V2    V     V_3+5 0.501200 0.564400 0.987850 1.431593
C5    C     C_R   0.671779 0.816284 0.746325 0.164373
C6    C     C_R   0.328221 0.316271 0.253672 0.164370
H1    H     H_    0.761521 0.866614 0.702314 0.151427
H2    H     H_    0.238480 0.366614 0.297684 0.151429
C7    C     C_R   0.628557 0.849622 0.897722 -0.066373
C8    C     C_R   0.371443 0.349623 0.102276 -0.066373
C9    C     C_R   0.864808 0.864267 0.183505 -0.168743
C10   C     C_R   0.135192 0.364268 0.816494 -0.168744
C11   C     C_R   0.820734 0.848599 0.219674 -0.135515
C12   C     C_R   0.179265 0.348597 0.780324 -0.135513
C13   C     C_R   0.774207 0.839298 0.141846 -0.149591
C14   C     C_R   0.225792 0.339293 0.858152 -0.149593
C15   C     C_R   0.770106 0.853309 0.024164 0.083382
C16   C     C_R   0.229894 0.353303 0.975834 0.083382
C17   C     C_R   0.815873 0.871178 0.985605 0.037481
C18   C     C_R   0.184127 0.371174 0.014394 0.037481
C19   C     C_R   0.721529 0.848725 0.944338 0.038632
C20   C     C_R   0.278471 0.348717 0.055660 0.038633
C21   C     C_R   0.718989 0.837763 0.827343 0.062620
C22   C     C_R   0.281011 0.337753 0.172655 0.062624
C23   C     C_R   0.763396 0.859108 0.791726 -0.231905
C24   C     C_R   0.236604 0.359102 0.208272 -0.231910
C25   C     C_R   0.810412 0.890345 0.866546 0.022167
C26   C     C_R   0.189588 0.390341 0.133453 0.022169
C27   C     C_R   0.675257 0.856591 0.977110 -0.277173
C28   C     C_R   0.324743 0.356585 0.022888 -0.277172
C29   C     C_R   0.626258 0.830059 0.781768 0.152476
C30   C     C_R   0.373741 0.330063 0.218230 0.152476
C31   C     C_R   0.863901 0.868486 0.068872 -0.072819
C32   C     C_R   0.136099 0.368485 0.931127 -0.072819
H3    H     H_    0.673895 0.872721 0.064025 0.114371
H4    H     H_    0.326105 0.372712 0.935973 0.114372
H5    H     H_    0.900586 0.872068 0.245596 0.115492
H6    H     H_    0.099414 0.372070 0.754403 0.115493
H7    H     H_    0.742114 0.817909 0.177154 0.112464
H8    H     H_    0.257885 0.317902 0.822844 0.112465
H9    H     H_    0.822702 0.840827 0.309237 0.133080
H10   H     H_    0.177297 0.340826 0.690761 0.133081
C33   C     C_R   0.098112 0.857619 0.298144 -0.059123
C34   C     C_R   0.901888 0.357618 0.701857 -0.059123
C35   C     C_R   0.411927 0.849710 0.687811 -0.023507
C36   C     C_R   0.588073 0.349713 0.312189 -0.023507
C37   C     C_R   0.114026 0.809940 0.498888 -0.210105
C38   C     C_R   0.885973 0.309934 0.501113 -0.210106
C39   C     C_R   0.079720 0.819089 0.393538 0.020726
C40   C     C_R   0.920279 0.319086 0.606463 0.020727
C41   C     C_R   0.151060 0.870910 0.305050 0.047262
C42   C     C_R   0.848939 0.370910 0.694951 0.047260
C43   C     C_R   0.186420 0.844324 0.413304 0.060186
C44   C     C_R   0.813579 0.344323 0.586698 0.060186
C45   C     C_R   0.165983 0.830627 0.509727 0.081088
C46   C     C_R   0.834016 0.330620 0.490275 0.081088
C47   C     C_R   0.240856 0.832661 0.432441 0.058029
C48   C     C_R   0.759143 0.332664 0.567561 0.058030
C49   C     C_R   0.272376 0.850964 0.544797 0.053405
C50   C     C_R   0.727623 0.350962 0.455204 0.053403
C51   C     C_R   0.249123 0.856049 0.635800 -0.193390
C52   C     C_R   0.750876 0.356036 0.364201 -0.193389
C53   C     C_R   0.197348 0.837785 0.618474 -0.184459
C54   C     C_R   0.802651 0.337771 0.381527 -0.184461
C55   C     C_R   0.265021 0.785743 0.346348 -0.221498
C56   C     C_R   0.734977 0.285756 0.653654 -0.221502
C57   C     C_R   0.317202 0.781369 0.364437 -0.209418
C58   C     C_R   0.682796 0.281389 0.635565 -0.209421
C59   C     C_R   0.348080 0.812691 0.471385 0.134639
C60   C     C_R   0.651918 0.312706 0.528616 0.134646
C61   C     C_R   0.326353 0.849013 0.563503 0.078563
C62   C     C_R   0.673646 0.349017 0.436498 0.078559
C63   C     C_R   0.400649 0.796854 0.487975 -0.171059
C64   C     C_R   0.599349 0.296874 0.512026 -0.171048
C65   C     C_R   0.432154 0.809877 0.595930 -0.182723
C66   C     C_R   0.567844 0.309891 0.404070 -0.182728
C67   C     C_R   0.359722 0.874561 0.671468 -0.215780
C68   C     C_R   0.640278 0.374560 0.328532 -0.215780
H11   H     H_    0.181548 0.831860 0.691773 0.135187
H12   H     H_    0.818451 0.331840 0.308229 0.135187
H13   H     H_    0.346543 0.908604 0.745288 0.097973
H14   H     H_    0.653457 0.408597 0.254711 0.097972
H15   H     H_    0.472153 0.785581 0.607446 0.117462
H16   H     H_    0.527845 0.285599 0.392553 0.117462
H17   H     H_    0.333496 0.744684 0.294747 0.145462
H18   H     H_    0.666502 0.244712 0.705256 0.145461
H19   H     H_    0.100454 0.790845 0.574303 0.126829
H20   H     H_    0.899545 0.290836 0.425698 0.126829
H21   H     H_    0.270031 0.861568 0.722837 0.125973
H22   H     H_    0.729968 0.361549 0.277164 0.125973
H23   H     H_    0.245120 0.735936 0.265614 0.163520
H24   H     H_    0.754878 0.235950 0.734389 0.163522
H25   H     H_    0.417273 0.767068 0.417852 0.120299
H26   H     H_    0.582725 0.267095 0.582149 0.120293
O11   O     O_R   0.955980 0.206520 0.854760 -0.553370
O12   O     O_R   0.044020 0.706520 0.145240 -0.553370
O13   O     O_R   0.063490 0.536770 0.945200 -0.542722
O14   O     O_R   0.936510 0.036770 0.054800 -0.542722
C69   C     C_R   0.085340 0.370733 0.954748 0.681474
C70   C     C_R   0.914660 0.870733 0.045252 0.681473
O15   O     O_R   0.957530 0.536190 0.842880 -0.552982
O16   O     O_R   0.042470 0.036190 0.157120 -0.552982
O17   O     O_R   0.937350 0.707210 0.042130 -0.542248
O18   O     O_R   0.062650 0.207210 0.957870 -0.542248
C71   C     C_R   0.939106 0.368773 0.810903 0.700345
C72   C     C_R   0.060893 0.868773 0.189097 0.700346
O19   O     O_3   0.993540 0.373870 0.065440 -0.382490
O20   O     O_3   0.006460 0.873870 0.934560 -0.382491
V3    V     V_3+5 0.001200 0.648440 0.987860 1.360258
V4    V     V_3+5 0.998800 0.148440 0.012140 1.360258
C73   C     C_3   0.575623 0.830403 0.695851 -0.801553
H27   H     H_    0.576434 0.928612 0.626357 0.213384
H28   H     H_    0.566716 0.688668 0.661143 0.210332
H29   H     H_    0.544335 0.877728 0.732072 0.183268
C74   C     C_3   0.424376 0.330429 0.304148 -0.801581
H30   H     H_    0.423557 0.428586 0.373662 0.213397
H31   H     H_    0.433296 0.188684 0.338828 0.210330
H32   H     H_    0.455660 0.377838 0.267936 0.183277
C75   C     C_3   0.022700 0.799710 0.378935 -0.342432
C76   C     C_3   0.004862 0.732207 0.480877 -0.343650
C77   C     C_3   0.947631 0.702680 0.446407 -0.801536
H33   H     H_    0.927375 0.837241 0.436133 0.221298
H34   H     H_    0.936037 0.619974 0.367539 0.228598
H35   H     H_    0.935847 0.624676 0.511880 0.240915
H36   H     H_    0.024253 0.600761 0.510476 0.210272
H37   H     H_    0.014371 0.831677 0.552055 0.208032
H38   H     H_    0.004260 0.934272 0.349512 0.170076
H39   H     H_    0.008415 0.696720 0.311163 0.186540
C78   C     C_3   0.977299 0.299709 0.621066 -0.342431
C79   C     C_3   0.995137 0.232207 0.519123 -0.343652
C80   C     C_3   0.052368 0.202681 0.553592 -0.801536
H40   H     H_    0.072624 0.337242 0.563867 0.221299
H41   H     H_    0.063962 0.119974 0.632459 0.228597
H42   H     H_    0.064152 0.124679 0.488118 0.240916
H43   H     H_    0.975746 0.100761 0.489523 0.210272
H44   H     H_    0.985628 0.331677 0.447945 0.208033
H45   H     H_    0.995739 0.434272 0.650488 0.170076
H46   H     H_    0.991584 0.196720 0.688837 0.186541
C81   C     C_3   0.167818 0.919223 0.197322 -0.840574
H47   H     H_    0.200430 0.015300 0.216216 0.236936
H48   H     H_    0.177070 0.797127 0.152291 0.204656
H49   H     H_    0.138050 0.984357 0.130959 0.202466
C82   C     C_3   0.832181 0.419222 0.802681 -0.840576
H50   H     H_    0.799571 0.515303 0.783788 0.236937
H51   H     H_    0.822929 0.297125 0.847709 0.204657
H52   H     H_    0.861950 0.484353 0.869044 0.202465
C83   C     C_3   0.670372 0.779285 0.622797 -0.782847
H53   H     H_    0.698158 0.669938 0.616660 0.216230
H54   H     H_    0.633411 0.727711 0.572543 0.228438
H55   H     H_    0.679874 0.907175 0.582122 0.215747
C84   C     C_3   0.329628 0.279249 0.377197 -0.782853
H56   H     H_    0.301836 0.169925 0.383329 0.216228
H57   H     H_    0.366587 0.227628 0.427436 0.228444
H58   H     H_    0.320137 0.407141 0.417887 0.215751
C85   C     C_3   0.849863 0.964109 0.809611 -0.429564
C86   C     C_3   0.872555 0.811571 0.754429 -0.323203
C87   C     C_3   0.908407 0.875033 0.684908 -0.706130
H59   H     H_    0.887703 0.951737 0.608837 0.225532
H60   H     H_    0.939913 0.956578 0.734947 0.256632
H61   H     H_    0.925960 0.750566 0.659462 0.214925
H62   H     H_    0.893322 0.729514 0.824695 0.240588
H63   H     H_    0.841977 0.732451 0.696927 0.217272
H64   H     H_    0.830499 0.053095 0.739333 0.207943
H65   H     H_    0.878628 0.048913 0.866457 0.207165
C88   C     C_3   0.150138 0.464109 0.190388 -0.429562
C89   C     C_3   0.127445 0.311574 0.245572 -0.323206
C90   C     C_3   0.091595 0.375041 0.315096 -0.706139
H66   H     H_    0.112301 0.451743 0.391166 0.225534
H67   H     H_    0.060090 0.456587 0.265058 0.256632
H68   H     H_    0.074042 0.250575 0.340542 0.214926
H69   H     H_    0.106677 0.229518 0.175308 0.240590
H70   H     H_    0.158023 0.232453 0.303074 0.217274
H71   H     H_    0.169503 0.553096 0.260665 0.207943
H72   H     H_    0.121373 0.548913 0.133542 0.207163

loop_
_geom_bond_atom_site_label_1
_geom_bond_atom_site_label_2
_ccdc_geom_bond_type
C80   H42   S    
C44   C46   A    
C66   H16   S    
C30   C74   S    
C9    C31   A    
C82   H51   S    
C87   H60   S    
C87   H59   S    
C47   C55   A    
C84   H56   S    
O1    C3    A    
O12   V3    S    
O2    C4    A    
C2    O7    A    
C41   C43   A    
C89   C90   S    
C31   C70   S    
C78   H45   S    
C73   H27   S    
C44   C48   A    
C45   C53   A    
C86   H63   S    
C42   C82   S    
C35   C67   A    
C1    C36   S    
O17   V3    S    
C85   H64   S    
C48   C56   A    
C84   H57   S    
C10   C12   A    
O13   C69   A    
C56   C58   A    
C73   H28   S    
C13   C15   A    
C76   H37   S    
C80   H40   S    
C15   C19   A    
C88   H71   S    
C38   C40   A    
C34   C71   S    
C81   H49   S    
C47   C49   A    
C75   H39   S    
H1    C23   S    
C37   C45   A    
C7    C29   A    
C8    C30   A    
C13   H7    S    
C76   C77   S    
C43   C45   A    
C20   C28   A    
C77   H35   S    
C81   H47   S    
C83   H54   S    
C69   O18   A    
C20   C22   A    
C89   H69   S    
C53   H11   S    
C52   H22   S    
C90   H68   S    
C58   H18   S    
C59   C63   A    
C51   H21   S    
O6    V2    S    
C24   C26   A    
C32   C69   S    
C82   H52   S    
C67   H13   S    
C51   C53   A    
C2    C35   S    
C81   H48   S    
C64   H26   S    
C62   C68   A    
C63   H25   S    
C12   H10   S    
C59   C61   A    
O20   V4    S    
C78   H46   S    
C68   H14   S    
C49   C61   A    
C63   C65   A    
C10   H6    S    
C86   H62   S    
C61   C67   A    
C37   C39   A    
C16   C20   A    
C56   H24   S    
C79   H44   S    
C84   H58   S    
C75   H38   S    
C58   C60   A    
C85   C86   S    
C49   C51   A    
C73   H29   S    
O5    V1    S    
C38   H20   S    
C76   H36   S    
C60   C64   A    
C4    C7    S    
C88   H72   S    
C35   C65   A    
C33   C41   A    
C42   C44   A    
O4    V2    S    
O5    C3    A    
C74   H31   S    
C83   H55   S    
C6    C30   A    
H2    C24   S    
C6    C84   S    
C83   H53   S    
O16   C72   A    
O6    C4    A    
C34   C42   A    
C27   H3    S    
C55   C57   A    
O1    V2    S    
C28   H4    S    
O2    V1    S    
C36   C68   A    
O12   C72   A    
C41   C81   S    
C50   C62   A    
O19   V3    S    
O18   V4    S    
C54   H12   S    
C7    C27   A    
C50   C52   A    
C86   C87   S    
C60   C62   A    
C77   H33   S    
C87   H61   S    
O15   C71   A    
C55   H23   S    
O4    C2    A    
C46   C54   A    
C52   C54   A    
C40   C78   S    
C75   C76   S    
C29   C73   S    
C82   H50   S    
O3    V1    S    
O20   V3    S    
C57   C59   A    
O19   V4    S    
C80   H41   S    
C65   H15   S    
C21   C23   A    
O10   V1    S    
C18   C32   A    
C79   H43   S    
C57   H17   S    
C11   H9    S    
O3    C1    A    
C36   C66   A    
C48   C50   A    
C90   H66   S    
C11   C13   A    
C3    C8    S    
C12   C14   A    
C19   C27   A    
C14   C16   A    
O7    V1    S    
C74   H32   S    
C10   C32   A    
C1    O8    A    
C23   C25   A    
C34   C40   A    
C78   C79   S    
O14   V4    S    
C16   C18   A    
C14   H8    S    
O13   V3    S    
C8    C28   A    
C43   C47   A    
C37   H19   S    
C33   C39   A    
C22   C24   A    
C19   C21   A    
C17   C25   A    
C64   C66   A    
C18   C26   A    
C25   C85   S    
C5    C83   S    
O14   C70   A    
C9    H5    S    
C39   C75   S    
C26   C88   S    
O16   V4    S    
C9    C11   A    
O15   V3    S    
C38   C46   A    
C15   C17   A    
C88   C89   S    
C17   C31   A    
O9    V2    S    
C5    C29   A    
C77   H34   S    
C79   C80   S    
O8    V2    S    
C5    C21   A    
O11   V4    S    
C6    C22   A    
O11   C71   A    
C70   O17   A    
C89   H70   S    
C74   H30   S    
C85   H65   S    
C90   H67   S    
C33   C72   S    
