data_mof_unit_5424.cif
_audit_creation_date              2012-12-10T17:10:24-0500
_audit_creation_method            fapswitch 2.2
_symmetry_space_group_name_H-M    P1
_symmetry_Int_Tables_number       1
_space_group_crystal_system       triclinic
_cell_length_a                    10.777685
_cell_length_b                    12.98299
_cell_length_c                    11.729991
_cell_angle_alpha                 100.145866
_cell_angle_beta                  94.167361
_cell_angle_gamma                 90.7226
_cell_volume                      1610.85933752

loop_
_atom_site_label
_atom_site_type_symbol
_atom_type_description
_atom_site_fract_x
_atom_site_fract_y
_atom_site_fract_z
_atom_type_partial_charge
C1    C     C_R   0.498580 0.299121 0.478441 0.785180
C2    C     C_R   0.501420 0.700879 0.521559 0.785180
C3    C     C_R   0.499650 0.814368 0.533898 -0.055120
C4    C     C_R   0.500350 0.185632 0.466101 -0.055120
C5    C     C_R   0.525419 0.015326 0.348793 -0.217506
C6    C     C_R   0.474581 0.984673 0.651207 -0.217506
C7    C     C_R   0.520462 0.123436 0.358836 -0.145717
C8    C     C_R   0.479538 0.876564 0.641164 -0.145717
C9    C     C_R   0.484624 0.139175 0.563291 -0.272194
C10   C     C_R   0.515375 0.860825 0.436709 -0.272194
C11   C     C_R   0.489674 0.031199 0.554045 0.164802
C12   C     C_R   0.510326 0.968801 0.445954 0.164802
C13   C     C_R   0.374215 0.410039 0.019943 -0.346251
C14   C     C_R   0.625785 0.589961 0.980056 -0.346251
C15   C     C_R   0.386523 0.416707 0.141511 0.200816
C16   C     C_R   0.613477 0.583293 0.858489 0.200816
C17   C     C_R   0.555712 0.537964 0.157298 0.023145
C18   C     C_R   0.444288 0.462035 0.842702 0.023145
C19   C     C_R   0.545930 0.532337 0.034718 0.053968
C20   C     C_R   0.454069 0.467663 0.965282 0.053968
C21   C     C_R   0.262941 0.500184 0.500011 0.792552
C22   C     C_R   0.737059 0.499816 0.499989 0.792552
C23   C     C_R   0.126358 0.309154 0.495906 -0.151791
C24   C     C_R   0.873642 0.690846 0.504093 -0.151791
C25   C     C_R   0.060184 0.215812 0.493691 -0.130405
C26   C     C_R   0.939816 0.784188 0.506309 -0.130405
C27   C     C_R   0.931193 0.215686 0.493767 -0.134608
C28   C     C_R   0.068807 0.784314 0.506233 -0.134608
C29   C     C_R   0.867908 0.308904 0.496034 -0.132163
C30   C     C_R   0.132092 0.691095 0.503965 -0.132163
C31   C     C_R   0.933257 0.404708 0.498333 0.076332
C32   C     C_R   0.066743 0.595292 0.501667 0.076332
C33   C     C_R   0.063921 0.404833 0.498307 0.059280
C34   C     C_R   0.936079 0.595167 0.501693 0.059280
C35   C     C_R   0.870844 0.499880 0.500023 -0.146109
C36   C     C_R   0.129156 0.500120 0.499977 -0.146109
Cu1   Cu    Cu3+1 0.509250 0.507730 0.615930 0.966719
Cu2   Cu    Cu3+1 0.490750 0.492270 0.384070 0.966719
H1    H     H_    0.120131 0.856895 0.508069 0.138957
H2    H     H_    0.879869 0.143105 0.491931 0.138957
H3    H     H_    0.302234 0.359578 0.968303 0.148733
H4    H     H_    0.697766 0.640422 0.031697 0.148733
H5    H     H_    0.767635 0.304972 0.495757 0.120664
H6    H     H_    0.232365 0.695028 0.504243 0.120664
H7    H     H_    0.531538 0.813111 0.353721 0.156866
H8    H     H_    0.468462 0.186889 0.646279 0.156867
H9    H     H_    0.466051 0.841663 0.716815 0.188112
H10   H     H_    0.533949 0.158337 0.283185 0.188112
N1    N     N_R   0.523180 0.519350 0.790130 -0.224500
N2    N     N_R   0.476820 0.480650 0.209870 -0.224500
O1    O     O_R   0.506570 0.354460 0.582000 -0.598379
O2    O     O_R   0.493430 0.645540 0.418000 -0.598378
O3    O     O_R   0.490940 0.341410 0.386200 -0.562558
O4    O     O_R   0.509060 0.658590 0.613800 -0.562558
O5    O     O_R   0.327470 0.506520 0.597900 -0.591044
O6    O     O_R   0.672530 0.493480 0.402100 -0.591044
O7    O     O_R   0.311840 0.493460 0.402100 -0.560435
O8    O     O_R   0.688160 0.506540 0.597900 -0.560435
H11   H     H_    0.226511 0.305387 0.495364 0.130526
H12   H     H_    0.773489 0.694613 0.504635 0.130526
H13   H     H_    0.109229 0.143332 0.491793 0.140716
H14   H     H_    0.890771 0.856668 0.508207 0.140716
H15   H     H_    0.541485 0.968280 0.265499 0.146370
H16   H     H_    0.458515 0.031720 0.734500 0.146370
H17   H     H_    0.373863 0.411467 0.789360 0.131205
H18   H     H_    0.626136 0.588533 0.210640 0.131205
C37   C     C_2   0.702889 0.646190 0.809092 0.881135
O9    O     O_2   0.674705 0.732481 0.789250 -0.616402
O10   O     O_R   0.823837 0.610924 0.795574 -0.752952
H19   H     H_    0.878217 0.661962 0.763999 0.332054
C38   C     C_2   0.297111 0.353810 0.190908 0.881135
O11   O     O_2   0.325295 0.267519 0.210749 -0.616402
O12   O     O_R   0.176163 0.389076 0.204426 -0.752952
H20   H     H_    0.121783 0.338038 0.236001 0.332054

loop_
_geom_bond_atom_site_label_1
_geom_bond_atom_site_label_2
_ccdc_geom_bond_type
C27   C29   A    
O12   H20   S    
C19   C20   A    
C13   H3    S    
C21   C36   S    
C18   H17   S    
C23   H11   S    
C22   C35   S    
C17   H18   S    
C32   C36   A    
C24   C26   A    
Cu1   O1    S    
Cu2   O2    S    
C33   C36   A    
C5    H15   S    
C34   C35   A    
C15   N2    A    
C6    H16   S    
C1    O3    A    
C23   C33   A    
C31   C33   A    
C14   C16   A    
Cu1   O8    S    
C14   H4    S    
C9    H8    S    
C29   H5    S    
C30   H6    S    
C4    C7    A    
C10   C12   A    
C5    C7    A    
C37   O9    D    
C16   N1    A    
C5    C12   A    
C3    C8    A    
C2    O4    A    
C6    C11   A    
C38   O12   S    
C22   O6    A    
C28   H1    S    
C24   C34   A    
C37   O10   S    
C32   C34   A    
C21   O7    A    
Cu1   Cu2   S    
Cu2   O7    S    
Cu1   N1    S    
C13   C15   A    
C27   H2    S    
C24   H12   S    
C10   H7    S    
C16   C37   S    
C25   H13   S    
C1    O1    A    
C2    O2    A    
Cu1   O4    S    
C9    C11   A    
C31   C35   A    
C21   O5    A    
C13   C20   A    
C14   C19   A    
C17   N2    A    
C22   O8    A    
C6    C8    A    
C11   C12   A    
Cu2   N2    S    
C25   C27   A    
C15   C38   S    
C26   C28   A    
C1    C4    S    
C7    H10   S    
C28   C30   A    
C2    C3    S    
C26   H14   S    
C8    H9    S    
C38   O11   D    
C29   C31   A    
C3    C10   A    
C30   C32   A    
Cu2   O3    S    
C17   C19   A    
C18   C20   A    
C23   C25   A    
O10   H19   S    
Cu1   O5    S    
Cu2   O6    S    
C4    C9    A    
C18   N1    A    
