data_mof_unit_23602.cif
_audit_creation_date              2012-12-10T17:57:49-0500
_audit_creation_method            fapswitch 2.2
_symmetry_space_group_name_H-M    P1
_symmetry_Int_Tables_number       1
_space_group_crystal_system       triclinic
_cell_length_a                    10.880343
_cell_length_b                    9.677674
_cell_length_c                    15.066432
_cell_angle_alpha                 89.777122
_cell_angle_beta                  89.972225
_cell_angle_gamma                 89.100195
_cell_volume                      1586.23346547

loop_
_atom_site_label
_atom_site_type_symbol
_atom_type_description
_atom_site_fract_x
_atom_site_fract_y
_atom_site_fract_z
_atom_type_partial_charge
C1    C     C_R   0.262547 0.499859 0.502548 0.892321
C2    C     C_R   0.737291 0.498786 0.502355 0.945875
C3    C     C_R   0.282392 0.452221 0.043549 0.211600
C4    C     C_R   0.723098 0.550404 0.955532 0.205113
C5    C     C_R   0.065732 0.389399 0.460499 0.317076
C6    C     C_R   0.933675 0.600702 0.550429 0.319669
C7    C     C_R   0.937126 0.383694 0.468267 0.357231
C8    C     C_R   0.062676 0.593230 0.556291 0.335781
C9    C     C_R   0.871484 0.495332 0.506099 -0.353848
C10   C     C_R   0.128038 0.496656 0.504467 -0.320952
C11   C     C_R   0.530987 0.072796 0.425233 0.388308
C12   C     C_R   0.458071 0.926752 0.571453 0.390076
C13   C     C_R   0.476383 0.072693 0.575419 0.383467
C14   C     C_R   0.542862 0.925155 0.428480 0.367358
C15   C     C_R   0.497858 0.500866 0.329038 0.827264
C16   C     C_R   0.500530 0.499027 0.670525 0.894527
C17   C     C_R   0.613312 0.521698 0.811645 0.412874
C18   C     C_R   0.385672 0.511415 0.182665 0.384955
C19   C     C_R   0.503015 0.493883 0.766819 -0.186374
C20   C     C_R   0.497248 0.503354 0.231870 -0.188753
C21   C     C_R   0.399368 0.448279 0.812843 0.043425
C22   C     C_R   0.610904 0.500890 0.187089 0.079781
C23   C     C_R   0.397049 0.458260 0.905410 0.034803
C24   C     C_R   0.612922 0.509900 0.093865 0.030422
C25   C     C_R   0.505532 0.491021 0.952156 -0.027339
C26   C     C_R   0.503097 0.493223 0.045928 -0.026298
C27   C     C_R   0.615831 0.521169 0.905647 -0.047353
C28   C     C_R   0.389958 0.482857 0.091538 -0.011035
C29   C     C_R   0.287715 0.437238 0.952177 -0.181623
C30   C     C_R   0.721403 0.538134 0.047675 -0.173505
Cu1   Cu    Cu3+1 0.500000 0.640660 0.500000 1.056180
Cu2   Cu    Cu3+1 0.500000 0.359340 0.500000 1.048447
H1    H     H_    0.203272 0.413656 0.918255 0.202678
H2    H     H_    0.805421 0.559083 0.082877 0.211249
N1    N     N_R   0.500000 0.852070 0.500000 -0.275610
N2    N     N_R   0.500000 0.147930 0.500000 -0.271802
O1    O     O_R   0.319640 0.618740 0.499990 -0.568660
O2    O     O_R   0.680360 0.381260 0.500010 -0.546990
O3    O     O_R   0.680360 0.618740 0.500010 -0.548266
O4    O     O_R   0.319640 0.381260 0.499990 -0.526991
O5    O     O_R   0.499970 0.618800 0.370260 -0.520851
O6    O     O_R   0.500030 0.381200 0.629740 -0.539773
O7    O     O_R   0.500030 0.618800 0.629740 -0.503305
O8    O     O_R   0.499970 0.381200 0.370260 -0.533334
O9    O     O_3   0.718546 0.543536 0.762320 -0.531239
C31   C     C_3   0.773240 0.413793 0.742395 -0.284841
H3    H     H_    0.716826 0.355025 0.694968 0.141055
H4    H     H_    0.791090 0.351027 0.803290 0.167693
H5    H     H_    0.862655 0.430769 0.709592 0.190528
O10   O     O_3   0.284495 0.589903 0.210246 -0.545319
C32   C     C_3   0.237216 0.549679 0.292730 -0.260189
H6    H     H_    0.264550 0.626749 0.342421 0.183235
H7    H     H_    0.264399 0.442987 0.312654 0.147523
H8    H     H_    0.135473 0.554858 0.289365 0.198590
I1    I     I_    0.254272 0.346718 0.742706 -0.402724
I2    I     I_    0.778531 0.489183 0.261457 -0.360364
I3    I     I_    0.109089 0.406643 0.101354 -0.364415
I4    I     I_    0.892768 0.625800 0.905237 -0.341276
O11   O     O_3   0.133865 0.283632 0.420040 -0.577752
C33   C     C_3   0.087670 0.248046 0.335503 -0.209271
H9    H     H_    0.166151 0.222470 0.291350 0.155391
H10   H     H_    0.033977 0.332733 0.302825 0.199033
H11   H     H_    0.031745 0.153475 0.340483 0.206627
O12   O     O_3   0.866444 0.697538 0.598695 -0.519508
C34   C     C_3   0.893602 0.832845 0.570208 -0.225945
H12   H     H_    0.808465 0.896534 0.576371 0.146898
H13   H     H_    0.925692 0.839268 0.500062 0.112018
H14   H     H_    0.963570 0.879244 0.613913 0.172169
O13   O     O_3   0.874662 0.271797 0.435247 -0.523492
C35   C     C_3   0.878449 0.165307 0.499333 -0.264317
H15   H     H_    0.815063 0.083783 0.477679 0.150843
H16   H     H_    0.846541 0.201344 0.565744 0.135703
H17   H     H_    0.972280 0.118896 0.504641 0.169222
O14   O     O_3   0.126341 0.675277 0.615045 -0.588078
C36   C     C_3   0.088893 0.648672 0.703530 -0.185866
H18   H     H_    0.170974 0.646404 0.746992 0.181524
H19   H     H_    0.042729 0.548049 0.713237 0.177895
H20   H     H_    0.027757 0.733281 0.727411 0.205846
O15   O     O_3   0.562272 0.139707 0.347635 -0.515320
C37   C     C_3   0.467554 0.121949 0.284643 -0.192493
H21   H     H_    0.376163 0.152786 0.311967 0.141846
H22   H     H_    0.465101 0.014335 0.259607 0.190591
H23   H     H_    0.485766 0.189788 0.226742 0.171694
O16   O     O_3   0.407538 0.858800 0.643290 -0.532263
C38   C     C_3   0.288553 0.912827 0.660794 -0.173295
H24   H     H_    0.249093 0.854068 0.716420 0.184026
H25   H     H_    0.227972 0.905222 0.601611 0.174060
H26   H     H_    0.288535 0.020770 0.684515 0.197621
O17   O     O_3   0.470345 0.137363 0.656544 -0.524597
C39   C     C_3   0.575256 0.099738 0.706852 -0.231913
H27   H     H_    0.661919 0.114165 0.668704 0.104658
H28   H     H_    0.569841 0.991502 0.731190 0.198530
H29   H     H_    0.578963 0.167416 0.766029 0.180293
O18   O     O_3   0.585923 0.855139 0.354803 -0.528635
C40   C     C_3   0.714387 0.868556 0.348754 -0.237752
H30   H     H_    0.760612 0.820829 0.406914 0.158750
H31   H     H_    0.742355 0.977747 0.340764 0.186427
H32   H     H_    0.746839 0.812599 0.288921 0.202758

loop_
_geom_bond_atom_site_label_1
_geom_bond_atom_site_label_2
_ccdc_geom_bond_type
C40   H30   S    
C6    C9    A    
C40   H32   S    
O9    C31   S    
C31   H5    S    
Cu1   O7    S    
C33   H11   S    
C23   C29   A    
C11   N2    A    
C19   C21   A    
C17   O9    S    
C15   O8    A    
C11   C14   A    
C29   H1    S    
C12   O16   S    
C33   H10   S    
C6    O12   S    
C3    C29   A    
C1    O4    A    
C2    O3    A    
C34   H13   S    
C35   H15   S    
Cu2   O2    S    
C18   C20   A    
C1    O1    A    
C23   C25   A    
Cu2   N2    S    
O11   C33   S    
O18   C40   S    
C37   H23   S    
C38   H25   S    
C15   C20   S    
C31   H4    S    
O14   C36   S    
C30   H2    S    
C32   H6    S    
C17   C27   A    
C18   C28   A    
O16   C38   S    
C15   O5    A    
C13   N2    A    
C37   H22   S    
C14   N1    A    
C5    C7    A    
C5    O11   S    
C22   I2    S    
C25   C26   A    
C38   H24   S    
Cu1   O1    S    
C33   H9    S    
C32   H7    S    
C36   H18   S    
C2    O2    A    
C39   H28   S    
Cu1   Cu2   S    
C34   H14   S    
C35   H17   S    
C8    O14   S    
O10   C32   S    
Cu2   O8    S    
C12   N1    A    
C36   H19   S    
C16   O7    A    
C11   O15   S    
C3    I3    S    
C20   C22   A    
C21   C23   A    
C22   C24   A    
C16   O6    A    
C4    C27   A    
C18   O10   S    
C39   H29   S    
C21   I1    S    
C38   H26   S    
C7    C9    A    
C31   H3    S    
C3    C28   A    
Cu1   O5    S    
C13   O17   S    
C1    C10   S    
C24   C26   A    
C37   H21   S    
C7    O13   S    
C6    C8    A    
C40   H31   S    
C25   C27   A    
C26   C28   A    
C32   H8    S    
O12   C34   S    
C5    C10   A    
C39   H27   S    
C16   C19   S    
C17   C19   A    
Cu1   O3    S    
Cu1   N1    S    
Cu2   O4    S    
O13   C35   S    
C36   H20   S    
C24   C30   A    
O15   C37   S    
C12   C13   A    
C8    C10   A    
C34   H12   S    
C4    I4    S    
Cu2   O6    S    
C35   H16   S    
O17   C39   S    
C2    C9    S    
C14   O18   S    
C4    C30   A    
