data_mof_unit_36207.cif
_audit_creation_date              2012-12-10T19:46:53-0500
_audit_creation_method            fapswitch 2.2
_symmetry_space_group_name_H-M    P1
_symmetry_Int_Tables_number       1
_space_group_crystal_system       triclinic
_cell_length_a                    10.890241
_cell_length_b                    10.893291
_cell_length_c                    13.124393
_cell_angle_alpha                 90.455138
_cell_angle_beta                  90.072599
_cell_angle_gamma                 89.909373
_cell_volume                      1556.90185153

loop_
_atom_site_label
_atom_site_type_symbol
_atom_type_description
_atom_site_fract_x
_atom_site_fract_y
_atom_site_fract_z
_atom_type_partial_charge
C1    C     C_R   0.494190 0.259619 0.499393 0.826022
C2    C     C_R   0.505807 0.740380 0.500607 0.826146
C3    C     C_R   0.872945 0.491762 0.500896 -0.075417
C4    C     C_R   0.127056 0.508229 0.499105 -0.075273
C5    C     C_R   0.940098 0.456438 0.587981 0.020210
C6    C     C_R   0.059903 0.543561 0.412024 0.020274
C7    C     C_R   0.266728 0.220705 0.210401 -0.162969
C8    C     C_R   0.733192 0.779321 0.789698 -0.162977
C9    C     C_R   0.299585 0.166875 0.303752 0.022782
C10   C     C_R   0.700375 0.833077 0.696303 0.022734
C11   C     C_R   0.419703 0.116723 0.314221 0.032025
C12   C     C_R   0.580272 0.883273 0.685794 0.032056
C13   C     C_R   0.501394 0.120459 0.231516 -0.152711
C14   C     C_R   0.498563 0.879631 0.768495 -0.152741
C15   C     C_R   0.466418 0.174004 0.139770 -0.135258
C16   C     C_R   0.533501 0.826149 0.860278 -0.135249
C17   C     C_R   0.349368 0.224099 0.129296 -0.143532
C18   C     C_R   0.650535 0.776026 0.870797 -0.143542
C19   C     C_R   0.471801 0.932697 0.412253 -0.203672
C20   C     C_R   0.528222 0.067302 0.587743 -0.203921
C21   C     C_R   0.506022 0.872892 0.501702 -0.054089
C22   C     C_R   0.493987 0.127106 0.498297 -0.054345
C23   C     C_R   0.259670 0.507311 0.499758 0.836312
C24   C     C_R   0.740330 0.492687 0.500243 0.836292
C25   C     C_R   0.536587 0.940599 0.590219 0.056184
C26   C     C_R   0.463429 0.059399 0.409780 0.056138
C27   C     C_1   0.500054 0.500149 0.173584 0.164283
C28   C     C_1   0.499947 0.499854 0.826416 0.164300
C29   C     C_1   0.500037 0.500100 0.050681 -0.105316
C30   C     C_1   0.499964 0.499906 0.949318 -0.105255
C31   C     C_R   0.233013 0.754183 0.234302 -0.119604
C32   C     C_R   0.766931 0.245995 0.765802 -0.119651
C33   C     C_R   0.180816 0.706349 0.322856 -0.115126
C34   C     C_R   0.819121 0.293759 0.677222 -0.115072
C35   C     C_R   0.117820 0.593888 0.319189 0.121744
C36   C     C_R   0.882185 0.406178 0.680839 0.121827
C37   C     C_R   0.106923 0.530885 0.225855 -0.130055
C38   C     C_R   0.893160 0.469207 0.774152 -0.130161
C39   C     C_R   0.160891 0.578096 0.137906 -0.153301
C40   C     C_R   0.839206 0.422063 0.862127 -0.153347
C41   C     C_R   0.223876 0.689689 0.142123 -0.111033
C42   C     C_R   0.776150 0.310514 0.857960 -0.111008
C43   C     C_R   0.933137 0.533426 0.413760 -0.214918
C44   C     C_R   0.066866 0.466561 0.586239 -0.215010
Cu1   Cu    Cu3+1 0.499990 0.499990 0.592680 0.991645
Cu2   Cu    Cu3+1 0.500010 0.500010 0.407320 0.991690
H1    H     H_    0.265014 0.726515 0.073854 0.123747
H2    H     H_    0.735019 0.273740 0.926249 0.123754
H3    H     H_    0.592945 0.082344 0.238515 0.140907
H4    H     H_    0.407028 0.917783 0.761468 0.140923
H5    H     H_    0.530295 0.176887 0.076707 0.129873
H6    H     H_    0.469612 0.823346 0.923338 0.129869
H7    H     H_    0.448946 0.880441 0.344330 0.141353
H8    H     H_    0.551077 0.119560 0.655665 0.141383
H9    H     H_    0.279874 0.841601 0.236789 0.125794
H10   H     H_    0.720011 0.158611 0.763352 0.125748
H11   H     H_    0.188658 0.757065 0.393898 0.122526
H12   H     H_    0.811217 0.243022 0.606198 0.122393
H13   H     H_    0.056945 0.445187 0.221464 0.140831
H14   H     H_    0.943190 0.554874 0.778504 0.140968
H15   H     H_    0.153299 0.528506 0.066386 0.127262
H16   H     H_    0.846863 0.471673 0.933630 0.127274
H17   H     H_    0.880952 0.562150 0.347610 0.156055
H18   H     H_    0.119052 0.437841 0.652389 0.156043
H19   H     H_    0.322370 0.265560 0.057992 0.137272
H20   H     H_    0.677507 0.734618 0.942132 0.137284
H21   H     H_    0.175932 0.258639 0.199182 0.160046
H22   H     H_    0.823969 0.741355 0.800957 0.160134
N1    N     N_1   0.500030 0.500030 0.268070 -0.131182
N2    N     N_1   0.499970 0.499970 0.731930 -0.131201
O1    O     O_R   0.499980 0.319630 0.578260 -0.586648
O2    O     O_R   0.500020 0.680370 0.421740 -0.586640
O3    O     O_R   0.500000 0.319650 0.421740 -0.576667
O4    O     O_R   0.500000 0.680350 0.578260 -0.576717
O5    O     O_R   0.319630 0.500000 0.578260 -0.588676
O6    O     O_R   0.680370 0.500000 0.421740 -0.588638
O7    O     O_R   0.319650 0.500020 0.421740 -0.564856
O8    O     O_R   0.680350 0.499980 0.578260 -0.564898
C45   C     C_2   0.205975 0.163609 0.386527 0.795844
O9    O     O_2   0.218148 0.095189 0.459224 -0.607018
O10   O     O_R   0.101483 0.238067 0.380203 -0.781331
H23   H     H_    0.044447 0.228088 0.440577 0.340752
C46   C     C_2   0.794009 0.836204 0.613531 0.796010
O11   O     O_2   0.781746 0.904304 0.540647 -0.607063
O12   O     O_R   0.898616 0.761952 0.620058 -0.781389
H24   H     H_    0.955641 0.771778 0.559657 0.340773

loop_
_geom_bond_atom_site_label_1
_geom_bond_atom_site_label_2
_ccdc_geom_bond_type
Cu1   O1    S    
Cu2   O6    S    
O10   H23   S    
C43   H17   S    
C39   C41   A    
O12   H24   S    
C44   H18   S    
C3    C43   A    
C1    O1    A    
C19   C21   A    
C27   C29   S    
C20   C25   A    
C5    C36   S    
C10   C46   S    
C40   H16   S    
C6    C35   S    
C7    C9    A    
C9    C45   S    
C19   C26   A    
Cu2   N1    S    
C7    C17   A    
C31   C33   A    
Cu1   O8    S    
C15   H5    S    
Cu2   O2    S    
C27   N1    T    
C19   H7    S    
C40   C42   A    
C1    C22   S    
C3    C24   S    
C2    O2    A    
C39   H15   S    
C4    C6    A    
C23   O5    A    
C45   O10   S    
C4    C23   S    
C24   O6    A    
C4    C44   A    
C11   C26   S    
Cu1   Cu2   S    
C8    C18   A    
Cu1   O4    S    
C32   C34   A    
C29   C30   T    
C46   O11   D    
C2    C21   S    
C41   H1    S    
C42   H2    S    
C23   O7    A    
C9    C11   A    
C37   H13   S    
C10   C12   A    
C13   H3    S    
C20   H8    S    
C46   O12   S    
C5    C44   A    
C12   C14   A    
C8    H22   S    
C6    C43   A    
C13   C15   A    
C38   H14   S    
C24   O8    A    
C15   C17   A    
C21   C25   A    
C33   H11   S    
C31   C41   A    
C35   C37   A    
Cu1   N2    S    
C8    C10   A    
C28   N2    T    
C16   H6    S    
C20   C22   A    
C3    C5    A    
C2    O4    A    
Cu2   O7    S    
C18   H20   S    
C17   H19   S    
C12   C25   S    
Cu1   O5    S    
C1    O3    A    
C28   C30   S    
C37   C39   A    
C38   C40   A    
C11   C13   A    
C14   H4    S    
C36   C38   A    
C33   C35   A    
C34   C36   A    
C14   C16   A    
C7    H21   S    
C45   O9    D    
C16   C18   A    
C22   C26   A    
C34   H12   S    
C32   C42   A    
C31   H9    S    
C32   H10   S    
Cu2   O3    S    
