data_mof_unit_29499.cif
_audit_creation_date              2012-12-11T16:22:25-0500
_audit_creation_method            fapswitch 2.2
_symmetry_space_group_name_H-M    P1
_symmetry_Int_Tables_number       1
_space_group_crystal_system       triclinic
_cell_length_a                    16.936951
_cell_length_b                    16.877178
_cell_length_c                    19.391831
_cell_angle_alpha                 118.022317
_cell_angle_beta                  62.40686
_cell_angle_gamma                 100.537764
_cell_volume                      4332.42608446

loop_
_atom_site_label
_atom_site_type_symbol
_atom_type_description
_atom_site_fract_x
_atom_site_fract_y
_atom_site_fract_z
_atom_type_partial_charge
C1    C     C_R   0.045777 0.755818 0.005145 -0.217843
C2    C     C_R   0.765567 0.448017 0.244674 0.083506
C3    C     C_R   0.722501 0.550528 0.026247 -0.093651
C4    C     C_R   0.969849 0.758563 0.256755 0.060923
C5    C     C_R   0.250192 0.567571 0.011709 -0.141202
C6    C     C_R   0.925644 0.261015 0.833025 -0.131965
C7    C     C_R   0.170786 0.455957 0.750760 -0.124045
C8    C     C_R   0.051341 0.309136 0.052741 -0.112589
C9    C     C_R   0.973540 0.240431 0.976039 -0.125441
C10   C     C_R   0.250860 0.523980 0.826632 -0.125556
C11   C     C_R   0.183450 0.488841 0.087000 -0.139118
C12   C     C_R   0.763506 0.423760 0.166653 -0.146530
C13   C     C_R   0.993157 0.339320 0.757551 -0.174165
C14   C     C_R   0.257524 0.537934 0.064199 0.066318
C15   C     C_R   0.948869 0.261654 0.754682 0.083645
C16   C     C_R   0.256769 0.466625 0.744135 0.035118
C17   C     C_R   0.027949 0.224456 0.004943 0.046832
C18   C     C_R   0.868687 0.921856 0.491676 -0.154564
C19   C     C_R   0.900654 0.842264 0.416669 -0.210172
C20   C     C_R   0.925936 0.840158 0.336165 0.098195
C21   C     C_R   0.909815 0.916312 0.332369 -0.218948
C22   C     C_R   0.876178 0.996863 0.408005 0.303639
C23   C     C_R   0.802943 0.559402 0.962463 0.514123
C24   C     C_R   0.861223 0.000822 0.487677 0.108778
C25   C     C_R   0.941352 0.134937 0.539845 -0.204711
C26   C     C_R   0.966467 0.194465 0.604483 -0.176857
C27   C     C_R   0.916154 0.204820 0.689519 0.075466
C28   C     C_R   0.835665 0.161232 0.710886 -0.304597
C29   C     C_R   0.808244 0.103340 0.646564 0.525803
C30   C     C_R   0.864838 0.085539 0.559315 -0.073123
C31   C     C_R   0.598307 0.317790 0.357764 -0.243611
C32   C     C_R   0.659523 0.340181 0.291853 -0.158064
C33   C     C_R   0.707723 0.418027 0.311262 0.089634
C34   C     C_R   0.958850 0.672315 0.249522 -0.130490
C35   C     C_R   0.698526 0.469821 0.396178 -0.351348
C36   C     C_R   0.634755 0.450069 0.463255 0.552808
C37   C     C_R   0.582663 0.374327 0.444221 -0.048019
C38   C     C_R   0.495447 0.382917 0.592705 -0.083174
C39   C     C_R   0.415457 0.411297 0.667896 -0.207511
C40   C     C_R   0.337920 0.423877 0.664475 0.147054
C41   C     C_R   0.339383 0.399444 0.584107 -0.173364
C42   C     C_R   0.419151 0.372272 0.509535 -0.200707
C43   C     C_R   0.498555 0.369043 0.514244 0.130691
C44   C     C_R   0.634467 0.591944 0.062015 0.149021
C45   C     C_R   0.739328 0.485843 0.043031 -0.224472
C46   C     C_R   0.324197 0.563170 0.098219 0.127695
C47   C     C_R   0.404071 0.526999 0.156494 -0.226006
C48   C     C_R   0.329090 0.519865 0.142886 -0.174142
C49   C     C_R   0.389430 0.623323 0.077980 -0.278624
C50   C     C_R   0.466858 0.626783 0.086972 0.194889
C51   C     C_R   0.475670 0.574618 0.122589 0.181263
C52   C     C_R   0.558896 0.560963 0.113275 -0.273443
C53   C     C_R   0.623505 0.655091 0.038735 -0.150883
C54   C     C_R   0.539465 0.672823 0.051592 -0.254768
C55   C     C_R   0.820153 0.161857 0.135430 -0.117523
C56   C     C_R   0.026322 0.751877 0.174411 -0.128608
C57   C     C_R   0.979077 0.857510 0.978786 0.146721
C58   C     C_R   0.918321 0.944084 0.941736 -0.159278
C59   C     C_R   0.962291 0.866871 0.918428 -0.203401
C60   C     C_R   0.959329 0.931507 0.060466 -0.236468
C61   C     C_R   0.916343 0.010139 0.084125 0.125196
C62   C     C_R   0.891985 0.015226 0.025517 0.043228
C63   C     C_R   0.840402 0.090011 0.052131 0.465285
C64   C     C_R   0.847477 0.158367 0.191601 -0.169794
C65   C     C_R   0.894277 0.082314 0.166735 -0.235640
C66   C     C_R   0.842315 0.493842 0.241973 -0.144693
C67   C     C_R   0.975539 0.684661 0.921742 0.355285
C68   C     C_R   0.004839 0.768836 0.963469 -0.007653
H1    H     H_    0.086709 0.803418 0.033594 0.115778
H2    H     H_    0.879812 0.217090 0.857916 0.098533
H3    H     H_    0.150794 0.414512 0.699518 0.095829
H4    H     H_    0.091165 0.322963 0.087136 0.096300
H5    H     H_    0.941765 0.190206 0.938032 0.141600
H6    H     H_    0.305138 0.546374 0.845060 0.096637
H7    H     H_    0.160194 0.466957 0.137153 0.086069
H8    H     H_    0.006623 0.369004 0.714620 0.091213
H9    H     H_    0.858603 0.923422 0.551717 0.159411
H10   H     H_    0.911544 0.784191 0.421479 0.125806
H11   H     H_    0.925011 0.913763 0.270555 0.127996
H12   H     H_    0.719495 0.376883 0.142129 0.076176
H13   H     H_    0.986459 0.121337 0.473317 0.154591
H14   H     H_    0.028572 0.227883 0.586703 0.123477
H15   H     H_    0.794559 0.170874 0.776956 0.142934
H16   H     H_    0.558287 0.259950 0.342235 0.143582
H17   H     H_    0.667091 0.298002 0.226392 0.104869
H18   H     H_    0.736305 0.529471 0.411961 0.138606
H19   H     H_    0.556022 0.379281 0.597125 0.140670
H20   H     H_    0.415191 0.427069 0.728946 0.118275
H21   H     H_    0.280538 0.407872 0.579373 0.110903
H22   H     H_    0.419933 0.362520 0.449866 0.125441
H23   H     H_    0.564612 0.517376 0.137555 0.120492
H24   H     H_    0.679654 0.686841 0.006146 0.179071
H25   H     H_    0.409572 0.488026 0.185468 0.125949
H26   H     H_    0.532953 0.715821 0.026844 0.136029
H27   H     H_    0.278662 0.475129 0.161765 0.115417
H28   H     H_    0.385043 0.660444 0.047063 0.118436
H29   H     H_    0.918182 0.652218 0.300419 0.096299
H30   H     H_    0.830762 0.214232 0.255160 0.154601
H31   H     H_    0.903823 0.947051 0.894126 0.174508
H32   H     H_    0.912870 0.079707 0.212132 0.141882
H33   H     H_    0.981604 0.814600 0.853210 0.136995
H34   H     H_    0.972493 0.926194 0.107818 0.116506
H35   H     H_    0.693138 0.458782 0.086655 0.133447
H36   H     H_    0.050441 0.807108 0.157947 0.091321
H37   H     H_    0.872340 0.508625 0.285038 0.094992
H38   H     H_    0.289065 0.617367 0.991279 0.089609
N1    N     N_R   0.034930 0.670790 0.995440 -0.051574
N2    N     N_R   0.954880 0.335850 0.881080 -0.037534
N3    N     N_R   0.115060 0.502430 0.834090 -0.039317
N4    N     N_R   0.014160 0.371890 0.051540 -0.041233
N5    N     N_R   0.965070 0.329210 0.004560 -0.043033
N6    N     N_R   0.164150 0.545120 0.881070 -0.037401
N7    N     N_R   0.133000 0.490740 0.051540 -0.038150
N8    N     N_R   0.996220 0.383590 0.834100 -0.038778
N9    N     N_R   0.835850 0.454880 0.118930 -0.032355
N10   N     N_R   0.867000 0.509260 0.948460 -0.099406
N11   N     N_R   0.003780 0.616410 0.165900 -0.040348
N12   N     N_R   0.825670 0.461520 0.995440 -0.064880
N13   N     N_R   0.045120 0.664150 0.118920 -0.036377
N14   N     N_R   0.884940 0.497570 0.165910 -0.037866
N15   N     N_R   0.985840 0.628110 0.948460 -0.067666
N16   N     N_R   0.174330 0.538480 0.004560 -0.037747
Ni1   Ni    Ni4+2 0.103690 0.603690 0.000000 0.210823
Ni2   Ni    Ni4+2 0.896310 0.396310 0.000000 0.201454
Ni3   Ni    Ni4+2 0.991110 0.505800 0.892250 0.208775
Ni4   Ni    Ni4+2 0.008890 0.494200 0.107750 0.211228
C69   C     C_3   0.860653 0.077217 0.400867 -1.083007
H39   H     H_    0.828614 0.135217 0.465330 0.258836
H40   H     H_    0.925131 0.097562 0.361335 0.252653
H41   H     H_    0.815831 0.059624 0.368774 0.262108
O1    O     O_3   0.732423 0.055800 0.668351 -0.635763
C70   C     C_3   0.665454 0.088522 0.663064 0.259110
H42   H     H_    0.685504 0.077034 0.595552 0.097665
H43   H     H_    0.650479 0.161669 0.707474 0.085197
C71   C     C_3   0.580658 0.038982 0.690122 -0.869997
H44   H     H_    0.557971 0.050045 0.757799 0.255678
H45   H     H_    0.527338 0.064238 0.686375 0.206095
H46   H     H_    0.593206 0.965848 0.646303 0.256170
O2    O     O_3   0.620950 0.506994 0.547864 -0.643423
C72   C     C_3   0.569358 0.583582 0.578589 0.266463
H47   H     H_    0.507970 0.564631 0.567774 0.092446
H48   H     H_    0.609250 0.626687 0.546114 0.094553
C73   C     C_3   0.540549 0.638082 0.675638 -0.880008
H49   H     H_    0.600062 0.659241 0.688979 0.259002
H50   H     H_    0.500417 0.698848 0.700499 0.208233
H51   H     H_    0.499380 0.597096 0.709959 0.252266
O3    O     O_3   0.809179 0.587318 0.903967 -0.659796
C74   C     C_3   0.793139 0.513581 0.836792 0.243986
H52   H     H_    0.727993 0.483924 0.863030 0.102567
H53   H     H_    0.847522 0.460673 0.798290 0.096401
C75   C     C_3   0.789625 0.545008 0.776449 -0.901438
H54   H     H_    0.855102 0.570037 0.744397 0.253864
H55   H     H_    0.773420 0.488100 0.725651 0.217737
H56   H     H_    0.737428 0.599632 0.813738 0.260671
O4    O     O_3   0.811801 0.089210 0.994809 -0.653007
C76   C     C_3   0.743517 0.154923 0.035054 0.259127
H57   H     H_    0.771317 0.222805 0.051633 0.095071
H58   H     H_    0.688153 0.152007 0.094357 0.094366
C77   C     C_3   0.704782 0.137410 0.972604 -0.897775
H59   H     H_    0.672148 0.071948 0.958843 0.261796
H60   H     H_    0.654495 0.191563 0.001781 0.204525
H61   H     H_    0.758256 0.135517 0.910719 0.252557
C78   C     C_3   0.976455 0.650992 0.834852 -0.962135
H62   H     H_    0.918956 0.680891 0.841240 0.279078
H63   H     H_    0.039435 0.668772 0.791042 0.217866
H64   H     H_    0.974753 0.576592 0.804248 0.257044

loop_
_geom_bond_atom_site_label_1
_geom_bond_atom_site_label_2
_ccdc_geom_bond_type
C45   N12   A    
C58   C62   A    
C73   H51   S    
C41   H21   S    
C16   C40   S    
C9    N5    A    
C48   H27   S    
C71   H46   S    
C41   C42   A    
C3    C23   A    
C78   H62   S    
C74   C75   S    
N1    Ni1   S    
C2    C12   A    
C1    C68   A    
C71   H44   S    
C14   C46   S    
C53   C54   A    
C46   C49   A    
C26   C27   A    
C50   C54   A    
C18   C24   A    
C28   C29   A    
C78   H63   S    
C72   H48   S    
N11   N13   A    
C77   H59   S    
C7    H3    S    
C38   C39   A    
C35   H18   S    
N14   Ni4   S    
C57   C59   A    
C73   H49   S    
C34   H29   S    
C6    H2    S    
C18   C19   A    
C75   H56   S    
N2    N8    A    
N4    N5    A    
C45   H35   S    
C33   C35   A    
C6    C15   A    
C71   H45   S    
C44   C53   A    
N7    N16   A    
O3    C74   S    
C70   H42   S    
C55   C63   A    
C75   H54   S    
C72   C73   S    
C10   N6    A    
N11   Ni4   S    
C13   N8    A    
C12   N9    A    
C44   C52   A    
C34   N11   A    
C64   H30   S    
C23   N10   A    
C26   H14   S    
C66   N14   A    
C21   C22   A    
C4    C56   A    
C28   H15   S    
C25   H13   S    
C9    H5    S    
C39   H20   S    
N2    Ni2   S    
C60   H34   S    
C67   N15   A    
C46   C48   A    
C5    H38   S    
C76   C77   S    
C4    C34   A    
C3    C44   S    
C8    H4    S    
C67   C68   A    
C59   H33   S    
C70   C71   S    
C78   H64   S    
C74   H52   S    
C56   H36   S    
N6    Ni1   S    
N3    N6    A    
C39   C40   A    
N8    Ni3   S    
C57   C60   A    
C47   C51   A    
N7    Ni4   S    
C58   C59   A    
C23   O3    S    
C5    N16   A    
C3    C45   A    
C1    H1    S    
C31   H16   S    
C51   C52   A    
C31   C37   A    
C60   C61   A    
C42   H22   S    
C35   C36   A    
C37   C43   S    
C19   H10   S    
C69   H40   S    
N15   Ni3   S    
C29   C30   A    
C8    N4    A    
C15   C27   S    
C47   C48   A    
C13   H8    S    
C55   C64   A    
C21   H11   S    
C62   C63   A    
C77   H60   S    
C50   C51   A    
C47   H25   S    
C77   H61   S    
N12   Ni2   S    
C72   H47   S    
C5    C14   A    
N4    Ni4   S    
C70   H43   S    
C49   H28   S    
C2    C33   S    
C9    C17   A    
C40   C41   A    
C1    N1    A    
C49   C50   A    
N10   Ni3   S    
C13   C15   A    
C56   N13   A    
C22   C24   A    
C42   C43   A    
N1    N15   A    
C57   C68   S    
C69   H39   S    
C27   C28   A    
N3    Ni3   S    
C25   C30   A    
C73   H50   S    
C76   H57   S    
N9    Ni2   S    
N5    Ni2   S    
C31   C32   A    
C7    C16   A    
C58   H31   S    
C65   H32   S    
C74   H53   S    
C2    C66   A    
O2    C72   S    
N13   Ni1   S    
C8    C17   A    
C38   H19   S    
C64   C65   A    
C19   C20   A    
C76   H58   S    
C25   C26   A    
C69   H41   S    
C63   O4    S    
C38   C43   A    
C11   H7    S    
C32   C33   A    
C10   H6    S    
C22   C69   S    
C29   O1    S    
C18   H9    S    
C32   H17   S    
C12   H12   S    
C11   C14   A    
N10   N12   A    
C53   H24   S    
C75   H55   S    
C61   C65   A    
C61   C62   A    
C11   N7    A    
C36   O2    S    
C24   C30   S    
C54   H26   S    
C4    C20   S    
C67   C78   S    
C7    N3    A    
C20   C21   A    
C36   C37   A    
N9    N14   A    
O4    C76   S    
C6    N2    A    
C52   H23   S    
C10   C16   A    
C66   H37   S    
N16   Ni1   S    
O1    C70   S    
