data_mof_unit_41824.cif
_audit_creation_date              2012-12-10T17:15:13-0500
_audit_creation_method            fapswitch 2.2
_symmetry_space_group_name_H-M    P1
_symmetry_Int_Tables_number       1
_space_group_crystal_system       triclinic
_cell_length_a                    15.848452
_cell_length_b                    12.985293
_cell_length_c                    11.742931
_cell_angle_alpha                 99.101903
_cell_angle_beta                  92.445595
_cell_angle_gamma                 91.820546
_cell_volume                      2382.23687045

loop_
_atom_site_label
_atom_site_type_symbol
_atom_type_description
_atom_site_fract_x
_atom_site_fract_y
_atom_site_fract_z
_atom_type_partial_charge
C1    C     C_R   0.499189 0.299683 0.479397 0.858272
C2    C     C_R   0.500324 0.700150 0.520779 0.785375
C3    C     C_R   0.430243 0.022709 0.376459 -0.140873
C4    C     C_R   0.571067 0.975910 0.623278 -0.197200
C5    C     C_R   0.443357 0.129091 0.380726 -0.318586
C6    C     C_R   0.559527 0.869053 0.616151 -0.237385
C7    C     C_R   0.536379 0.137894 0.553109 0.368517
C8    C     C_R   0.456493 0.864172 0.454688 0.374824
C9    C     C_R   0.526245 0.028947 0.546264 -0.003896
C10   C     C_R   0.470777 0.971616 0.458771 0.086571
C11   C     C_R   0.424436 0.394949 0.026839 0.394270
C12   C     C_R   0.572721 0.609938 0.973329 0.421062
C13   C     C_R   0.433186 0.404676 0.147493 -0.108646
C14   C     C_R   0.563012 0.599191 0.852106 -0.131353
C15   C     C_R   0.528286 0.551137 0.154884 0.579635
C16   C     C_R   0.472599 0.448810 0.845371 0.573272
C17   C     C_R   0.525292 0.541541 0.032483 -0.189332
C18   C     C_R   0.474462 0.460365 0.967580 -0.213062
C19   C     C_R   0.340191 0.499430 0.501359 0.791393
C20   C     C_R   0.659790 0.499798 0.498744 0.822371
C21   C     C_3   0.972445 0.484055 0.607206 0.347106
C22   C     C_3   0.028553 0.528617 0.409739 0.290250
C23   C     C_3   0.026764 0.412097 0.525339 0.280303
C24   C     C_3   0.973116 0.600580 0.492320 0.250443
C25   C     C_1   0.251099 0.500438 0.505293 -0.182311
C26   C     C_1   0.748992 0.500153 0.496746 -0.192740
C27   C     C_3   0.030585 0.579730 0.596074 0.281819
C28   C     C_3   0.970724 0.433493 0.420715 0.263573
C29   C     C_3   0.084959 0.506752 0.513862 -0.192757
C30   C     C_3   0.915898 0.504623 0.503256 -0.211903
C31   C     C_1   0.176036 0.502658 0.509685 0.070041
C32   C     C_1   0.824384 0.501620 0.498497 0.039119
C33   C     C_R   0.503373 0.812887 0.532156 -0.131478
C34   C     C_R   0.494875 0.186798 0.469333 -0.074631
Cu1   Cu    Cu3+1 0.506200 0.507730 0.615930 0.954851
Cu2   Cu    Cu3+1 0.493800 0.492270 0.384070 0.948912
H1    H     H_    0.596770 0.829528 0.674408 0.163435
H2    H     H_    0.410441 0.167129 0.317076 0.175823
H3    H     H_    0.388319 0.980793 0.308214 0.202985
H4    H     H_    0.617199 0.015191 0.687391 0.160201
H5    H     H_    0.593523 0.655122 0.806694 0.152245
H6    H     H_    0.396775 0.352741 0.191826 0.162694
N1    N     N_R   0.515540 0.519350 0.790140 -0.246086
N2    N     N_R   0.484460 0.480650 0.209860 -0.255177
O1    O     O_R   0.504400 0.354460 0.582000 -0.518154
O2    O     O_R   0.495600 0.645540 0.418000 -0.541696
O3    O     O_R   0.493920 0.341410 0.386200 -0.601889
O4    O     O_R   0.506080 0.658590 0.613800 -0.593458
O5    O     O_R   0.384320 0.506520 0.597880 -0.609696
O6    O     O_R   0.615680 0.493480 0.402120 -0.613281
O7    O     O_R   0.373840 0.493460 0.402080 -0.576231
O8    O     O_R   0.626160 0.506540 0.597920 -0.563453
O9    O     O_3   0.061602 0.320421 0.554952 -0.612301
C35   C     C_3   0.024481 0.230966 0.485308 0.096904
H7    H     H_    0.043782 0.227879 0.394820 0.194354
H8    H     H_    0.954275 0.230407 0.488243 0.153598
C36   C     C_3   0.055921 0.134318 0.530614 -0.361190
H9    H     H_    0.126055 0.134454 0.529901 0.233694
H10   H     H_    0.037279 0.136434 0.621143 0.210831
C37   C     C_3   0.019349 0.034066 0.457154 -0.934614
H11   H     H_    0.949306 0.030966 0.459123 0.257241
H12   H     H_    0.044091 0.965589 0.491826 0.247328
H13   H     H_    0.037925 0.029732 0.366415 0.261360
O10   O     O_3   0.940046 0.692273 0.459695 -0.618791
C38   C     C_3   0.929517 0.770747 0.555444 0.079753
H14   H     H_    0.915425 0.843232 0.520428 0.162865
H15   H     H_    0.988634 0.789239 0.609327 0.150766
C39   C     C_3   0.855126 0.745449 0.627400 -0.317595
H16   H     H_    0.797481 0.725869 0.569807 0.219336
H17   H     H_    0.869388 0.677700 0.670967 0.246728
C40   C     C_3   0.837635 0.837778 0.719849 -0.932141
H18   H     H_    0.894219 0.858472 0.779195 0.265383
H19   H     H_    0.784091 0.816676 0.770809 0.247126
H20   H     H_    0.820569 0.906509 0.679364 0.256564
O11   O     O_3   0.943056 0.468899 0.715499 -0.573238
C41   C     C_3   0.902708 0.369410 0.707571 0.083182
H21   H     H_    0.951156 0.309969 0.711718 0.170041
H22   H     H_    0.862634 0.347733 0.626481 0.138335
C42   C     C_3   0.846213 0.369466 0.809826 -0.344666
H23   H     H_    0.885243 0.389112 0.891807 0.226984
H24   H     H_    0.798138 0.429736 0.807571 0.234451
C43   C     C_3   0.801187 0.263365 0.806746 -0.910346
H25   H     H_    0.761260 0.242336 0.725815 0.288333
H26   H     H_    0.759986 0.266544 0.881266 0.261178
H27   H     H_    0.848030 0.202264 0.812187 0.247811
O12   O     O_3   0.059726 0.544292 0.302623 -0.609279
C44   C     C_3   0.095740 0.645977 0.310213 0.099881
H28   H     H_    0.133782 0.670968 0.392421 0.119737
H29   H     H_    0.044757 0.701736 0.302901 0.191300
C45   C     C_3   0.153958 0.648295 0.210155 -0.361250
H30   H     H_    0.206060 0.594038 0.217764 0.229146
H31   H     H_    0.117707 0.621715 0.126953 0.228592
C46   C     C_3   0.191628 0.757874 0.209897 -0.888200
H32   H     H_    0.140692 0.812556 0.197895 0.248978
H33   H     H_    0.235001 0.756431 0.137891 0.266918
H34   H     H_    0.227840 0.786327 0.292523 0.276822
O13   O     O_3   0.937629 0.355079 0.331094 -0.605417
C47   C     C_3   0.902427 0.400085 0.238790 0.142295
H35   H     H_    0.953279 0.420635 0.183132 0.184264
H36   H     H_    0.867573 0.471713 0.269135 0.126769
C48   C     C_3   0.839721 0.321984 0.165914 -0.385568
H37   H     H_    0.790950 0.296471 0.221921 0.231280
H38   H     H_    0.807385 0.360938 0.099405 0.174031
C49   C     C_3   0.883479 0.226739 0.105524 -0.770625
H39   H     H_    0.931144 0.250865 0.047219 0.236127
H40   H     H_    0.835889 0.172522 0.053122 0.231545
H41   H     H_    0.915022 0.184840 0.169968 0.273009
O14   O     O_3   0.054760 0.649669 0.698249 -0.580109
C50   C     C_3   0.130980 0.706100 0.687610 0.062821
H42   H     H_    0.121429 0.789633 0.720970 0.144170
H43   H     H_    0.149898 0.703465 0.597056 0.109213
C51   C     C_3   0.201526 0.668864 0.762747 -0.328841
H44   H     H_    0.185139 0.684925 0.854822 0.219874
H45   H     H_    0.207551 0.583320 0.739162 0.225342
C52   C     C_3   0.286238 0.723865 0.749222 -0.877589
H46   H     H_    0.304001 0.709155 0.657750 0.248122
H47   H     H_    0.336125 0.693752 0.803111 0.262331
H48   H     H_    0.282625 0.809291 0.777614 0.250996
O15   O     O_3   0.396629 0.812029 0.375149 -0.738177
H49   H     H_    0.372144 0.751814 0.406454 0.317043
O16   O     O_3   0.587398 0.198030 0.638358 -0.725891
H50   H     H_    0.577140 0.173849 0.712591 0.331784
O17   O     O_3   0.429360 0.363251 0.783402 -0.680498
H51   H     H_    0.397410 0.386762 0.719467 0.344882
O18   O     O_3   0.573022 0.635349 0.217199 -0.661041
H52   H     H_    0.603512 0.611546 0.281907 0.346352
O19   O     O_3   0.366007 0.321827 0.968513 -0.560130
C53   C     C_3   0.287758 0.370213 0.959625 0.078220
H53   H     H_    0.295064 0.444064 0.922909 0.133685
H54   H     H_    0.260751 0.387947 0.046317 0.127488
C54   C     C_3   0.226111 0.296263 0.879521 -0.323127
H55   H     H_    0.253917 0.275112 0.794011 0.243680
H56   H     H_    0.215333 0.223653 0.916729 0.216775
C55   C     C_3   0.141491 0.346289 0.862602 -0.866461
H57   H     H_    0.112059 0.367868 0.946827 0.249144
H58   H     H_    0.098119 0.289980 0.805330 0.262812
H59   H     H_    0.150381 0.417164 0.821731 0.273775
O20   O     O_3   0.621489 0.692848 0.034758 -0.551334
C56   C     C_3   0.707268 0.688332 0.005012 0.090859
H60   H     H_    0.738440 0.765058 0.041224 0.175353
H61   H     H_    0.715180 0.678477 0.910370 0.103491
C57   C     C_3   0.753268 0.603240 0.057377 -0.383196
H62   H     H_    0.744707 0.613695 0.151896 0.244134
H63   H     H_    0.726360 0.525021 0.017864 0.198066
C58   C     C_3   0.847607 0.608160 0.036214 -0.890695
H64   H     H_    0.857793 0.600141 0.942254 0.276594
H65   H     H_    0.879039 0.543716 0.070668 0.241692
H66   H     H_    0.877063 0.683470 0.080471 0.264684

loop_
_geom_bond_atom_site_label_1
_geom_bond_atom_site_label_2
_ccdc_geom_bond_type
C28   O13   S    
C25   C31   T    
C44   H28   S    
C11   C18   A    
C26   C32   T    
C46   H32   S    
C22   C29   S    
C27   C29   S    
C11   C13   A    
Cu1   Cu2   S    
C24   C27   S    
C54   C55   S    
C53   H53   S    
C58   H66   S    
C55   H59   S    
C49   H40   S    
O13   C47   S    
C36   H9    S    
O17   H51   S    
O9    C35   S    
C2    O2    A    
C48   H37   S    
C37   H13   S    
C23   C29   S    
C16   O17   S    
C41   H22   S    
C15   N2    A    
C50   H43   S    
C56   C57   S    
C36   H10   S    
C52   H46   S    
O14   C50   S    
Cu2   O3    S    
C37   H12   S    
C13   H6    S    
C20   O6    A    
C4    H4    S    
C39   H16   S    
C38   H15   S    
C12   C17   A    
Cu1   O5    S    
C41   C42   S    
Cu2   O2    S    
Cu1   N1    S    
C9    C10   A    
C52   H48   S    
C21   C27   S    
C3    H3    S    
C24   O10   S    
C22   C28   S    
C5    H2    S    
C29   C31   S    
C57   C58   S    
C7    O16   S    
Cu1   O4    S    
C51   H45   S    
C49   H39   S    
C58   H65   S    
C1    C34   S    
C58   H64   S    
C35   H8    S    
C51   C52   S    
C41   H21   S    
C4    C6    A    
C50   C51   S    
C42   H24   S    
O12   C44   S    
C1    O3    A    
C36   C37   S    
C55   H58   S    
C52   H47   S    
C37   H11   S    
C11   O19   S    
O11   C41   S    
C42   C43   S    
C19   O5    A    
C45   H31   S    
C56   H60   S    
C38   C39   S    
C5    C34   A    
C17   C18   A    
C6    H1    S    
C23   C28   S    
C13   N2    A    
C16   N1    A    
O16   H50   S    
Cu2   O7    S    
C14   H5    S    
C2    C33   S    
C8    C10   A    
C12   C14   A    
C47   H35   S    
C46   H34   S    
C47   H36   S    
C21   C23   S    
O18   H52   S    
C7    C34   A    
C22   C24   S    
Cu2   N2    S    
C38   H14   S    
C54   H55   S    
Cu1   O1    S    
C53   C54   S    
C3    C5    A    
C57   H63   S    
Cu2   O6    S    
C45   C46   S    
C40   H19   S    
C48   H38   S    
C7    C9    A    
C35   H7    S    
C57   H62   S    
C54   H56   S    
C53   H54   S    
C40   H20   S    
O15   H49   S    
C6    C33   A    
C15   C17   A    
C55   H57   S    
C48   C49   S    
C43   H27   S    
C21   C30   S    
C21   O11   S    
C43   H26   S    
C47   C48   S    
C2    O4    A    
O10   C38   S    
C44   H29   S    
C40   H18   S    
C20   O8    A    
C3    C10   A    
C50   H42   S    
C30   C32   S    
C56   H61   S    
C1    O1    A    
C45   H30   S    
C46   H33   S    
C20   C26   S    
C27   O14   S    
C39   C40   S    
C23   O9    S    
C28   C30   S    
C51   H44   S    
C8    C33   A    
C22   O12   S    
C19   C25   S    
C24   C30   S    
O20   C56   S    
C42   H23   S    
C19   O7    A    
C16   C18   A    
C43   H25   S    
C15   O18   S    
C44   C45   S    
Cu1   O8    S    
C39   H17   S    
C12   O20   S    
C4    C9    A    
C49   H41   S    
O19   C53   S    
C8    O15   S    
C14   N1    A    
C35   C36   S    
