data_mof_unit_8485.cif
_audit_creation_date              2012-12-10T20:57:50-0500
_audit_creation_method            fapswitch 2.2
_symmetry_space_group_name_H-M    P1
_symmetry_Int_Tables_number       1
_space_group_crystal_system       triclinic
_cell_length_a                    15.062402
_cell_length_b                    15.358638
_cell_length_c                    15.840246
_cell_angle_alpha                 90.032808
_cell_angle_beta                  89.982874
_cell_angle_gamma                 67.786424
_cell_volume                      3392.47768751

loop_
_atom_site_label
_atom_site_type_symbol
_atom_type_description
_atom_site_fract_x
_atom_site_fract_y
_atom_site_fract_z
_atom_type_partial_charge
C1    C     C_R   0.499866 0.500272 0.338869 0.858911
C2    C     C_R   0.492349 0.511993 0.087038 -0.029277
C3    C     C_R   0.423468 0.491106 0.955465 -0.394329
C4    C     C_R   0.561736 0.534859 0.044537 -0.384615
C5    C     C_1   0.496428 0.508012 0.824251 0.040003
C6    C     C_1   0.495570 0.508146 0.175873 0.046662
C7    C     C_1   0.498099 0.504206 0.250606 -0.172457
C8    C     C_1   0.498335 0.504047 0.749483 -0.172168
C9    C     C_R   0.980400 0.429727 0.454277 0.568418
C10   C     C_R   0.019942 0.568672 0.544734 0.553429
C11   C     C_R   0.905583 0.498546 0.499377 -0.105766
C12   C     C_R   0.499916 0.500220 0.661157 0.896901
C13   C     C_R   0.094882 0.500212 0.499505 -0.106362
C14   C     C_R   0.926784 0.566704 0.545158 -0.355832
C15   C     C_R   0.073831 0.431829 0.453857 -0.367122
C16   C     C_R   0.559462 0.322355 0.499719 0.931395
C17   C     C_R   0.440475 0.677491 0.499616 0.941164
C18   C     C_1   0.807410 0.499337 0.499651 0.170316
C19   C     C_1   0.192839 0.500030 0.499608 0.141735
C20   C     C_R   0.597196 0.219065 0.509189 -0.374334
C21   C     C_R   0.403110 0.780160 0.511080 -0.376661
C22   C     C_R   0.728338 0.069002 0.539517 0.458662
C23   C     C_R   0.617826 0.890651 0.567096 -0.285606
C24   C     C_R   0.281642 0.923956 0.566838 0.452236
C25   C     C_R   0.696508 0.164414 0.514462 0.300649
C26   C     C_R   0.307365 0.832203 0.534694 0.300008
C27   C     C_R   0.531232 0.175226 0.517164 0.410218
C28   C     C_R   0.468471 0.824668 0.507306 0.400563
C29   C     C_R   0.560827 0.083877 0.549875 -0.162370
C30   C     C_R   0.447499 0.911385 0.547757 -0.152796
C31   C     C_R   0.660165 0.027590 0.555095 -0.192031
C32   C     C_R   0.351318 0.965436 0.572020 -0.188680
C33   C     C_R   0.492467 0.044303 0.568330 0.053725
C34   C     C_R   0.398668 0.098264 0.595180 -0.295960
C35   C     C_R   0.519679 0.947654 0.559790 0.058159
C36   C     C_3   0.794136 0.830066 0.668285 0.063542
C37   C     C_3   0.798120 0.896798 0.738908 -0.351717
C38   C     C_3   0.806080 0.850796 0.825415 -0.949407
C39   C     C_3   0.198884 0.205740 0.618765 0.089059
C40   C     C_3   0.201592 0.259083 0.699862 -0.380197
C41   C     C_3   0.165675 0.364756 0.684662 -0.893024
C42   C     C_3   0.540022 0.820015 0.378418 0.098092
C43   C     C_3   0.519012 0.752247 0.317931 -0.333720
C44   C     C_3   0.516562 0.783561 0.226296 -0.979225
C45   C     C_R   0.687431 0.930746 0.573668 0.537982
C46   C     C_3   0.426359 0.188008 0.407856 0.086131
C47   C     C_3   0.445479 0.248896 0.339058 -0.322606
C48   C     C_3   0.426974 0.218662 0.251250 -0.981696
C49   C     C_3   0.207261 0.796539 0.444269 0.138628
C50   C     C_3   0.112372 0.880166 0.431428 -0.343364
C51   C     C_3   0.066600 0.873351 0.347078 -0.970425
C52   C     C_3   0.770235 0.213429 0.407812 0.145739
C53   C     C_3   0.843235 0.123698 0.368603 -0.374613
C54   C     C_3   0.861358 0.138975 0.276007 -0.968894
C55   C     C_3   0.874305 0.042482 0.601908 -0.213943
C56   C     C_R   0.327417 0.059530 0.599348 0.517125
C57   C     C_3   0.169039 0.947607 0.669175 -0.211930
C58   C     C_3   0.612052 0.651933 0.915318 -0.315613
C59   C     C_3   0.336256 0.393182 0.058215 -0.325355
C60   C     C_3   0.001508 0.275612 0.443461 -0.334347
C61   C     C_3   0.016661 0.716900 0.541884 -0.270053
C62   C     C_R   0.562220 0.536414 0.956740 0.565116
C63   C     C_R   0.422876 0.489074 0.043881 0.570747
C64   C     C_R   0.494090 0.512185 0.913110 -0.027555
H1    H     H_    0.640780 0.815129 0.572242 0.196802
H2    H     H_    0.732462 0.962118 0.737556 0.212100
H3    H     H_    0.742397 0.832799 0.837637 0.259232
H4    H     H_    0.809835 0.900320 0.875095 0.264889
H5    H     H_    0.871974 0.785867 0.828838 0.273112
H6    H     H_    0.122528 0.225299 0.600955 0.159756
H7    H     H_    0.232526 0.227747 0.564378 0.130065
H8    H     H_    0.155648 0.244556 0.748375 0.231409
H9    H     H_    0.275773 0.234567 0.725106 0.217851
H10   H     H_    0.214226 0.380814 0.640070 0.273352
H11   H     H_    0.164899 0.401532 0.745184 0.266271
H12   H     H_    0.383184 0.169291 0.616516 0.189951
H13   H     H_    0.091752 0.390950 0.658581 0.263615
H14   H     H_    0.608342 0.826068 0.359007 0.167477
H15   H     H_    0.483304 0.892138 0.372795 0.111103
H16   H     H_    0.575349 0.680672 0.324870 0.249159
H17   H     H_    0.448568 0.748845 0.333771 0.189502
H18   H     H_    0.459638 0.854436 0.217511 0.263915
H19   H     H_    0.501009 0.733032 0.184427 0.270236
H20   H     H_    0.586952 0.785555 0.207954 0.265762
H21   H     H_    0.350794 0.193796 0.402330 0.151187
H22   H     H_    0.471946 0.112335 0.397255 0.123674
H23   H     H_    0.615947 0.550371 0.079413 0.184313
H24   H     H_    0.398135 0.323737 0.349151 0.252087
H25   H     H_    0.521271 0.242706 0.342385 0.190161
H26   H     H_    0.473373 0.143860 0.239750 0.261543
H27   H     H_    0.443726 0.262674 0.203077 0.277008
H28   H     H_    0.350547 0.227773 0.244671 0.263684
H29   H     H_    0.196172 0.730243 0.431846 0.164173
H30   H     H_    0.260786 0.799011 0.396392 0.096689
H31   H     H_    0.061734 0.882428 0.483145 0.247065
H32   H     H_    0.125456 0.946644 0.433080 0.236951
H33   H     H_    0.114585 0.874346 0.294138 0.266700
H34   H     H_    0.369693 0.476349 0.919409 0.174606
H35   H     H_    0.997523 0.933953 0.340209 0.279479
H36   H     H_    0.052173 0.807636 0.344033 0.264943
H37   H     H_    0.795089 0.272068 0.397216 0.190531
H38   H     H_    0.700007 0.233551 0.374593 0.097553
H39   H     H_    0.911957 0.101995 0.403904 0.238427
H40   H     H_    0.815754 0.066136 0.372716 0.239876
H41   H     H_    0.793516 0.159809 0.239508 0.268647
H42   H     H_    0.913645 0.072850 0.248813 0.269705
H43   H     H_    0.891202 0.194688 0.270084 0.278323
H44   H     H_    0.830144 0.070595 0.659524 0.123871
H45   H     H_    0.129985 0.380054 0.417293 0.174215
H46   H     H_    0.901224 0.095095 0.576272 0.203828
H47   H     H_    0.938158 0.980756 0.621419 0.159429
H48   H     H_    0.220373 0.954990 0.716580 0.162190
H49   H     H_    0.171061 0.874525 0.669420 0.178816
H50   H     H_    0.095975 0.994764 0.688914 0.161515
H51   H     H_    0.616435 0.676746 0.980610 0.161260
H52   H     H_    0.540246 0.692206 0.887520 0.155010
H53   H     H_    0.666057 0.666783 0.876553 0.195125
H54   H     H_    0.404118 0.333976 0.041082 0.152014
H55   H     H_    0.286368 0.413859 0.003645 0.172058
H56   H     H_    0.870649 0.619331 0.581060 0.173451
H57   H     H_    0.300875 0.367192 0.108168 0.200493
H58   H     H_    0.972493 0.276060 0.508198 0.167928
H59   H     H_    0.081114 0.250231 0.444739 0.153217
H60   H     H_    0.982676 0.224609 0.405293 0.201910
H61   H     H_    0.029217 0.771763 0.580003 0.208756
H62   H     H_    0.940307 0.745520 0.521601 0.202378
H63   H     H_    0.063932 0.702292 0.485486 0.152100
H64   H     H_    0.863320 0.768718 0.667916 0.192278
H65   H     H_    0.738448 0.800997 0.682542 0.117013
H66   H     H_    0.861526 0.915781 0.729316 0.222708
N1    N     N_1   0.270550 0.499970 0.500020 -0.085577
N2    N     N_1   0.729450 0.500030 0.499980 -0.084296
O1    O     O_R   0.573650 0.500000 0.378020 -0.623422
O2    O     O_3   0.237172 0.107810 0.634716 -0.610387
O3    O     O_3   0.552749 0.783588 0.461636 -0.622951
O4    O     O_3   0.437536 0.221004 0.489243 -0.624375
O5    O     O_3   0.238245 0.793468 0.529091 -0.612526
O6    O     O_3   0.763623 0.203354 0.496281 -0.626189
O7    O     O_3   0.825441 0.013120 0.538779 -0.569545
O8    O     O_3   0.186768 0.974618 0.587735 -0.575262
O9    O     O_3   0.633278 0.554320 0.913438 -0.591127
O10   O     O_3   0.352725 0.471617 0.090114 -0.594669
O11   O     O_3   0.960277 0.364864 0.405325 -0.607424
O12   O     O_R   0.426350 0.500000 0.621980 -0.602922
O13   O     O_3   0.038060 0.635708 0.591959 -0.617474
O14   O     O_R   0.426300 0.500040 0.378020 -0.619054
O15   O     O_R   0.573700 0.499960 0.621980 -0.603217
O16   O     O_R   0.615760 0.367720 0.500000 -0.585125
O17   O     O_R   0.384240 0.632280 0.500000 -0.587846
O18   O     O_R   0.468410 0.367760 0.500000 -0.561443
O19   O     O_R   0.531590 0.632240 0.500000 -0.562384
O20   O     O_3   0.782778 0.874055 0.588011 -0.614050
Zn1   Zn    Zn3+2 0.598380 0.499970 0.500000 0.995065
Zn2   Zn    Zn3+2 0.401620 0.500030 0.500000 0.990490

loop_
_geom_bond_atom_site_label_1
_geom_bond_atom_site_label_2
_ccdc_geom_bond_type
C59   H57   S    
C21   C26   A    
C11   C18   S    
C34   C56   A    
C23   C45   A    
C49   O5    S    
C27   C29   A    
C28   O3    S    
C15   H45   S    
C18   N2    T    
C58   O9    S    
C43   C44   S    
C44   H19   S    
C50   H32   S    
C9    O11   S    
C51   H33   S    
C4    H23   S    
C2    C6    S    
C53   C54   S    
C24   O8    S    
C52   H38   S    
C54   H43   S    
O1    Zn1   S    
C27   O4    S    
C12   O15   A    
C36   C37   S    
C24   C26   A    
C44   H18   S    
C60   O11   S    
C41   H13   S    
C11   C14   A    
C50   H31   S    
C57   H48   S    
C20   C25   A    
C53   H40   S    
C29   C33   A    
C55   O7    S    
C37   H66   S    
C19   N1    T    
C60   H60   S    
C61   O13   S    
C62   C64   A    
C41   H10   S    
C63   O10   S    
C59   O10   S    
C48   H27   S    
C52   O6    S    
C61   H62   S    
C17   O19   A    
C49   H30   S    
C8    C12   S    
C46   H21   S    
C26   O5    S    
C38   H5    S    
C42   H15   S    
C48   H26   S    
C58   H52   S    
C47   H25   S    
C1    O14   A    
C36   H64   S    
C1    O1    A    
C50   C51   S    
C51   H35   S    
C52   H37   S    
C22   C31   A    
C54   H42   S    
C10   C14   A    
C39   C40   S    
C13   C19   S    
C36   O20   S    
C57   H49   S    
C43   H16   S    
C3    C64   A    
C22   O7    S    
C22   C25   A    
C58   H53   S    
C17   C21   S    
C12   O12   A    
C5    C64   S    
C42   O3    S    
C60   H59   S    
C2    C4    A    
O17   Zn2   S    
C24   C32   A    
C37   C38   S    
C40   H9    S    
C41   H11   S    
C47   C48   S    
O14   Zn2   S    
C16   C20   S    
C37   H2    S    
N2    Zn1   S    
C61   H63   S    
C60   H58   S    
C9    C11   A    
C57   H50   S    
C30   C35   A    
C40   C41   S    
C21   C28   A    
C38   H4    S    
C42   H14   S    
C59   H54   S    
C23   C35   A    
C13   C15   A    
C55   H46   S    
C48   H28   S    
C58   H51   S    
C43   H17   S    
C61   H61   S    
C42   C43   S    
C62   O9    S    
C31   C45   A    
C52   C53   S    
C51   H36   S    
C46   C47   S    
C59   H55   S    
C40   H8    S    
C54   H41   S    
C55   H47   S    
C1    C7    S    
N1    Zn2   S    
C17   O17   A    
C44   H20   S    
C10   C13   A    
C5    C8    T    
C56   O2    S    
C6    C7    T    
C20   C27   A    
C3    C63   A    
C14   H56   S    
C55   H44   S    
C16   O16   A    
C4    C62   A    
C47   H24   S    
C45   O20   S    
C28   C30   A    
C25   O6    S    
C9    C15   A    
C2    C63   A    
C29   C31   A    
C36   H65   S    
C30   C32   A    
C3    H34   S    
C23   H1    S    
C53   H39   S    
C33   C35   A    
C39   H6    S    
C33   C34   A    
O19   Zn1   S    
O12   Zn2   S    
O15   Zn1   S    
C10   O13   S    
C46   O4    S    
C38   H3    S    
C57   O8    S    
C49   C50   S    
O18   Zn2   S    
C39   H7    S    
C16   O18   A    
C49   H29   S    
O16   Zn1   S    
C32   C56   A    
C34   H12   S    
C46   H22   S    
C39   O2    S    
