data_mof_unit_48589.cif
_audit_creation_date              2012-12-10T17:35:51-0500
_audit_creation_method            fapswitch 2.2
_symmetry_space_group_name_H-M    P1
_symmetry_Int_Tables_number       1
_space_group_crystal_system       triclinic
_cell_length_a                    10.517865
_cell_length_b                    12.051306
_cell_length_c                    12.908038
_cell_angle_alpha                 93.052102
_cell_angle_beta                  92.13569
_cell_angle_gamma                 84.943267
_cell_volume                      1626.59290947

loop_
_atom_site_label
_atom_site_type_symbol
_atom_type_description
_atom_site_fract_x
_atom_site_fract_y
_atom_site_fract_z
_atom_type_partial_charge
C1    C     C_R   0.493948 0.522250 0.700246 0.928834
C2    C     C_R   0.611479 0.156448 0.587206 0.321711
C3    C     C_R   0.554031 0.856216 0.541134 -0.027326
C4    C     C_R   0.445969 0.143784 0.458866 -0.027330
C5    C     C_R   0.544756 0.973863 0.534602 0.053794
C6    C     C_R   0.455244 0.026137 0.465398 0.053797
C7    C     C_R   0.742703 0.499550 0.503824 0.949982
C8    C     C_R   0.257297 0.500450 0.496177 0.949959
C9    C     C_3   0.974351 0.414940 0.558807 -0.290479
C10   C     C_3   0.025650 0.585059 0.441198 -0.290299
C11   C     C_3   0.048068 0.515383 0.594703 0.548377
C12   C     C_R   0.506045 0.477750 0.299753 0.928818
C13   C     C_3   0.951934 0.484618 0.405303 0.548320
C14   C     C_3   0.122151 0.501747 0.495252 -0.112532
C15   C     C_3   0.877849 0.498253 0.504753 -0.112528
C16   C     C_3   0.049489 0.400943 0.457398 -0.291768
C17   C     C_3   0.950513 0.599057 0.542608 -0.291526
C18   C     C_R   0.513933 0.463585 0.188531 -0.102956
C19   C     C_R   0.486032 0.536412 0.811467 -0.103050
C20   C     C_R   0.430186 0.642025 0.969596 -0.236831
C21   C     C_R   0.569745 0.357968 0.030400 -0.236800
C22   C     C_R   0.434565 0.636448 0.862220 0.167467
C23   C     C_R   0.529351 0.444391 0.868340 -0.279806
C24   C     C_R   0.565382 0.363548 0.137776 0.167351
C25   C     C_3   0.021181 0.538824 0.770948 0.101785
C26   C     C_3   0.088475 0.563667 0.874875 -0.764419
C27   C     C_3   0.978895 0.460840 0.229094 0.101891
C28   C     C_3   0.911607 0.436161 0.125122 -0.765081
C29   C     C_R   0.470597 0.555603 0.131657 -0.279697
C30   C     C_R   0.524756 0.450267 0.974569 0.132629
C31   C     C_R   0.475177 0.549726 0.025427 0.132603
C32   C     C_R   0.377193 0.959682 0.404458 -0.294622
C33   C     C_R   0.622806 0.040318 0.595543 -0.294621
C34   C     C_R   0.388520 0.843553 0.412795 0.321709
H1    H     H_    0.954198 0.346523 0.607766 0.197370
H2    H     H_    0.622807 0.815811 0.594572 0.134646
H3    H     H_    0.307185 0.997686 0.350439 0.173051
H4    H     H_    0.692813 0.002315 0.649562 0.173060
H5    H     H_    0.977702 0.458220 0.774790 0.151270
H6    H     H_    0.944460 0.607052 0.758343 0.137587
H7    H     H_    0.131771 0.644360 0.873941 0.275737
H8    H     H_    0.018479 0.569530 0.937604 0.201248
H9    H     H_    0.164682 0.496321 0.891015 0.257863
H10   H     H_    0.055280 0.392387 0.241780 0.137712
H11   H     H_    0.022765 0.541224 0.225247 0.151257
H12   H     H_    0.045796 0.653466 0.392224 0.197425
H13   H     H_    0.835853 0.503781 0.108834 0.257826
H14   H     H_    0.981649 0.429842 0.062438 0.201318
H15   H     H_    0.867806 0.355780 0.126118 0.275929
H16   H     H_    0.093357 0.321713 0.421282 0.168447
H17   H     H_    0.906655 0.678282 0.578741 0.168503
H18   H     H_    0.433155 0.632930 0.169754 0.200767
H19   H     H_    0.566801 0.367066 0.830243 0.200790
H20   H     H_    0.390495 0.718059 0.009355 0.178626
H21   H     H_    0.609430 0.281934 0.990640 0.178618
H22   H     H_    0.377193 0.184189 0.405428 0.134638
I1    I     I_    0.646495 0.219017 0.212552 -0.320545
I2    I     I_    0.353459 0.780982 0.787441 -0.320456
I3    I     I_    0.738890 0.242180 0.685246 -0.420967
I4    I     I_    0.261103 0.757822 0.314760 -0.420872
N1    N     N_R   0.523490 0.207800 0.519350 -0.113124
N2    N     N_R   0.476510 0.792200 0.480650 -0.113128
O1    O     O_R   0.506270 0.421700 0.658830 -0.608951
O2    O     O_3   0.889003 0.467722 0.308012 -0.600002
O3    O     O_R   0.493730 0.578300 0.341170 -0.608936
O4    O     O_R   0.491200 0.609310 0.646410 -0.604590
O5    O     O_R   0.508800 0.390690 0.353590 -0.604593
O6    O     O_R   0.693580 0.406210 0.506230 -0.583377
O7    O     O_R   0.306420 0.593790 0.493770 -0.583377
O8    O     O_R   0.678510 0.593830 0.493810 -0.632666
O9    O     O_R   0.321490 0.406170 0.506190 -0.632684
O10   O     O_3   0.111008 0.532326 0.691982 -0.599997
Zn1   Zn    Zn3+2 0.510060 0.374730 0.508290 1.003596
Zn2   Zn    Zn3+2 0.489940 0.625270 0.491710 1.003624

loop_
_geom_bond_atom_site_label_1
_geom_bond_atom_site_label_2
_ccdc_geom_bond_type
C6    C32   A    
C28   H13   S    
C17   H17   S    
C7    O8    A    
C21   H21   S    
C8    O7    A    
C18   C24   A    
C9    C16   S    
C16   H16   S    
C25   H6    S    
C30   C31   A    
C11   C14   S    
C10   C17   S    
O4    Zn2   S    
C34   N2    A    
C7    O6    A    
C27   H10   S    
C28   H14   S    
C24   I1    S    
C5    C33   A    
O8    Zn2   S    
O5    Zn1   S    
C2    N1    A    
C27   H11   S    
C7    C15   S    
C4    H22   S    
C34   I4    S    
C1    O1    A    
C26   H9    S    
C23   H19   S    
C12   O5    A    
C1    C19   S    
C23   C30   A    
C19   C22   A    
C20   H20   S    
C10   C14   S    
C25   O10   S    
C2    I3    S    
O1    Zn1   S    
N1    Zn1   S    
O6    Zn1   S    
C4    N1    A    
O3    Zn2   S    
C32   C34   A    
C19   C23   A    
C10   H12   S    
C28   H15   S    
C1    O4    A    
O7    Zn2   S    
C18   C29   A    
C32   H3    S    
C9    C11   S    
C2    C33   A    
C4    C6    A    
C20   C22   A    
C13   C15   S    
C14   C16   S    
C13   C16   S    
C26   H8    S    
O9    Zn1   S    
C21   C30   A    
C3    N2    A    
C15   C17   S    
C11   C17   S    
C8    O9    A    
C8    C14   S    
C11   O10   S    
C3    C5    A    
C10   C13   S    
C22   I2    S    
C12   O3    A    
C33   H4    S    
C25   C26   S    
C29   C31   A    
C25   H5    S    
C5    C6    A    
C13   O2    S    
C3    H2    S    
C9    C15   S    
C27   O2    S    
C21   C24   A    
C12   C18   S    
C27   C28   S    
C9    H1    S    
N2    Zn2   S    
C20   C31   A    
C26   H7    S    
C29   H18   S    
