data_mof_unit_22587.cif
_audit_creation_date              2012-12-10T17:18:54-0500
_audit_creation_method            fapswitch 2.2
_symmetry_space_group_name_H-M    P1
_symmetry_Int_Tables_number       1
_space_group_crystal_system       triclinic
_cell_length_a                    9.58705
_cell_length_b                    10.877399
_cell_length_c                    13.582239
_cell_angle_alpha                 92.937051
_cell_angle_beta                  73.185342
_cell_angle_gamma                 91.684163
_cell_volume                      1353.89032223

loop_
_atom_site_label
_atom_site_type_symbol
_atom_type_description
_atom_site_fract_x
_atom_site_fract_y
_atom_site_fract_z
_atom_type_partial_charge
C1    C     C_R   0.504685 0.736614 0.493206 0.825900
C2    C     C_R   0.446520 0.464349 0.974832 0.079658
C3    C     C_R   0.493247 0.464133 0.865457 0.102710
C4    C     C_R   0.552293 0.481870 0.029952 0.077750
C5    C     C_R   0.701764 0.496123 0.975366 0.173075
C6    C     C_R   0.746863 0.479799 0.869487 -0.261726
C7    C     C_R   0.645638 0.457857 0.816228 -0.116058
C8    C     C_R   0.514874 0.487084 0.137652 -0.220221
C9    C     C_R   0.767195 0.523090 0.133860 -0.204751
C10   C     C_R   0.385806 0.467510 0.810408 -0.070137
C11   C     C_R   0.341807 0.865239 0.379134 -0.132231
C12   C     C_R   0.423963 0.490661 0.698918 0.825210
C13   C     C_R   0.222183 0.916421 0.359267 -0.125791
C14   C     C_R   0.173485 0.030538 0.404093 -0.098179
C15   C     C_R   0.253851 0.099490 0.458860 -0.123970
C16   C     C_R   0.385295 0.054647 0.470514 0.047213
C17   C     C_R   0.414966 0.929320 0.443462 0.090859
C18   C     C_R   0.511140 0.869809 0.485695 -0.180716
C19   C     C_R   0.593804 0.937441 0.539195 -0.282237
C20   C     C_R   0.581249 0.064408 0.553861 0.367666
C21   C     C_R   0.483507 0.126224 0.513073 -0.227535
C22   C     C_R   0.910562 0.346785 0.355236 -0.207568
C23   C     C_R   0.494629 0.261895 0.505852 0.847464
C24   C     C_R   0.010528 0.277457 0.280152 -0.374626
C25   C     C_R   0.157146 0.276690 0.278948 0.477814
C26   C     C_R   0.197662 0.346451 0.355420 -0.254193
C27   C     C_R   0.101275 0.424911 0.428568 0.124559
C28   C     C_R   0.952130 0.425146 0.428450 0.261487
C29   C     C_R   0.900750 0.571903 0.567696 -0.064773
C30   C     C_R   0.048699 0.571732 0.567777 -0.038244
C31   C     C_R   0.577531 0.501770 0.301127 0.772030
C32   C     C_R   0.806469 0.521247 0.027283 -0.195346
C33   C     C_R   0.621464 0.503771 0.189217 -0.038648
C34   C     C_R   0.238626 0.448377 0.863589 -0.178294
C35   C     C_R   0.196196 0.431831 0.968734 -0.170558
C36   C     C_R   0.296643 0.444530 0.024464 -0.161396
Cu1   Cu    Cu3+1 0.359340 0.500010 0.500010 0.939164
Cu2   Cu    Cu3+1 0.640660 0.499990 0.499990 0.973772
H1    H     H_    0.850477 0.539593 0.172704 0.159577
H2    H     H_    0.374707 0.774481 0.345522 0.144685
H3    H     H_    0.163251 0.865074 0.313244 0.126964
H4    H     H_    0.073492 0.065977 0.395811 0.124678
H5    H     H_    0.204108 0.182575 0.497804 0.173549
H6    H     H_    0.824739 0.630884 0.623136 0.138297
H7    H     H_    0.801479 0.333460 0.353045 0.219467
H8    H     H_    0.969720 0.222631 0.225483 0.160190
H9    H     H_    0.305899 0.331257 0.356685 0.226891
H10   H     H_    0.861909 0.479892 0.827496 0.147556
H11   H     H_    0.083224 0.630517 0.623315 0.140529
H12   H     H_    0.918763 0.538913 0.984846 0.133336
H13   H     H_    0.403552 0.477803 0.183474 0.158645
H14   H     H_    0.155788 0.444329 0.823567 0.153625
H15   H     H_    0.252838 0.435235 0.106091 0.145351
H16   H     H_    0.083859 0.410590 0.008441 0.143611
H17   H     H_    0.694149 0.429078 0.737367 0.241437
H18   H     H_    0.662938 0.889676 0.574750 0.200145
N1    N     N_R   0.852480 0.498790 0.499000 -0.181158
N2    N     N_R   0.148360 0.498710 0.498970 -0.189967
O1    O     O_R   0.381190 0.680360 0.500010 -0.579667
O2    O     O_R   0.618760 0.680340 0.500000 -0.585536
O3    O     O_R   0.323240 0.499990 0.650990 -0.585728
O4    O     O_R   0.560820 0.499960 0.650980 -0.586142
O5    O     O_R   0.381240 0.319660 0.500000 -0.621131
O6    O     O_R   0.618810 0.319640 0.499990 -0.537140
O7    O     O_R   0.439180 0.500040 0.349020 -0.614299
O8    O     O_R   0.676760 0.500010 0.349010 -0.613041
S1    S     S_3+6 0.665291 0.137255 0.642443 0.002694
O9    O     O_2   0.558052 0.223056 0.713542 -0.295110
O10   O     O_2   0.708550 0.043915 0.705683 -0.292166
O11   O     O_3   0.814739 0.217293 0.580642 -0.516320
H19   H     H_    0.876151 0.156667 0.531321 0.324062
O12   O     O_3   0.266943 0.208346 0.209084 -0.579080
C37   C     C_3   0.218496 0.132739 0.137770 -0.270061
H20   H     H_    0.175145 0.188724 0.087307 0.168134
H21   H     H_    0.137322 0.062995 0.177534 0.148398
H22   H     H_    0.313188 0.081884 0.087352 0.205594

loop_
_geom_bond_atom_site_label_1
_geom_bond_atom_site_label_2
_ccdc_geom_bond_type
C19   H18   S    
C31   O8    A    
C16   C21   A    
C37   H20   S    
C20   S1    S    
C35   C36   A    
C7    H17   S    
C4    C8    A    
C13   H3    S    
C28   N1    A    
C1    C18   S    
Cu1   Cu2   S    
C6    H10   S    
C34   C35   A    
C3    C7    A    
C1    O1    A    
C5    C6    A    
C15   C16   A    
C9    H1    S    
C18   C19   A    
C36   H15   S    
C9    C32   A    
Cu2   O8    S    
C16   C17   A    
Cu1   O7    S    
C31   C33   S    
O11   H19   S    
Cu1   N2    S    
C14   H4    S    
C5    C32   A    
C23   O5    A    
C22   C28   A    
C13   C14   A    
C35   H16   S    
C9    C33   A    
C37   H21   S    
Cu1   O5    S    
Cu2   O6    S    
S1    O9    D    
C24   C25   A    
C1    O2    A    
C4    C5    A    
C25   C26   A    
S1    O10   D    
C2    C4    A    
C29   C30   A    
Cu2   N1    S    
C12   O4    A    
C17   C18   A    
C26   C27   A    
C10   C34   A    
C25   O12   S    
C8    H13   S    
C32   H12   S    
Cu1   O1    S    
C10   C12   S    
C26   H9    S    
Cu2   O2    S    
C23   O6    A    
C30   H11   S    
C29   N1    A    
C21   C23   S    
C29   H6    S    
C37   H22   S    
C22   C24   A    
C2    C36   A    
C31   O7    A    
C11   C17   A    
O12   C37   S    
C27   N2    A    
Cu1   O3    S    
C6    C7    A    
C34   H14   S    
S1    O11   S    
C24   H8    S    
C19   C20   A    
C2    C3    A    
C15   H5    S    
C3    C10   A    
C12   O3    A    
C11   C13   A    
C30   N2    A    
C8    C33   A    
C11   H2    S    
C22   H7    S    
C20   C21   A    
C27   C28   A    
C14   C15   A    
Cu2   O4    S    
