data_mof_unit_7380.cif
_audit_creation_date              2012-12-10T16:59:59-0500
_audit_creation_method            fapswitch 2.2
_symmetry_space_group_name_H-M    P1
_symmetry_Int_Tables_number       1
_space_group_crystal_system       triclinic
_cell_length_a                    14.831644
_cell_length_b                    15.534493
_cell_length_c                    10.132881
_cell_angle_alpha                 90.134388
_cell_angle_beta                  88.617837
_cell_angle_gamma                 90.23926
_cell_volume                      2333.93125422

loop_
_atom_site_label
_atom_site_type_symbol
_atom_type_description
_atom_site_fract_x
_atom_site_fract_y
_atom_site_fract_z
_atom_type_partial_charge
C1    C     C_R   0.381328 0.881060 0.500470 0.920307
C2    C     C_R   0.382165 0.119747 0.501621 0.914202
C3    C     C_R   0.881289 0.381099 0.500484 0.919599
C4    C     C_R   0.882160 0.619744 0.501621 0.903021
C5    C     C_R   0.624602 0.111561 0.499141 0.958082
C6    C     C_R   0.624632 0.889137 0.498314 0.965394
C7    C     C_R   0.124619 0.611545 0.499145 0.957224
C8    C     C_R   0.124581 0.389085 0.498317 0.960802
C9    C     C_2   0.730060 0.794811 0.396323 -0.144311
C10   C     C_2   0.738419 0.197987 0.394858 -0.027303
C11   C     C_2   0.229778 0.294589 0.396347 -0.063026
C12   C     C_2   0.238705 0.697700 0.394754 -0.027423
C13   C     C_2   0.710984 0.850153 0.491846 -0.186826
C14   C     C_2   0.711053 0.151928 0.497660 -0.240924
C15   C     C_2   0.210852 0.349999 0.491828 -0.206325
C16   C     C_2   0.211053 0.651962 0.497754 -0.244764
C17   C     C_2   0.309038 0.243020 0.407479 0.260427
C18   C     C_2   0.315829 0.752400 0.410958 0.275224
C19   C     C_2   0.809314 0.743201 0.407562 0.227081
C20   C     C_2   0.815623 0.252558 0.410953 0.270901
C21   C     C_2   0.313495 0.184818 0.506834 0.101098
C22   C     C_2   0.310325 0.818286 0.498725 0.063284
C23   C     C_2   0.813566 0.684895 0.506813 0.132205
C24   C     C_2   0.810243 0.318378 0.498802 0.065839
C25   C     C_2   0.547081 0.050555 0.924829 -0.032262
C26   C     C_2   0.047334 0.550343 0.924837 -0.029742
C27   C     C_2   0.563980 0.028537 0.065112 0.439641
C28   C     C_2   0.064145 0.528229 0.065119 0.434422
H1    H     H_    0.683962 0.781227 0.317022 0.212335
H2    H     H_    0.697695 0.205997 0.308495 0.228514
H3    H     H_    0.183591 0.280972 0.317169 0.210955
H4    H     H_    0.198425 0.705135 0.307802 0.230837
H5    H     H_    0.759353 0.865596 0.567111 0.191906
H6    H     H_    0.751772 0.147563 0.585291 0.186855
H7    H     H_    0.259302 0.365465 0.566975 0.189715
H8    H     H_    0.251542 0.647903 0.585651 0.187109
H9    H     H_    0.581124 0.105554 0.880211 0.197423
H10   H     H_    0.081620 0.605212 0.880235 0.198141
H11   H     H_    0.490115 0.939481 0.889754 0.238679
H12   H     H_    0.989937 0.439494 0.889688 0.239566
N1    N     N_2   0.501330 0.000000 0.852150 -0.176154
N2    N     N_2   0.001330 0.500000 0.852150 -0.176098
N3    N     N_2   0.501360 0.000000 0.147810 -0.000704
N4    N     N_2   0.001360 0.500000 0.147810 0.001213
O1    O     O_R   0.409520 0.909540 0.613040 -0.601110
O2    O     O_R   0.409520 0.090460 0.613040 -0.543359
O3    O     O_R   0.909520 0.409540 0.613040 -0.600399
O4    O     O_R   0.909520 0.590460 0.613040 -0.543188
O5    O     O_R   0.409560 0.909540 0.386900 -0.546598
O6    O     O_R   0.409560 0.090460 0.386900 -0.555252
O7    O     O_R   0.909560 0.409540 0.386900 -0.547203
O8    O     O_R   0.909560 0.590460 0.386900 -0.555600
O9    O     O_R   0.590440 0.090460 0.613100 -0.624792
O10   O     O_R   0.590440 0.909540 0.613100 -0.599304
O11   O     O_R   0.090440 0.590460 0.613100 -0.624119
O12   O     O_R   0.090440 0.409540 0.613100 -0.597967
O13   O     O_R   0.590480 0.090460 0.386960 -0.577268
O14   O     O_R   0.590480 0.909540 0.386960 -0.582674
O15   O     O_R   0.090480 0.590460 0.386960 -0.580612
O16   O     O_R   0.090480 0.409540 0.386960 -0.580680
Zn1   Zn    Zn3+2 0.499970 0.000000 0.650990 1.089619
Zn2   Zn    Zn3+2 0.999970 0.500000 0.650990 1.090872
Zn3   Zn    Zn3+2 0.500030 0.000000 0.349010 1.195955
Zn4   Zn    Zn3+2 0.000030 0.500000 0.349010 1.198590
S1    S     S_3+6 0.397882 0.267373 0.292772 0.090015
O17   O     O_2   0.487907 0.257024 0.355602 -0.283661
O18   O     O_2   0.392150 0.208604 0.175519 -0.215321
O19   O     O_3   0.387077 0.369708 0.241716 -0.477681
H13   H     H_    0.436673 0.378340 0.175794 0.395118
S2    S     S_3+6 0.416049 0.720736 0.324921 0.089034
O20   O     O_2   0.430420 0.775845 0.204633 -0.211129
O21   O     O_2   0.495502 0.729936 0.413137 -0.301685
O22   O     O_3   0.406335 0.617317 0.277503 -0.465587
H14   H     H_    0.463702 0.604255 0.229666 0.397470
S3    S     S_3+6 0.898488 0.767387 0.293153 0.104002
O23   O     O_2   0.988274 0.757075 0.356589 -0.243000
O24   O     O_2   0.893946 0.708346 0.176035 -0.222523
O25   O     O_3   0.889030 0.869696 0.241272 -0.454336
H15   H     H_    0.839444 0.868622 0.177527 0.387035
S4    S     S_3+6 0.915747 0.220809 0.324749 0.091654
O26   O     O_2   0.930116 0.275960 0.204506 -0.210503
O27   O     O_2   0.995272 0.229859 0.412865 -0.302030
O28   O     O_3   0.905853 0.117428 0.277227 -0.457820
H16   H     H_    0.963078 0.104385 0.229005 0.405757
S5    S     S_3+6 0.233712 0.179107 0.643739 0.084672
O29   O     O_2   0.239675 0.258356 0.728360 -0.271795
O30   O     O_2   0.139754 0.170552 0.592841 -0.223901
O31   O     O_3   0.254448 0.095608 0.742810 -0.465934
H17   H     H_    0.209011 0.100051 0.815775 0.409590
S6    S     S_3+6 0.211393 0.842281 0.595792 0.064910
O32   O     O_2   0.129196 0.837635 0.512254 -0.195631
O33   O     O_2   0.200762 0.779506 0.707892 -0.302214
O34   O     O_3   0.218469 0.941467 0.659188 -0.454842
H18   H     H_    0.245724 0.933315 0.746586 0.387656
S7    S     S_3+6 0.733699 0.679192 0.643601 0.084768
O35   O     O_2   0.739692 0.758391 0.728327 -0.275389
O36   O     O_2   0.639765 0.670741 0.592582 -0.223357
O37   O     O_3   0.754305 0.595620 0.742585 -0.468435
H19   H     H_    0.708881 0.600097 0.815562 0.406907
S8    S     S_3+6 0.711450 0.342211 0.596293 0.059359
O38   O     O_2   0.629110 0.337690 0.513021 -0.205183
O39   O     O_2   0.701017 0.279228 0.708148 -0.304163
O40   O     O_3   0.718597 0.441285 0.660076 -0.457641
H20   H     H_    0.746084 0.433020 0.747286 0.386812
S9    S     S_3+6 0.679177 0.035495 0.104587 0.048966
O41   O     O_2   0.707940 0.128211 0.098421 -0.284129
O42   O     O_2   0.700069 0.998596 0.236708 -0.287215
O43   O     O_3   0.738233 0.980912 0.988201 -0.539644
H21   H     H_    0.802235 0.994946 0.004469 0.407284
S10   S     S_3+6 0.179431 0.534552 0.104598 0.067835
O44   O     O_2   0.209098 0.626977 0.097110 -0.283709
O45   O     O_2   0.200006 0.498315 0.237260 -0.260686
O46   O     O_3   0.238058 0.478769 0.989129 -0.519006
H22   H     H_    0.302214 0.487913 0.010570 0.410337
S11   S     S_3+6 0.388345 0.996229 0.099171 0.142488
O47   O     O_2   0.324760 0.003078 0.215972 -0.213972
O48   O     O_2   0.367227 0.068535 0.006559 -0.259311
O49   O     O_3   0.366645 0.901514 0.025349 -0.527470
H23   H     H_    0.303804 0.906182 0.995259 0.389283
S12   S     S_3+6 0.888353 0.496427 0.099115 0.139744
O50   O     O_2   0.824762 0.503321 0.215903 -0.220293
O51   O     O_2   0.867390 0.568801 0.006546 -0.260767
O52   O     O_3   0.866483 0.401766 0.025236 -0.528089
H24   H     H_    0.803539 0.406427 0.995581 0.386308

loop_
_geom_bond_atom_site_label_1
_geom_bond_atom_site_label_2
_ccdc_geom_bond_type
C18   S2    S    
O34   H18   S    
O5    Zn3   S    
S11   O48   D    
O22   H14   S    
C6    O14   A    
S7    O35   D    
N1    Zn1   S    
C8    O12   A    
O3    Zn2   S    
S7    O37   S    
N3    Zn3   S    
O52   H24   S    
H11   N1    S    
S5    O29   D    
C2    O2    A    
S9    O42   D    
O15   Zn4   S    
C4    O8    A    
C5    O9    A    
N4    S12   S    
S11   O47   D    
O11   Zn2   S    
O43   H21   S    
C15   H7    S    
C9    C13   D    
S10   O44   D    
C2    O6    A    
C25   H9    S    
O49   H23   S    
C11   C15   D    
C9    C19   S    
C20   C24   D    
C10   C20   S    
O19   H13   S    
S1    O18   D    
S2    O20   D    
C7    O11   A    
C3    O3    A    
N2    Zn2   S    
S12   O52   S    
C9    H1    S    
N3    S11   S    
S1    O19   S    
H12   N2    S    
C11   H3    S    
C1    C22   S    
C24   S8    S    
C12   H4    S    
O6    Zn3   S    
C3    C24   S    
O9    Zn1   S    
C6    O10   A    
S4    O28   S    
C7    O15   A    
S12   O51   D    
O13   Zn3   S    
S5    O30   D    
S9    O43   S    
C21   S5    S    
C20   S4    S    
O2    Zn1   S    
C12   C16   D    
S4    O27   D    
C10   C14   D    
C25   N1    D    
C4    C23   S    
C3    O7    A    
O25   H15   S    
C26   H10   S    
C28   S10   S    
S2    O22   S    
C28   N4    D    
S8    O40   S    
N4    Zn4   S    
C19   C23   D    
S3    O23   D    
C13   H5    S    
C10   H2    S    
S6    O33   D    
O28   H16   S    
S11   O49   S    
C2    C21   S    
S8    O39   D    
C22   S6    S    
S3    O24   D    
S10   O46   S    
C5    C14   S    
C7    C16   S    
S1    O17   D    
C8    C15   S    
O8    Zn4   S    
O12   Zn2   S    
O4    Zn2   S    
S12   O50   D    
C26   N2    D    
S6    O34   S    
O46   H22   S    
C4    O4    A    
S5    O31   S    
O14   Zn3   S    
C11   C17   S    
C18   C22   D    
C26   C28   S    
O7    Zn4   S    
S4    O26   D    
C14   H6    S    
S7    O36   D    
O10   Zn1   S    
C25   C27   S    
S9    O41   D    
C17   S1    S    
C5    O13   A    
O16   Zn4   S    
C19   S3    S    
C16   H8    S    
C6    C13   S    
C1    O1    A    
S6    O32   D    
O1    Zn1   S    
S8    O38   D    
C23   S7    S    
S3    O25   S    
S10   O45   D    
C27   N3    D    
O31   H17   S    
O37   H19   S    
C12   C18   S    
O40   H20   S    
C27   S9    S    
S2    O21   D    
C1    O5    A    
C8    O16   A    
C17   C21   D    
