data_mof_unit_11760.cif
_audit_creation_date              2012-12-10T17:36:22-0500
_audit_creation_method            fapswitch 2.2
_symmetry_space_group_name_H-M    P1
_symmetry_Int_Tables_number       1
_space_group_crystal_system       triclinic
_cell_length_a                    12.498207
_cell_length_b                    13.232034
_cell_length_c                    15.87891
_cell_angle_alpha                 73.581685
_cell_angle_beta                  101.476175
_cell_angle_gamma                 117.678787
_cell_volume                      2223.58314499

loop_
_atom_site_label
_atom_site_type_symbol
_atom_type_description
_atom_site_fract_x
_atom_site_fract_y
_atom_site_fract_z
_atom_type_partial_charge
C1    C     C_R   0.855142 0.286067 0.506408 0.868369
C2    C     C_3   0.971389 0.371481 0.075243 0.159653
C3    C     C_3   0.995163 0.498803 0.083104 -0.169945
C4    C     C_3   0.126797 0.590730 0.050848 0.660475
C5    C     C_3   0.134164 0.586037 0.951962 0.235850
C6    C     C_1   0.995825 0.499175 0.175755 0.137128
C7    C     C_1   0.003257 0.499411 0.824666 0.226346
C8    C     C_1   0.002546 0.499281 0.749166 -0.075436
C9    C     C_R   0.272751 0.046017 0.435712 -0.077989
C10   C     C_R   0.227421 0.839727 0.489556 -0.110567
C11   C     C_R   0.809582 0.072850 0.553135 0.308523
C12   C     C_R   0.000658 0.499510 0.659434 0.825062
C13   C     C_R   0.722616 0.962642 0.594456 -0.127415
C14   C     C_R   0.600995 0.942865 0.586624 0.363861
C15   C     C_R   0.560591 0.017919 0.519152 -0.051029
C16   C     C_R   0.647703 0.127471 0.478454 -0.131144
C17   C     C_R   0.436529 0.987145 0.491404 0.087939
C18   C     C_R   0.398100 0.072218 0.439264 -0.051045
C19   C     C_R   0.485740 0.176040 0.390584 -0.094862
C20   C     C_R   0.609115 0.199418 0.406807 0.405918
C21   C     C_R   0.350938 0.870561 0.505530 -0.218910
C22   C     C_R   0.188561 0.929437 0.470304 -0.102666
C23   C     C_R   0.144712 0.714212 0.492644 0.828403
C24   C     C_R   0.771540 0.160642 0.508601 -0.137863
C25   C     C_R   0.310900 0.289025 0.621565 0.345743
C26   C     C_R   0.752828 0.640760 0.373326 0.071168
C27   C     C_R   0.643681 0.647735 0.334419 -0.227668
C28   C     C_R   0.536049 0.571642 0.375343 0.425963
C29   C     C_R   0.540835 0.510184 0.462887 -0.058523
C30   C     C_R   0.647040 0.492094 0.495791 0.193085
C31   C     C_R   0.436579 0.455204 0.513854 -0.037358
C32   C     C_R   0.421254 0.353637 0.580198 -0.075339
C33   C     C_R   0.519090 0.323935 0.607348 -0.158961
C34   C     C_R   0.999641 0.500798 0.340607 0.813052
C35   C     C_R   0.632231 0.397201 0.571495 0.359832
C36   C     C_R   0.347538 0.499025 0.501848 0.165455
C37   C     C_R   0.233292 0.340205 0.612889 0.124703
C38   C     C_3   0.961906 0.372226 0.974430 -0.081187
C39   C     C_3   0.904203 0.543970 0.922079 0.199616
C40   C     C_3   0.895528 0.539257 0.023293 0.077669
C41   C     C_1   0.997337 0.500081 0.251147 -0.015741
C42   C     C_3   0.002289 0.500192 0.917113 -0.076667
Cu1   Cu    Cu3+1 0.098280 0.475420 0.519630 1.051256
Cu2   Cu    Cu3+1 0.901720 0.524580 0.480370 1.075051
H1    H     H_    0.380945 0.802439 0.526949 0.218889
H2    H     H_    0.867678 0.322082 0.950787 0.212768
N1    N     N_R   0.246300 0.438200 0.549400 -0.310379
N2    N     N_R   0.754300 0.561180 0.451130 -0.211956
O1    O     O_R   0.972520 0.318130 0.524690 -0.533528
O2    O     O_R   0.806530 0.359650 0.491530 -0.507495
O3    O     O_R   0.083030 0.479240 0.637150 -0.578999
O4    O     O_R   0.917040 0.520750 0.603990 -0.506656
O5    O     O_R   0.193470 0.640350 0.508470 -0.583613
O6    O     O_R   0.027480 0.681870 0.475310 -0.564087
O7    O     O_R   0.082960 0.479250 0.396010 -0.539325
O8    O     O_R   0.916970 0.520760 0.362850 -0.553662
C43   C     C_2   0.858427 0.272543 0.118845 0.970664
O9    O     O_2   0.858894 0.247772 0.199235 -0.536633
O10   O     O_R   0.755830 0.206778 0.069660 -0.748666
H3    H     H_    0.688911 0.143975 0.107792 0.363470
O11   O     O_3   0.024598 0.315417 0.958381 -0.666486
H4    H     H_    0.982106 0.231299 0.986846 0.379669
O12   O     O_3   0.066655 0.344021 0.123014 -0.652122
H5    H     H_    0.133507 0.370817 0.085693 0.401359
O13   O     O_3   0.153855 0.704844 0.058419 -0.679091
H6    H     H_    0.124359 0.747675 0.005023 0.414482
C44   C     C_2   0.070170 0.903805 0.499463 0.936582
O14   O     O_2   0.031689 0.828650 0.565869 -0.528362
O15   O     O_R   0.003761 0.965941 0.453444 -0.680588
H7    H     H_    0.922493 0.935308 0.477421 0.370351
C45   C     C_2   0.451252 0.249599 0.311000 0.962501
O16   O     O_2   0.370817 0.203655 0.257135 -0.550479
O17   O     O_R   0.515450 0.371340 0.295331 -0.700099
H8    H     H_    0.485980 0.411701 0.237836 0.346052
C46   C     C_2   0.232226 0.140325 0.403553 0.910365
O18   O     O_2   0.279514 0.225834 0.436354 -0.611609
O19   O     O_R   0.143768 0.133633 0.333057 -0.638832
H9    H     H_    0.125197 0.204021 0.316267 0.380951
O20   O     O_3   0.931141 0.099804 0.557191 -0.652194
H10   H     H_    0.948624 0.036276 0.597415 0.366152
O21   O     O_3   0.525521 0.852014 0.646947 -0.668658
H11   H     H_    0.466498 0.875851 0.658732 0.357068
C47   C     C_2   0.756507 0.870140 0.651426 0.952555
O22   O     O_2   0.807436 0.829941 0.621412 -0.570667
O23   O     O_R   0.725833 0.825874 0.738685 -0.657694
H12   H     H_    0.750147 0.760627 0.770058 0.361231
O24   O     O_3   0.687978 0.286406 0.346319 -0.652491
H13   H     H_    0.755680 0.267365 0.345780 0.328916
C48   C     C_2   0.151545 0.297412 0.683228 0.981734
O25   O     O_2   0.058105 0.207263 0.685450 -0.543184
O26   O     O_R   0.188415 0.355158 0.752507 -0.702660
H14   H     H_    0.127404 0.316293 0.798666 0.372734
C49   C     C_2   0.511952 0.222970 0.681320 0.882765
O27   O     O_2   0.525854 0.143037 0.668559 -0.577590
O28   O     O_R   0.494118 0.222199 0.765725 -0.683227
H15   H     H_    0.492714 0.149894 0.810617 0.370989
O29   O     O_3   0.274904 0.175747 0.669965 -0.670557
H16   H     H_    0.288505 0.132080 0.634874 0.339981
C50   C     C_2   0.376979 0.620617 0.452164 0.942252
O30   O     O_2   0.309875 0.641314 0.389659 -0.527860
O31   O     O_R   0.487815 0.710862 0.472890 -0.782070
H17   H     H_    0.502462 0.789005 0.431060 0.342410
C51   C     C_2   0.861717 0.712451 0.323481 0.949778
O32   O     O_2   0.870162 0.684874 0.258638 -0.549199
O33   O     O_R   0.946534 0.818945 0.343056 -0.735388
H18   H     H_    0.014406 0.862261 0.302090 0.354742
O34   O     O_3   0.423849 0.544750 0.328317 -0.683444
H19   H     H_    0.433531 0.569299 0.264267 0.354021
C52   C     C_2   0.639282 0.736617 0.253028 0.864509
O35   O     O_2   0.694775 0.757744 0.190150 -0.515414
O36   O     O_R   0.567771 0.794198 0.248152 -0.719435
H20   H     H_    0.570445 0.851714 0.189840 0.359264
O37   O     O_3   0.724792 0.369066 0.610979 -0.674367
H21   H     H_    0.727422 0.358889 0.675667 0.312181
O38   O     O_3   0.946172 0.661598 0.874556 -0.579811
H22   H     H_    0.884264 0.689407 0.873099 0.386489
C53   C     C_2   0.781764 0.475651 0.872844 0.798056
O39   O     O_2   0.712587 0.375384 0.905049 -0.567539
O40   O     O_R   0.749866 0.529421 0.788771 -0.708778
H23   H     H_    0.668602 0.476920 0.762475 0.354988
C54   C     C_2   0.765534 0.468489 0.052682 0.891227
O41   O     O_2   0.743459 0.399369 0.123687 -0.563895
O42   O     O_R   0.673774 0.497438 0.003035 -0.684993
H24   H     H_    0.593011 0.449924 0.030043 0.363287
O43   O     O_3   0.924257 0.653483 0.030289 -0.663710
H25   H     H_    0.919324 0.653117 0.092072 0.376504
C55   C     C_2   0.235419 0.552614 0.946389 0.924696
O44   O     O_2   0.219917 0.484503 0.901917 -0.514590
O45   O     O_R   0.352057 0.612136 0.984392 -0.698786
H26   H     H_    0.412307 0.586229 0.974358 0.361894
O46   O     O_3   0.166268 0.697550 0.894838 -0.670478
H27   H     H_    0.248736 0.751873 0.914679 0.360689
O47   O     O_3   0.215445 0.561306 0.107736 -0.692523
H28   H     H_    0.228625 0.587552 0.163236 0.384854

loop_
_geom_bond_atom_site_label_1
_geom_bond_atom_site_label_2
_ccdc_geom_bond_type
O24   H13   S    
C34   O8    A    
C49   O27   D    
O17   H8    S    
C19   C45   S    
O28   H15   S    
Cu1   Cu2   S    
C3    C6    S    
O21   H11   S    
C2    C43   S    
O42   H24   S    
O19   H9    S    
C10   C22   A    
C40   C54   S    
C26   C27   A    
O31   H17   S    
C30   C35   A    
C23   O6    A    
C30   N2    A    
C28   C29   A    
O45   H26   S    
C53   O40   S    
O23   H12   S    
C4    O13   S    
C9    C22   A    
C43   O10   S    
C28   O34   S    
C15   C16   A    
C20   O24   S    
O29   H16   S    
C11   C24   A    
C36   N1    A    
C18   C19   A    
C7    C42   S    
Cu2   O8    S    
C25   C37   A    
Cu1   O5    S    
C19   C20   A    
C6    C41   T    
O34   H19   S    
C25   O29   S    
C37   N1    A    
C1    O2    A    
C8    C12   S    
C38   O11   S    
Cu2   O4    S    
C25   C32   A    
O10   H3    S    
C49   O28   S    
C13   C14   A    
O15   H7    S    
C34   C41   S    
C12   O4    A    
C23   O5    A    
C39   C42   S    
C21   H1    S    
C10   C21   A    
C54   O42   S    
C44   O14   D    
C7    C8    T    
O26   H14   S    
C45   O17   S    
Cu1   O1    S    
C39   C53   S    
C17   C21   A    
O20   H10   S    
C44   O15   S    
C46   O18   D    
C55   O45   S    
C29   C30   A    
C26   C51   S    
C2    C38   S    
C47   O22   D    
C5    O46   S    
C16   C20   A    
C5    C55   S    
C17   C18   A    
C51   O33   S    
C46   O19   S    
C54   O41   D    
C11   O20   S    
Cu1   O7    S    
C50   O31   S    
C3    C40   S    
C39   O38   S    
O43   H25   S    
C48   O26   S    
C3    C4    S    
C39   C40   S    
C12   O3    A    
C2    O12   S    
C5    C42   S    
O37   H21   S    
Cu2   O2    S    
C15   C17   A    
O36   H20   S    
C47   O23   S    
C31   C36   A    
C31   C32   A    
C4    C5    S    
O46   H27   S    
C33   C49   S    
O40   H23   S    
C38   C42   S    
C55   O44   D    
C26   N2    A    
C10   C23   S    
O33   H18   S    
C13   C47   S    
C50   O30   D    
C37   C48   S    
C32   C33   A    
C52   O36   S    
C2    C3    S    
C45   O16   D    
C29   C31   A    
C52   O35   D    
C11   C13   A    
Cu1   O3    S    
C43   O9    D    
O47   H28   S    
C1    O1    A    
C40   O43   S    
C33   C35   A    
C35   O37   S    
C36   C50   S    
O11   H4    S    
C22   C44   S    
C38   H2    S    
O12   H5    S    
Cu2   O6    S    
C9    C18   A    
C34   O7    A    
C27   C52   S    
C1    C24   S    
C16   C24   A    
O13   H6    S    
C51   O32   D    
C14   C15   A    
C9    C46   S    
C14   O21   S    
O38   H22   S    
C48   O25   D    
C53   O39   D    
Cu1   N1    S    
Cu2   N2    S    
C4    O47   S    
C27   C28   A    
