data_mof_unit_66206.cif
_audit_creation_date              2013-03-05T16:24:11-0500
_audit_creation_method            fapswitch 2.2
_symmetry_space_group_name_H-M    P1
_symmetry_Int_Tables_number       1
_space_group_crystal_system       triclinic
_cell_length_a                    30.595845
_cell_length_b                    30.575139
_cell_length_c                    24.834523
_cell_angle_alpha                 90.14824
_cell_angle_beta                  128.810858
_cell_angle_gamma                 89.990159
_cell_volume                      18102.7334729

loop_
_atom_site_label
_atom_site_type_symbol
_atom_site_description
_atom_site_fract_x
_atom_site_fract_y
_atom_site_fract_z
_atom_type_partial_charge
O1    O     O_R   0.821670 0.769930 0.500000 -0.622480
O2    O     O_R   0.178330 0.769930 0.500000 -0.627337
O3    O     O_R   0.321670 0.269930 0.500000 -0.628346
O4    O     O_R   0.678330 0.269930 0.500000 -0.624564
O5    O     O_R   0.769920 0.821660 0.500020 -0.612054
O6    O     O_R   0.230080 0.821660 0.499980 -0.617559
O7    O     O_R   0.269920 0.321660 0.500020 -0.619932
O8    O     O_R   0.730080 0.321660 0.499980 -0.613011
C1    C     C_R   0.809927 0.809985 0.499752 0.892189
C2    C     C_R   0.189059 0.810098 0.497906 0.893772
C3    C     C_R   0.310835 0.310096 0.501900 0.889491
C4    C     C_R   0.690120 0.309872 0.500094 0.890639
O9    O     O_R   0.724940 0.724130 0.398140 -0.619869
O10   O     O_R   0.275060 0.724130 0.601860 -0.626941
O11   O     O_R   0.224940 0.224130 0.398140 -0.625358
O12   O     O_R   0.775060 0.224130 0.601860 -0.620457
O13   O     O_R   0.673180 0.775850 0.398150 -0.628896
O14   O     O_R   0.326820 0.775850 0.601850 -0.622971
O15   O     O_R   0.173180 0.275850 0.398150 -0.619426
O16   O     O_R   0.826820 0.275850 0.601850 -0.623737
C5    C     C_R   0.682465 0.750119 0.365298 0.869780
C6    C     C_R   0.317771 0.750017 0.634710 0.880498
C7    C     C_R   0.182642 0.250243 0.365385 0.876830
C8    C     C_R   0.817451 0.250237 0.634616 0.869789
Zn1   Zn    Zn3+2 0.784540 0.715450 0.500000 0.960268
Zn2   Zn    Zn3+2 0.215460 0.715450 0.500000 0.941369
Zn3   Zn    Zn3+2 0.284540 0.215450 0.500000 0.948657
Zn4   Zn    Zn3+2 0.715460 0.215450 0.500000 0.959557
Zn5   Zn    Zn3+2 0.715430 0.784520 0.500010 0.965850
Zn6   Zn    Zn3+2 0.284570 0.784520 0.499990 0.959065
Zn7   Zn    Zn3+2 0.215430 0.284520 0.500010 0.960487
Zn8   Zn    Zn3+2 0.784570 0.284520 0.499990 0.972047
O17   O     O_R   0.730060 0.678320 0.499990 -0.617397
O18   O     O_R   0.269940 0.678320 0.500010 -0.620054
O19   O     O_R   0.230060 0.178320 0.499990 -0.620269
O20   O     O_R   0.769940 0.178320 0.500010 -0.617833
O21   O     O_R   0.678300 0.730040 0.500010 -0.623348
O22   O     O_R   0.321700 0.730040 0.499990 -0.620600
O23   O     O_R   0.178300 0.230040 0.500010 -0.619308
O24   O     O_R   0.821700 0.230040 0.499990 -0.623381
O25   O     O_R   0.826790 0.724120 0.601860 -0.617521
O26   O     O_R   0.173210 0.724120 0.398140 -0.616465
O27   O     O_R   0.326790 0.224120 0.601860 -0.609339
O28   O     O_R   0.673210 0.224120 0.398140 -0.620110
O29   O     O_R   0.775040 0.775850 0.601880 -0.615708
O30   O     O_R   0.224960 0.775850 0.398120 -0.621418
O31   O     O_R   0.275040 0.275850 0.601880 -0.622776
O32   O     O_R   0.724960 0.275850 0.398120 -0.615030
C9    C     C_R   0.690039 0.690043 0.500018 0.891984
C10   C     C_R   0.310095 0.689992 0.500304 0.894278
C11   C     C_R   0.189920 0.189991 0.499718 0.893527
C12   C     C_R   0.810041 0.190043 0.500105 0.890302
C13   C     C_R   0.818127 0.750335 0.634891 0.869277
C14   C     C_R   0.181240 0.750978 0.365359 0.877575
C15   C     C_R   0.318486 0.250902 0.634598 0.870270
C16   C     C_R   0.681638 0.250640 0.365399 0.873022
C17   C     C_R   0.600674 0.781588 0.254445 -0.187100
C18   C     C_R   0.402768 0.779059 0.745564 -0.176132
C19   C     C_R   0.113630 0.289376 0.255859 -0.179450
C20   C     C_R   0.888764 0.288089 0.745375 -0.197219
H1    H     H_    0.595712 0.804913 0.283186 0.163943
H2    H     H_    0.409172 0.800962 0.716824 0.162848
H3    H     H_    0.118211 0.317449 0.285795 0.157229
H4    H     H_    0.885787 0.316249 0.716786 0.167300
C21   C     C_R   0.563569 0.782836 0.182285 0.210968
C22   C     C_R   0.440537 0.780073 0.817714 0.208920
C23   C     C_R   0.077189 0.291699 0.183697 0.209976
C24   C     C_R   0.925718 0.289365 0.817519 0.216493
C25   C     C_R   0.570470 0.752390 0.145122 0.073769
C26   C     C_R   0.431799 0.751523 0.854932 0.076529
C27   C     C_R   0.071425 0.254615 0.145011 0.068236
C28   C     C_R   0.929137 0.252563 0.854301 0.087933
C29   C     C_R   0.613402 0.721178 0.180714 -0.202622
C30   C     C_R   0.386594 0.722113 0.819378 -0.200228
C31   C     C_R   0.103653 0.217037 0.180217 -0.192648
C32   C     C_R   0.896408 0.215411 0.818856 -0.203837
H5    H     H_    0.619108 0.697666 0.152865 0.161400
H6    H     H_    0.379512 0.700014 0.847278 0.157852
H7    H     H_    0.100223 0.188276 0.152221 0.164393
H8    H     H_    0.898909 0.187145 0.846916 0.156329
C33   C     C_R   0.650086 0.720436 0.252432 -0.188741
C34   C     C_R   0.349314 0.721543 0.747643 -0.195609
C35   C     C_R   0.140337 0.215648 0.251935 -0.195388
C36   C     C_R   0.859432 0.214740 0.747079 -0.186054
H9    H     H_    0.683110 0.696168 0.278606 0.169321
H10   H     H_    0.314455 0.698788 0.721499 0.165819
H11   H     H_    0.164288 0.186154 0.277606 0.162063
H12   H     H_    0.834304 0.185742 0.720570 0.166216
C37   C     C_R   0.644044 0.750695 0.289715 -0.087393
C38   C     C_R   0.356951 0.750208 0.710317 -0.084692
C39   C     C_R   0.145066 0.251633 0.289988 -0.078682
C40   C     C_R   0.855563 0.251018 0.710041 -0.079758
N1    N     N_R   0.516089 0.713857 0.034309 -0.171803
N2    N     N_R   0.483652 0.713627 0.965744 -0.168096
N3    N     N_R   0.042829 0.225409 0.034831 -0.178357
N4    N     N_R   0.009138 0.224610 0.966184 -0.164890
C41   C     C_R   0.468573 0.751749 0.930423 0.288323
C42   C     C_R   0.533885 0.752232 0.069641 0.288204
C43   C     C_R   0.965131 0.252406 0.929255 0.276668
C44   C     C_R   0.033520 0.253860 0.068772 0.289976
N5    N     N_R   0.486409 0.790036 0.965806 -0.169432
N6    N     N_R   0.518770 0.790266 0.034272 -0.166807
N7    N     N_R   0.954983 0.280280 0.962666 -0.158376
N8    N     N_R   0.988500 0.280793 0.031241 -0.167031
C45   C     C_R   0.899513 0.839651 0.541281 0.098111
C46   C     C_R   0.155579 0.846509 0.552208 0.068613
C47   C     C_R   0.341955 0.347708 0.445960 0.062905
C48   C     C_R   0.612209 0.359647 0.439981 0.032235
C49   C     C_R   0.841187 0.842316 0.495391 -0.106222
C50   C     C_R   0.156618 0.843949 0.497100 -0.108242
C51   C     C_R   0.343239 0.343942 0.502716 -0.101784
C52   C     C_R   0.657839 0.342022 0.502171 -0.067681
C53   C     C_R   0.814508 0.873651 0.441866 0.144225
C54   C     C_R   0.132909 0.877871 0.447506 0.156228
C55   C     C_R   0.368951 0.376924 0.554179 0.156743
C56   C     C_R   0.666543 0.351007 0.563967 0.167446
C57   C     C_R   0.847699 0.905476 0.442612 -0.119519
C58   C     C_R   0.101829 0.910238 0.449736 -0.210349
C59   C     C_R   0.399773 0.409466 0.551832 -0.209669
C60   C     C_R   0.632945 0.382604 0.562778 -0.173942
H13   H     H_    0.828124 0.930755 0.403462 0.194188
H14   H     H_    0.081134 0.935513 0.410570 0.182328
H15   H     H_    0.422029 0.433957 0.592401 0.185640
H16   H     H_    0.640532 0.391304 0.610335 0.172940
C61   C     C_R   0.905791 0.906363 0.496621 -0.136408
C62   C     C_R   0.095855 0.909120 0.501217 -0.147378
C63   C     C_R   0.403663 0.409379 0.498518 -0.149289
C64   C     C_R   0.591538 0.404386 0.500861 -0.129346
C65   C     C_R   0.931369 0.871750 0.542611 0.082436
C66   C     C_R   0.125960 0.878992 0.554642 0.150692
C67   C     C_R   0.371495 0.380281 0.443569 0.147615
C68   C     C_R   0.579471 0.390605 0.439314 0.126528
C69   C     C_3   0.973702 0.871451 0.619493 -0.423728
C70   C     C_3   0.106064 0.849036 0.582715 -0.488809
C71   C     C_3   0.388638 0.350943 0.411551 -0.476907
C72   C     C_3   0.573884 0.416753 0.384538 -0.402434
C73   C     C_3   0.938872 0.835488 0.618209 -0.510774
C74   C     C_3   0.138744 0.813029 0.579843 -0.464948
C75   C     C_3   0.356009 0.314859 0.414327 -0.467748
C76   C     C_3   0.610202 0.382500 0.385388 -0.493331
H17   H     H_    0.015456 0.860086 0.637568 0.193584
H18   H     H_    0.123626 0.858017 0.636274 0.206673
H19   H     H_    0.369730 0.361030 0.358012 0.208584
H20   H     H_    0.530042 0.417098 0.335457 0.194708
H21   H     H_    0.974042 0.902314 0.643553 0.223912
H22   H     H_    0.059864 0.843892 0.546244 0.196768
H23   H     H_    0.434658 0.345071 0.445945 0.196370
H24   H     H_    0.594341 0.449391 0.403261 0.240964
H25   H     H_    0.960817 0.803475 0.635058 0.206704
H26   H     H_    0.175118 0.801166 0.631745 0.204001
H27   H     H_    0.318300 0.304088 0.362393 0.205351
H28   H     H_    0.587303 0.363245 0.336674 0.202344
H29   H     H_    0.919512 0.845126 0.642267 0.208208
H30   H     H_    0.111514 0.786943 0.541586 0.216758
H31   H     H_    0.383080 0.287993 0.450408 0.217719
H32   H     H_    0.651865 0.395165 0.404738 0.231884
C77   C     C_R   0.834634 0.758646 0.744897 -0.236607
C78   C     C_R   0.158178 0.759052 0.251895 -0.240158
C79   C     C_R   0.337491 0.253771 0.746111 -0.242263
C80   C     C_R   0.661205 0.254040 0.253142 -0.240983
H33   H     H_    0.790220 0.764844 0.715771 0.174623
H34   H     H_    0.202668 0.758101 0.277348 0.162233
H35   H     H_    0.292628 0.254205 0.718516 0.162764
H36   H     H_    0.705815 0.251409 0.279828 0.166783
C81   C     C_R   0.868903 0.759193 0.816397 -0.204169
C82   C     C_R   0.120533 0.762841 0.180687 -0.204491
C83   C     C_R   0.373375 0.253986 0.817646 -0.204186
C84   C     C_R   0.624717 0.256835 0.181810 -0.199638
H37   H     H_    0.850619 0.766707 0.841168 0.164761
H38   H     H_    0.136726 0.763737 0.152436 0.165076
H39   H     H_    0.355595 0.255527 0.844038 0.163938
H40   H     H_    0.641766 0.255568 0.154544 0.167093
C85   C     C_R   0.926301 0.751113 0.855894 0.040969
C86   C     C_R   0.062758 0.764056 0.145825 0.039440
C87   C     C_R   0.431476 0.252660 0.855088 0.034850
C88   C     C_R   0.566885 0.260099 0.145562 0.037894
C89   C     C_R   0.949950 0.740847 0.823367 0.216565
C90   C     C_R   0.042282 0.763590 0.183664 0.217328
C91   C     C_R   0.454317 0.250376 0.820079 0.206239
C92   C     C_R   0.545062 0.262363 0.181834 0.219717
C93   C     C_R   0.915350 0.742047 0.750163 0.183035
C94   C     C_R   0.080608 0.756581 0.256255 0.168189
C95   C     C_R   0.417677 0.252292 0.746792 0.184102
C96   C     C_R   0.582249 0.257092 0.254826 0.171946
C97   C     C_R   0.856969 0.750318 0.711041 -0.094615
C98   C     C_R   0.139029 0.754692 0.289944 -0.082725
C99   C     C_R   0.358809 0.252618 0.710204 -0.073602
C100  C     C_R   0.640680 0.253168 0.289899 -0.082882
N9    N     N_R   0.006515 0.781853 0.966416 -0.160260
N10   N     N_R   0.979580 0.736152 0.034322 -0.161598
N11   N     N_R   0.512434 0.281155 0.967743 -0.162539
N12   N     N_R   0.485525 0.232112 0.032941 -0.162701
N13   N     N_R   0.038371 0.785304 0.034762 -0.173379
N14   N     N_R   0.947554 0.732843 0.965933 -0.167782
N15   N     N_R   0.543949 0.283282 0.036169 -0.169208
N16   N     N_R   0.453942 0.230066 0.964493 -0.173944
C101  C     C_R   0.025300 0.762691 0.069904 0.287196
C102  C     C_R   0.960809 0.755375 0.931000 0.287860
C103  C     C_R   0.530740 0.259076 0.069865 0.288947
C104  C     C_R   0.467060 0.254371 0.930770 0.294229
C105  C     C_R   0.681038 0.622476 0.543713 0.046629
C106  C     C_R   0.360748 0.620964 0.540840 0.072893
C107  C     C_R   0.138884 0.121018 0.458805 0.074118
C108  C     C_R   0.819200 0.121333 0.458570 0.049408
C109  C     C_R   0.656571 0.657535 0.498914 -0.069853
C110  C     C_R   0.341811 0.657221 0.498423 -0.074713
C111  C     C_R   0.158315 0.157208 0.501742 -0.073749
C112  C     C_R   0.843567 0.157554 0.501217 -0.073479
C113  C     C_R   0.597736 0.660879 0.453176 -0.202338
C114  C     C_R   0.354963 0.661143 0.453541 -0.206110
C115  C     C_R   0.145902 0.160979 0.547386 -0.204806
C116  C     C_R   0.902303 0.161994 0.544824 -0.200300
H41   H     H_    0.577068 0.687897 0.417280 0.155485
H42   H     H_    0.340338 0.688835 0.419050 0.153644
H43   H     H_    0.160979 0.188607 0.582332 0.153169
H44   H     H_    0.922935 0.189924 0.579044 0.157846
C117  C     C_R   0.565416 0.628487 0.453195 -0.205358
C118  C     C_R   0.386832 0.628618 0.452845 -0.195575
C119  C     C_R   0.114133 0.128406 0.548184 -0.194550
C120  C     C_R   0.934618 0.129526 0.544903 -0.203027
H45   H     H_    0.520085 0.630856 0.417328 0.153448
H46   H     H_    0.396624 0.631565 0.417965 0.152464
H47   H     H_    0.104824 0.131276 0.583560 0.153138
H48   H     H_    0.979878 0.132756 0.579061 0.151893
C121  C     C_R   0.592170 0.593659 0.500422 -0.074040
C122  C     C_R   0.406915 0.593135 0.498671 -0.075942
C123  C     C_R   0.093429 0.093028 0.501733 -0.076953
C124  C     C_R   0.907887 0.093477 0.499914 -0.067608
C125  C     C_R   0.650112 0.592110 0.545178 0.015256
C126  C     C_R   0.393383 0.590841 0.542202 0.003834
C127  C     C_R   0.106377 0.090842 0.457589 0.004141
C128  C     C_R   0.850059 0.090793 0.457300 0.016205
C129  C     C_3   0.700168 0.566868 0.602480 0.137349
C130  C     C_3   0.400994 0.564747 0.598195 0.119742
C131  C     C_3   0.097803 0.065031 0.400577 0.121903
C132  C     C_3   0.800124 0.063856 0.403193 0.130134
C133  C     C_3   0.735704 0.602032 0.600711 -0.112212
C134  C     C_3   0.364304 0.599842 0.597830 -0.115068
C135  C     C_3   0.134350 0.100197 0.400821 -0.118068
C136  C     C_3   0.764644 0.099325 0.404515 -0.097425
H49   H     H_    0.704503 0.565921 0.650411 0.121990
H50   H     H_    0.382225 0.531437 0.580906 0.106128
H51   H     H_    0.116337 0.031670 0.416942 0.105376
H52   H     H_    0.794205 0.061098 0.354310 0.118353
H53   H     H_    0.759160 0.589983 0.583023 0.208431
H54   H     H_    0.386740 0.620479 0.645209 0.204550
H55   H     H_    0.111627 0.121037 0.353834 0.202190
H56   H     H_    0.742841 0.088110 0.424785 0.209762
O33   O     O_R   0.425360 0.545810 0.442460 -0.636972
O34   O     O_R   0.574640 0.545810 0.557540 -0.620576
O35   O     O_R   0.925360 0.045810 0.442460 -0.627372
O36   O     O_R   0.074640 0.045810 0.557540 -0.636831
O37   O     O_R   0.482840 0.545830 0.557470 -0.577424
O38   O     O_R   0.517160 0.545830 0.442530 -0.625390
O39   O     O_R   0.982840 0.045830 0.557470 -0.619139
O40   O     O_R   0.017160 0.045830 0.442530 -0.576324
C137  C     C_R   0.439828 0.560102 0.499673 0.867520
C138  C     C_R   0.560110 0.560197 0.500345 0.926044
C139  C     C_R   0.939867 0.060084 0.499785 0.921187
C140  C     C_R   0.060269 0.060085 0.500463 0.867706
O41   O     O_R   0.925420 0.954200 0.442500 -0.632015
O42   O     O_R   0.074580 0.954200 0.557500 -0.625024
O43   O     O_R   0.425420 0.454200 0.442500 -0.624569
O44   O     O_R   0.574580 0.454200 0.557500 -0.619210
O45   O     O_R   0.982890 0.954220 0.557510 -0.620213
O46   O     O_R   0.017110 0.954220 0.442490 -0.611059
O47   O     O_R   0.482890 0.454220 0.557510 -0.613701
O48   O     O_R   0.517110 0.454220 0.442490 -0.628814
C141  C     C_R   0.939178 0.940251 0.499402 0.932750
C142  C     C_R   0.060372 0.939953 0.500261 0.878689
C143  C     C_R   0.439449 0.440030 0.499614 0.876263
C144  C     C_R   0.560253 0.439622 0.500275 0.932925
Zn9   Zn    Zn3+2 0.461590 0.500000 0.423210 0.958208
Zn10  Zn    Zn3+2 0.538410 0.500000 0.576790 1.045250
Zn11  Zn    Zn3+2 0.961590 0.000000 0.423210 1.039290
Zn12  Zn    Zn3+2 0.038410 0.000000 0.576790 0.966318
C145  C     C_3   0.010713 0.726665 0.865753 -0.900874
H57   H     H_    0.013847 0.696853 0.842721 0.246251
H58   H     H_    0.036122 0.753357 0.867400 0.246619
H59   H     H_    0.029450 0.717658 0.919475 0.247338
C146  C     C_3   0.981034 0.772932 0.148088 -0.887307
H60   H     H_    0.977669 0.799459 0.175928 0.242633
H61   H     H_    0.957690 0.785210 0.094679 0.248789
H62   H     H_    0.960039 0.742909 0.146908 0.250601
C147  C     C_3   0.517083 0.245069 0.860992 -0.884073
H63   H     H_    0.528296 0.231445 0.829714 0.246327
H64   H     H_    0.538200 0.277209 0.882231 0.255794
H65   H     H_    0.534075 0.221606 0.903989 0.243499
C148  C     C_3   0.483686 0.272656 0.144168 -0.901938
H66   H     H_    0.480044 0.301352 0.168612 0.237443
H67   H     H_    0.460696 0.282077 0.089538 0.248852
H68   H     H_    0.462396 0.243938 0.145900 0.251045
C149  C     C_3   0.940405 0.735438 0.713986 -0.886583
H69   H     H_    0.986197 0.741457 0.747952 0.239196
H70   H     H_    0.932023 0.701562 0.693456 0.257500
H71   H     H_    0.921905 0.759012 0.671025 0.234991
C150  C     C_3   0.060284 0.751786 0.298265 -0.870416
H72   H     H_    0.014624 0.756128 0.268396 0.241786
H73   H     H_    0.069750 0.718345 0.320167 0.257175
H74   H     H_    0.081384 0.776144 0.340863 0.229990
C151  C     C_3   0.441764 0.256433 0.709079 -0.895568
H75   H     H_    0.476247 0.280901 0.735450 0.245584
H76   H     H_    0.457978 0.224275 0.707873 0.249901
H77   H     H_    0.411006 0.268415 0.655459 0.239570
C152  C     C_3   0.561013 0.256630 0.296118 -0.881125
H78   H     H_    0.515606 0.262911 0.265391 0.240925
H79   H     H_    0.568600 0.223983 0.319914 0.259975
H80   H     H_    0.583266 0.281889 0.337380 0.228337
N17   N     N_R   0.705172 0.523757 0.581053 0.217979
O49   O     O_R   0.662852 0.505659 0.523739 -0.425655
O50   O     O_R   0.751417 0.501749 0.622393 -0.378853
N18   N     N_R   0.459205 0.564806 0.661786 0.235260
O51   O     O_R   0.488189 0.600909 0.686382 -0.376129
O52   O     O_R   0.482918 0.528113 0.693366 -0.384442
N19   N     N_R   0.039323 0.065306 0.337573 0.234782
O53   O     O_R   0.010596 0.101472 0.314123 -0.376673
O54   O     O_R   0.015133 0.028738 0.305368 -0.384799
N20   N     N_R   0.797412 0.021688 0.428763 0.205889
O55   O     O_R   0.840263 0.006495 0.488325 -0.413699
O56   O     O_R   0.752153 0.998078 0.389993 -0.405446
C153  C     C_3   0.770620 0.630795 0.665452 -0.890277
H81   H     H_    0.788071 0.658907 0.656181 0.253661
H82   H     H_    0.744884 0.643498 0.679497 0.248176
H83   H     H_    0.805926 0.611416 0.709279 0.265467
C154  C     C_3   0.308034 0.582129 0.574416 -0.894074
H84   H     H_    0.282053 0.609345 0.570150 0.271299
H85   H     H_    0.284732 0.565204 0.523640 0.249923
H86   H     H_    0.315450 0.558617 0.613366 0.251010
C155  C     C_3   0.190183 0.082512 0.422868 -0.896919
H87   H     H_    0.216150 0.109789 0.427233 0.270673
H88   H     H_    0.213815 0.065327 0.473310 0.251396
H89   H     H_    0.182102 0.059237 0.383123 0.250810
C156  C     C_3   0.727597 0.126044 0.338016 -0.900828
H90   H     H_    0.710278 0.154680 0.346579 0.255445
H91   H     H_    0.751715 0.137918 0.321242 0.246819
H92   H     H_    0.692219 0.105445 0.296350 0.265692
C157  C     C_3   0.516436 0.815687 0.146724 -0.894208
H93   H     H_    0.523354 0.840799 0.120584 0.259601
H94   H     H_    0.475724 0.798897 0.108333 0.246191
H95   H     H_    0.513711 0.832931 0.183958 0.234259
C158  C     C_3   0.490211 0.810624 0.853181 -0.886030
H96   H     H_    0.529571 0.792273 0.891140 0.251403
H97   H     H_    0.493920 0.826156 0.815809 0.234380
H98   H     H_    0.485647 0.837210 0.879810 0.255914
C159  C     C_3   0.047060 0.334314 0.150640 -0.885167
H99   H     H_    0.054902 0.345668 0.114929 0.248057
H100  H     H_    0.001405 0.330118 0.122407 0.261154
H101  H     H_    0.061786 0.360575 0.189621 0.231089
C160  C     C_3   0.961021 0.329916 0.852349 -0.901177
H102  H     H_    0.992312 0.326817 0.909248 0.250264
H103  H     H_    0.984430 0.336871 0.832732 0.241050
H104  H     H_    0.933387 0.358150 0.840233 0.252017
C161  C     C_3   0.751852 0.874012 0.385209 -0.796804
H105  H     H_    0.737636 0.841586 0.359222 0.212205
H106  H     H_    0.730346 0.881578 0.407128 0.265605
H107  H     H_    0.739115 0.899062 0.345479 0.249689
C162  C     C_3   0.137391 0.878727 0.390368 -0.854953
H108  H     H_    0.181638 0.884138 0.412390 0.256004
H109  H     H_    0.122292 0.847345 0.361485 0.226689
H110  H     H_    0.111889 0.905460 0.353008 0.242318
C163  C     C_3   0.366907 0.376454 0.613315 -0.860290
H111  H     H_    0.323188 0.381445 0.593552 0.255978
H112  H     H_    0.382643 0.344728 0.640792 0.228686
H113  H     H_    0.393159 0.402850 0.651347 0.244350
C164  C     C_3   0.712787 0.329169 0.631063 -0.869602
H114  H     H_    0.705718 0.293280 0.626479 0.244488
H115  H     H_    0.753897 0.335998 0.643506 0.239952
H116  H     H_    0.714568 0.341149 0.674666 0.242011

loop_
_geom_bond_atom_site_label_1
_geom_bond_atom_site_label_2
_geom_bond_distance
_ccdc_geom_bond_type
C43   N7    1.352920 A    
C69   C73   1.517690 S    
C162  H108  1.109367 S    
C77   H33   1.083603 S    
C150  H73   1.109260 S    
C72   C76   1.517315 S    
C73   H25   1.110714 S    
C157  H93   1.109331 S    
C124  C139  1.415400 S    
C156  H90   1.110285 S    
C146  H62   1.110207 S    
C71   C75   1.518408 S    
C156  H92   1.109917 S    
N4    C43   1.353521 A    
C44   N8    1.355891 A    
Zn6   O22   2.016077 S    
C129  C133  1.549348 S    
C95   C151  1.517301 S    
C108  C112  1.381484 A    
C26   C30   1.402363 A    
O4    C4    1.273044 A    
C76   H28   1.111335 S    
O5    Zn5   2.017197 S    
C155  H87   1.109195 S    
C25   C42   1.461729 S    
C74   H30   1.112196 S    
C20   C40   1.401623 A    
C94   C150  1.520086 S    
C66   C70   1.493669 S    
C122  C137  1.415312 S    
C29   C33   1.388110 A    
C161  H106  1.109501 S    
N10   N14   1.329664 A    
C81   H37   1.083857 S    
C70   H22   1.112511 S    
C163  H113  1.110818 S    
C82   C86   1.399048 A    
N19   O54   1.300443 A    
C55   C163  1.508698 S    
Zn1   O25   2.009494 S    
C83   H39   1.083755 S    
C89   C145  1.517020 S    
C116  C120  1.400078 A    
N2    C41   1.355984 A    
Zn3   O19   2.016769 S    
C42   N6    1.354129 A    
Zn4   O28   2.011163 S    
O44   Zn10  2.018828 S    
Zn5   O29   2.004122 S    
C108  C128  1.342097 A    
O15   C7    1.284831 A    
O45   Zn12  2.012920 S    
O11   Zn3   2.003957 S    
O46   Zn11  2.014235 S    
C24   C28   1.413162 A    
C96   C100  1.420449 A    
C73   H29   1.112346 S    
O2    Zn2   2.016076 S    
C19   C39   1.399293 A    
O10   Zn2   2.002304 S    
C159  H101  1.110967 S    
C131  H51   1.113657 S    
C90   C94   1.422302 A    
C76   H32   1.112277 S    
C65   C69   1.491105 S    
O6    Zn6   2.016873 S    
C162  H110  1.110840 S    
O19   C11   1.274818 A    
C69   H21   1.112152 S    
C88   C103  1.466872 S    
C80   H36   1.083958 S    
C23   C159  1.509281 S    
C157  H95   1.110899 S    
O36   C140  1.270819 A    
C151  H77   1.106633 S    
C46   C66   1.370878 A    
C62   C142  1.426640 S    
C36   H12   1.083202 S    
C87   C91   1.417931 A    
C17   H1    1.083617 S    
C59   H15   1.084336 S    
C35   C39   1.395633 A    
C19   H3    1.084065 S    
O39   Zn12  2.016071 S    
C20   H4    1.084317 S    
C113  C117  1.399860 A    
C147  H64   1.109813 S    
O24   C12   1.274454 A    
C164  H114  1.110124 S    
C132  N20   1.463822 S    
C22   C26   1.414854 A    
C79   C83   1.384388 A    
C126  C130  1.491369 S    
C80   C84   1.383313 A    
C63   C67   1.390277 A    
O3    C3    1.280404 A    
C61   C65   1.386520 A    
C153  H81   1.110043 S    
C29   H5    1.083641 S    
C31   H7    1.083093 S    
C118  C122  1.406893 A    
C92   C96   1.422185 A    
N10   C101  1.357677 A    
C123  C127  1.381036 A    
C160  H102  1.107779 S    
C21   C157  1.508674 S    
C93   C149  1.515920 S    
C77   C97   1.399227 A    
C136  C156  1.529623 S    
O37   Zn10  2.016071 S    
C130  C134  1.548703 S    
C11   C111  1.415534 S    
C128  C132  1.496476 S    
N18   O51   1.302253 A    
C58   H14   1.084410 S    
C79   C99   1.396692 A    
C154  H85   1.111785 S    
N20   O56   1.300437 A    
C19   C23   1.398491 A    
O48   C144  1.276580 A    
C152  H79   1.109285 S    
C109  C113  1.406622 A    
C50   C54   1.416084 A    
C107  C135  1.497687 S    
C24   C160  1.508586 S    
O20   C12   1.276829 A    
O8    C4    1.276385 A    
C54   C162  1.509028 S    
C105  C125  1.342497 A    
O29   C13   1.291058 A    
C63   C143  1.428527 S    
C145  H57   1.110527 S    
C134  C154  1.529478 S    
C111  C115  1.407656 A    
C64   C144  1.435044 S    
C8    C40   1.459734 S    
N15   C103  1.355965 A    
C158  H97   1.110898 S    
Zn4   O20   2.016451 S    
N11   C104  1.356337 A    
C164  H116  1.110712 S    
C77   C81   1.385181 A    
C122  C126  1.380759 A    
C91   C147  1.517027 S    
C56   C60   1.397375 A    
O5    C1    1.279003 A    
C149  H69   1.107328 S    
C110  C114  1.407703 A    
C75   H31   1.112189 S    
C68   C72   1.494317 S    
C153  H83   1.109934 S    
C17   C21   1.397117 A    
C148  H66   1.110304 S    
C133  C153  1.529604 S    
O36   Zn12  2.021724 S    
O25   C13   1.286318 A    
C72   H24   1.112103 S    
C123  C140  1.415933 S    
C130  H50   1.113660 S    
C53   C57   1.398260 A    
C10   C110  1.415621 S    
O27   C15   1.285125 A    
C82   H38   1.083666 S    
C160  H104  1.110285 S    
C71   H23   1.112440 S    
C30   H6    1.083620 S    
C52   C56   1.409679 A    
Zn2   O26   2.011163 S    
C83   C87   1.398032 A    
O16   Zn8   2.011163 S    
C84   C88   1.398214 A    
C45   C49   1.393232 A    
C86   C101  1.470090 S    
O14   C6    1.285740 A    
C47   C51   1.390302 A    
Zn6   O30   2.002472 S    
C32   H8    1.083801 S    
C106  C134  1.497908 S    
O1    Zn1   2.016398 S    
C146  H61   1.106960 S    
C115  C119  1.400565 A    
C55   C59   1.397236 A    
O10   C6    1.288541 A    
O3    Zn3   2.016398 S    
O9    C5    1.288349 A    
N14   C102  1.354977 A    
C89   C93   1.419514 A    
O40   C140  1.271941 A    
C75   H27   1.111632 S    
C155  H89   1.110112 S    
O33   Zn9   2.019745 S    
C125  C129  1.496538 S    
N11   N15   1.329361 A    
C48   C68   1.370566 A    
C45   C73   1.494526 S    
O37   C137  1.271928 A    
C88   C92   1.419715 A    
O44   C144  1.275303 A    
C145  H59   1.107971 S    
C105  C109  1.381714 A    
C127  C131  1.491652 S    
C36   C40   1.399693 A    
C129  N17   1.463725 S    
C57   C61   1.403702 A    
C33   H9    1.083048 S    
C117  C121  1.407951 A    
C28   C43   1.451971 S    
C59   C63   1.401670 A    
C18   H2    1.083574 S    
C35   H11   1.083418 S    
N5    N6    1.327083 A    
O13   Zn5   2.009494 S    
O23   C11   1.276283 A    
C4    C52   1.416921 S    
C108  C136  1.492637 S    
O15   Zn7   2.009494 S    
C32   C36   1.389157 A    
C161  H105  1.110652 S    
C5    C37   1.462821 S    
C163  H112  1.108990 S    
C17   C37   1.402552 A    
N12   N16   1.329545 A    
C121  C138  1.416654 S    
C149  H71   1.106816 S    
C62   C66   1.389760 A    
O17   C9    1.276226 A    
C148  H68   1.110238 S    
C120  C124  1.407336 A    
C135  H55   1.112546 S    
C94   C98   1.422648 A    
O45   C141  1.277229 A    
O35   C139  1.272405 A    
O47   C143  1.274200 A    
O43   Zn9   2.020810 S    
C25   C29   1.402152 A    
C159  H100  1.109570 S    
C86   C90   1.419080 A    
C26   C41   1.461721 S    
C28   C32   1.399377 A    
C33   C37   1.399074 A    
C156  H91   1.111771 S    
N19   O53   1.302248 A    
C162  H109  1.108980 S    
Zn7   O31   2.004122 S    
C117  H45   1.083525 S    
Zn8   O32   2.002472 S    
C30   C34   1.388447 A    
C78   C98   1.395920 A    
C157  H94   1.110469 S    
O38   Zn9   2.014751 S    
C151  H76   1.109968 S    
C1    C49   1.426320 S    
C3    C51   1.424534 S    
O1    C1    1.275172 A    
N3    C44   1.358461 A    
C158  H96   1.110480 S    
C121  C125  1.382275 A    
C48   C52   1.387823 A    
C147  H63   1.107659 S    
C95   C99   1.420684 A    
C70   H18   1.111589 S    
O21   C9    1.274476 A    
O28   C16   1.285069 A    
O30   C14   1.289379 A    
C22   C158  1.508783 S    
C6    C38   1.463269 S    
C18   C38   1.402753 A    
C130  N18   1.463003 S    
O22   C10   1.276382 A    
C9    C109  1.414977 S    
C131  N19   1.463018 S    
C124  C128  1.381898 A    
C161  H107  1.110810 S    
C78   C82   1.383889 A    
C131  C135  1.548692 S    
C151  H75   1.110541 S    
O33   C137  1.270505 A    
O6    C2    1.273518 A    
C60   C64   1.405724 A    
C27   C44   1.475689 S    
C69   H17   1.111772 S    
C34   C38   1.399200 A    
C92   C148  1.516521 S    
C72   H20   1.111632 S    
C34   H10   1.083060 S    
O26   C14   1.285200 A    
C107  C127  1.343079 A    
C31   C35   1.388662 A    
C21   C25   1.415137 A    
N18   O52   1.300444 A    
C2    C50   1.425372 S    
C23   C27   1.421901 A    
C96   C152  1.519600 S    
C154  H84   1.109150 S    
C113  H41   1.083510 S    
C119  H47   1.083469 S    
Zn3   O27   2.009494 S    
C84   H40   1.083824 S    
C20   C24   1.396532 A    
C152  H78   1.105006 S    
C14   C98   1.468872 S    
Zn5   O21   2.016398 S    
N7    N8    1.327742 A    
C136  H56   1.112617 S    
O34   Zn10  2.021724 S    
C119  C123  1.407098 A    
O13   C5    1.285458 A    
N9    C102  1.356258 A    
O12   Zn4   2.002304 S    
C115  H43   1.083527 S    
O47   Zn10  2.012920 S    
N1    N2    1.328928 A    
C7    C39   1.460003 S    
C150  H72   1.104994 S    
N3    N4    1.329098 A    
N16   C104  1.356220 A    
N17   O49   1.301800 A    
C74   H26   1.111618 S    
O7    C3    1.273170 A    
O35   Zn11  2.019745 S    
C147  H65   1.110470 S    
C67   C71   1.493631 S    
C164  H115  1.110710 S    
C46   C74   1.493707 S    
O42   C142  1.273455 A    
O38   C138  1.270103 A    
C90   C146  1.516446 S    
C81   C85   1.396095 A    
N12   C103  1.356708 A    
C13   C97   1.473632 S    
C57   H13   1.084066 S    
C56   C164  1.508114 S    
C18   C22   1.396841 A    
C116  H44   1.083470 S    
C153  H82   1.111764 S    
O48   Zn9   2.014235 S    
O40   Zn11  2.014751 S    
O14   Zn6   2.011163 S    
C15   C99   1.464962 S    
C112  C116  1.407319 A    
C106  C126  1.343127 A    
O11   C7    1.287395 A    
O12   C8    1.286685 A    
C47   C75   1.493304 S    
O9    Zn1   2.003957 S    
C64   C68   1.392673 A    
O4    Zn4   2.016076 S    
Zn2   O18   2.016451 S    
C118  H46   1.083487 S    
C91   C95   1.419738 A    
O39   C139  1.270009 A    
O18   C10   1.275030 A    
O7    Zn7   2.017197 S    
C133  H53   1.112624 S    
O8    Zn8   2.016873 S    
C16   C100  1.465411 S    
C47   C67   1.371188 A    
O46   C142  1.274086 A    
C48   C76   1.493554 S    
C93   C97   1.422752 A    
C45   C65   1.368987 A    
C146  H60   1.110292 S    
C114  H42   1.083516 S    
C107  C111  1.383578 A    
C132  C136  1.549073 S    
C61   C141  1.425961 S    
C154  H86   1.110119 S    
N20   O55   1.301950 A    
N9    N13   1.329458 A    
C134  H54   1.112521 S    
C85   C89   1.416284 A    
C152  H80   1.109757 S    
C135  C155  1.529404 S    
C155  H88   1.111785 S    
C54   C58   1.397153 A    
C129  H49   1.112478 S    
C145  H58   1.110061 S    
C150  H74   1.109308 S    
C79   H35   1.083896 S    
C80   C100  1.395365 A    
O2    C2    1.280886 A    
C120  H48   1.083546 S    
O31   C15   1.287629 A    
C46   C50   1.390733 A    
C158  H98   1.109305 S    
O32   C16   1.287766 A    
C85   C102  1.463218 S    
C12   C112  1.415628 S    
O41   C141  1.270220 A    
C70   C74   1.518361 S    
C105  C133  1.492782 S    
O41   Zn11  2.020810 S    
C49   C53   1.413285 A    
O42   Zn12  2.018828 S    
C163  H111  1.109389 S    
C53   C161  1.507916 S    
C114  C118  1.400226 A    
C132  H52   1.112457 S    
C149  H70   1.109937 S    
C27   C31   1.407477 A    
N17   O50   1.300431 A    
N13   C101  1.356577 A    
O43   C143  1.274276 A    
C71   H19   1.111568 S    
C148  H67   1.106399 S    
Zn7   O23   2.016398 S    
Zn8   O24   2.016077 S    
O16   C8    1.285823 A    
C87   C104  1.468047 S    
C78   H34   1.083892 S    
C160  H103  1.110627 S    
C106  C110  1.383851 A    
Zn1   O17   2.016769 S    
C51   C55   1.415110 A    
C58   C62   1.400828 A    
C159  H99   1.110407 S    
N1    C42   1.356130 A    
O34   C138  1.272923 A    
C41   N5    1.354273 A    
C60   H16   1.083634 S    
