data_mof_unit_50094.cif
_audit_creation_date              2012-12-10T17:48:47-0500
_audit_creation_method            fapswitch 2.2
_symmetry_space_group_name_H-M    P1
_symmetry_Int_Tables_number       1
_space_group_crystal_system       triclinic
_cell_length_a                    15.706265
_cell_length_b                    10.684195
_cell_length_c                    9.966446
_cell_angle_alpha                 88.764328
_cell_angle_beta                  89.892505
_cell_angle_gamma                 94.249063
_cell_volume                      1667.46242097

loop_
_atom_site_label
_atom_site_type_symbol
_atom_type_description
_atom_site_fract_x
_atom_site_fract_y
_atom_site_fract_z
_atom_type_partial_charge
C1    C     C_R   0.509111 0.261324 0.501958 0.874416
C2    C     C_R   0.478090 0.039888 0.869534 -0.189482
C3    C     C_R   0.425788 0.930852 0.851943 -0.150898
C4    C     C_R   0.338483 0.499137 0.500314 0.890919
C5    C     C_R   0.417416 0.878034 0.724972 0.144337
C6    C     C_R   0.466018 0.934411 0.615085 0.063156
C7    C     C_R   0.500744 0.057804 0.627340 0.051317
C8    C     C_R   0.521117 0.128182 0.507581 -0.179618
C9    C     C_R   0.537230 0.065900 0.387746 0.081720
C10   C     C_R   0.522130 0.938059 0.385343 -0.201809
C11   C     C_R   0.486688 0.872010 0.496901 -0.177279
C12   C     C_3   0.941794 0.375981 0.614676 0.452279
C13   C     C_R   0.379760 0.321232 0.131360 0.132655
C14   C     C_R   0.327325 0.241437 0.051367 -0.270621
C15   C     C_R   0.331510 0.248290 0.914830 -0.214166
C16   C     C_R   0.493506 0.738924 0.498914 0.878319
C17   C     C_R   0.388785 0.334413 0.854157 -0.122335
C18   C     C_R   0.444331 0.416698 0.927030 0.092008
C19   C     C_R   0.442574 0.414161 0.072039 0.116442
C20   C     C_R   0.552917 0.581471 0.067418 0.134241
C21   C     C_R   0.552507 0.580046 0.925466 -0.111099
C22   C     C_R   0.661506 0.500841 0.499878 0.895457
C23   C     C_3   0.916073 0.481953 0.512203 0.237236
C24   C     C_3   0.043768 0.371432 0.605710 0.535874
C25   C     C_3   0.047189 0.464177 0.364718 -0.491043
C26   C     C_3   0.948760 0.455015 0.368737 -0.418144
C27   C     C_1   0.750084 0.495769 0.500811 -0.206744
C28   C     C_3   0.082052 0.484117 0.509330 0.196188
C29   C     C_3   0.824663 0.213895 0.638723 0.093609
C30   C     C_3   0.778585 0.113608 0.553817 -0.826569
C31   C     C_3   0.100497 0.475953 0.806992 0.101649
C32   C     C_3   0.119949 0.442235 0.952307 -0.838859
C33   C     C_3   0.956184 0.611991 0.555285 -0.478685
C34   C     C_3   0.053884 0.615632 0.547039 -0.470730
C35   C     C_1   0.824980 0.489166 0.505329 -0.068832
C36   C     C_1   0.173798 0.488731 0.504432 -0.039242
C37   C     C_1   0.249352 0.493880 0.501498 -0.203198
C38   C     C_R   0.514021 0.104730 0.758035 -0.157908
H1    H     H_    0.933526 0.687485 0.488401 0.197420
H2    H     H_    0.070046 0.544291 0.297291 0.196429
H3    H     H_    0.071214 0.380618 0.316939 0.180672
H4    H     H_    0.923648 0.360144 0.337089 0.206160
H5    H     H_    0.925251 0.523865 0.294612 0.186598
H6    H     H_    0.083694 0.655530 0.638335 0.156451
H7    H     H_    0.075997 0.685918 0.467854 0.197240
H8    H     H_    0.936317 0.633304 0.658953 0.186260
H9    H     H_    0.780359 0.288589 0.651693 0.146268
H10   H     H_    0.838347 0.170721 0.738011 0.148396
H11   H     H_    0.819407 0.034202 0.540515 0.255521
H12   H     H_    0.554248 0.189145 0.776125 0.170219
H13   H     H_    0.718052 0.077934 0.603874 0.211823
H14   H     H_    0.763437 0.153935 0.453770 0.252508
H15   H     H_    0.046046 0.535891 0.809045 0.157572
H16   H     H_    0.158713 0.527775 0.765142 0.161552
H17   H     H_    0.174968 0.382820 0.957016 0.273438
H18   H     H_    0.136010 0.529040 0.009182 0.203389
H19   H     H_    0.063480 0.390143 0.999777 0.250799
H20   H     H_    0.855611 0.433130 0.761011 0.152786
H21   H     H_    0.925996 0.330818 0.818974 0.204331
H22   H     H_    0.528741 0.170740 0.215698 0.210051
H23   H     H_    0.487282 0.077749 0.968792 0.156030
H24   H     H_    0.623580 0.194564 0.299674 0.198155
H25   H     H_    0.341865 0.758761 0.607188 0.170669
H26   H     H_    0.370142 0.698333 0.759423 0.228123
H27   H     H_    0.591324 0.761091 0.104566 0.159913
H28   H     H_    0.609931 0.662947 0.231656 0.255124
H29   H     H_    0.051763 0.177951 0.611304 0.226689
H30   H     H_    0.029283 0.231587 0.457702 0.189268
H31   H     H_    0.371076 0.207663 0.295037 0.166955
H32   H     H_    0.298878 0.315397 0.287858 0.172171
H33   H     H_    0.391389 0.887313 0.937123 0.140818
H34   H     H_    0.540429 0.890258 0.296116 0.171486
H35   H     H_    0.281270 0.172803 0.097278 0.151872
H36   H     H_    0.290055 0.186038 0.855210 0.177035
H37   H     H_    0.387655 0.332447 0.748367 0.223852
H38   H     H_    0.595487 0.645601 0.869228 0.159421
N1    N     N_R   0.499210 0.498800 0.142780 -0.129324
N2    N     N_R   0.499180 0.498720 0.857170 -0.144464
N3    N     N_3   0.918117 0.406784 0.753432 -0.500960
N4    N     N_3   0.575440 0.127769 0.270766 -0.468677
N5    N     N_3   0.351937 0.778429 0.708321 -0.471711
N6    N     N_3   0.611490 0.672214 0.128306 -0.465627
N7    N     N_3   0.065090 0.253014 0.543392 -0.444442
N8    N     N_3   0.363317 0.301940 0.270317 -0.359362
O1    O     O_R   0.500000 0.316780 0.614690 -0.650019
O2    O     O_3   0.081729 0.363932 0.736823 -0.619793
O3    O     O_R   0.499990 0.316750 0.385360 -0.605400
O4    O     O_R   0.377150 0.500020 0.614720 -0.649002
O5    O     O_R   0.377140 0.499990 0.385380 -0.588876
O6    O     O_R   0.500010 0.683250 0.614640 -0.617909
O7    O     O_R   0.500000 0.683220 0.385310 -0.643665
O8    O     O_R   0.622860 0.500010 0.614620 -0.615410
O9    O     O_R   0.622850 0.499980 0.385280 -0.627154
O10   O     O_3   0.902147 0.256922 0.573932 -0.651562
Zn1   Zn    Zn3+2 0.500010 0.500020 0.653130 0.911614
Zn2   Zn    Zn3+2 0.499990 0.499980 0.346870 0.933717

loop_
_geom_bond_atom_site_label_1
_geom_bond_atom_site_label_2
_ccdc_geom_bond_type
C1    O3    A    
C30   H13   S    
C16   O6    A    
C20   N6    S    
C1    C8    S    
C7    C8    A    
C25   C28   S    
H29   N7    S    
C13   N8    S    
C33   H1    S    
C20   N1    A    
H25   N5    S    
H24   N4    S    
C36   C37   T    
C24   N7    S    
C25   H2    S    
C29   O10   S    
C12   N3    S    
C18   C19   A    
C23   C26   S    
C19   N1    A    
C21   H38   S    
O7    Zn2   S    
C8    C9    A    
C23   C33   S    
C21   N2    A    
H32   N8    S    
C9    C10   A    
C32   H17   S    
C2    H23   S    
O4    Zn1   S    
C28   C34   S    
C31   O2    S    
C13   C14   A    
C33   H8    S    
C12   O10   S    
C32   H19   S    
C26   H5    S    
C17   C18   A    
C4    C37   S    
C1    O1    A    
C13   C19   A    
C29   H10   S    
C14   H35   S    
O6    Zn1   S    
C34   H6    S    
H21   N3    S    
C6    C11   A    
C27   C35   T    
C25   C26   S    
O8    Zn1   S    
C9    N4    S    
C3    H33   S    
C29   C30   S    
H28   N6    S    
C5    N5    S    
C11   C16   S    
C2    C38   A    
C31   C32   S    
C12   C23   S    
N2    Zn1   S    
C18   N2    A    
O3    Zn2   S    
C33   C34   S    
C34   H7    S    
C31   H15   S    
H20   N3    S    
C4    O4    A    
C30   H11   S    
C29   H9    S    
O9    Zn2   S    
C23   C35   S    
C22   C27   S    
C22   O9    A    
C25   H3    S    
C26   H4    S    
C4    O5    A    
C15   C17   A    
C30   H14   S    
H22   N4    S    
H30   N7    S    
C24   C28   S    
C3    C5    A    
C6    C7    A    
C38   H12   S    
C12   C24   S    
N1    Zn2   S    
O5    Zn2   S    
C2    C3    A    
H31   N8    S    
O1    Zn1   S    
H27   N6    S    
C5    C6    A    
C7    C38   A    
C31   H16   S    
H26   N5    S    
C10   C11   A    
C15   H36   S    
C20   C21   A    
C28   C36   S    
C16   O7    A    
C17   H37   S    
C22   O8    A    
C14   C15   A    
C24   O2    S    
C32   H18   S    
C10   H34   S    
