data_mof_unit_55740.cif
_audit_creation_date              2012-10-26T21:14:01-0400
_audit_creation_method            fapswitch 2.2
_symmetry_space_group_name_H-M    P1
_symmetry_Int_Tables_number       1
_space_group_crystal_system       triclinic
_cell_length_a                    15.825904
_cell_length_b                    16.038387
_cell_length_c                    17.018641
_cell_angle_alpha                 83.486331
_cell_angle_beta                  87.17671
_cell_angle_gamma                 113.075583
_cell_volume                      3927.61723331

loop_
_atom_site_label
_atom_site_type_symbol
_atom_type_description
_atom_site_fract_x
_atom_site_fract_y
_atom_site_fract_z
_atom_type_partial_charge
C1    C     C_R   0.500104 0.510582 0.347932 0.578794
C2    C     C_R   0.539088 0.575067 0.767782 -0.117444
C3    C     C_R   0.491518 0.431228 0.146299 0.276401
C4    C     C_R   0.554268 0.582730 0.847214 0.275907
C5    C     C_R   0.488096 0.505530 0.096043 0.226071
C6    C     C_R   0.552899 0.506452 0.897626 0.224107
C7    C     C_R   0.486113 0.581090 0.127725 -0.077111
C8    C     C_R   0.542403 0.426437 0.867150 -0.078793
C9    C     C_R   0.491115 0.586661 0.209003 -0.040570
C10   C     C_R   0.526110 0.417691 0.787735 -0.036772
C11   C     C_R   0.561166 0.269359 0.472123 0.126023
C12   C     C_R   0.504547 0.490942 0.651512 0.581971
C13   C     C_R   0.467047 0.740081 0.550974 0.109063
C14   C     C_R   0.564589 0.181246 0.482954 -0.052345
C15   C     C_R   0.480032 0.833510 0.551799 -0.042407
C16   C     C_R   0.675654 0.555550 0.497438 0.587975
C17   C     C_R   0.324827 0.444537 0.500403 0.595144
C18   C     C_R   0.483292 0.103586 0.509552 0.182892
C19   C     C_R   0.509932 0.894775 0.479003 0.200338
C20   C     C_R   0.404330 0.116901 0.533829 0.225336
C21   C     C_R   0.539998 0.863167 0.413984 0.233534
C22   C     C_R   0.411947 0.206796 0.545262 0.330937
C23   C     C_R   0.104481 0.608233 0.466440 -0.050375
C24   C     C_R   0.557675 0.782566 0.426428 0.339447
C25   C     C_R   0.777676 0.588186 0.492636 -0.039651
C26   C     C_R   0.223682 0.411377 0.499222 -0.044670
C27   C     C_R   0.929082 0.710030 0.456861 0.248241
C28   C     C_R   0.071932 0.287703 0.519976 0.262331
C29   C     C_R   0.833778 0.676777 0.457155 -0.102934
C30   C     C_R   0.167392 0.319000 0.520145 -0.091430
C31   C     C_R   0.820285 0.532023 0.525947 0.201699
C32   C     C_R   0.183326 0.469777 0.467338 0.210484
C33   C     C_R   0.914267 0.553513 0.499165 -0.029692
C34   C     C_R   0.897922 0.392157 0.522712 -0.048199
C35   C     C_R   0.088424 0.446831 0.490527 -0.029655
C36   C     C_R   0.970945 0.646271 0.466142 -0.009335
C37   C     C_R   0.030874 0.352617 0.517960 -0.012515
C38   C     C_R   0.953103 0.486291 0.503335 0.010722
C39   C     C_R   0.049555 0.514034 0.486851 0.016326
C40   C     C_3   0.400985 0.670630 0.617322 -0.302782
C41   C     C_3   0.637148 0.342173 0.414465 -0.296184
C42   C     C_3   0.461956 0.865221 0.629344 -0.326941
C43   C     C_3   0.653822 0.169901 0.464651 -0.299946
C44   C     C_3   0.491032 0.671939 0.237314 -0.283974
C45   C     C_R   0.065985 0.670804 0.444190 0.230667
C46   C     C_3   0.511593 0.327287 0.761349 -0.300872
C47   C     C_R   0.935761 0.327856 0.539905 0.259204
C48   C     C_R   0.497073 0.513141 0.260332 0.004236
C49   C     C_R   0.521368 0.492463 0.737024 0.005783
C50   C     C_R   0.497153 0.436347 0.227328 -0.123537
Cu1   Cu    Cu3+1 0.504410 0.586150 0.496120 1.097840
Cu2   Cu    Cu3+1 0.495590 0.413850 0.503880 1.083480
H1    H     H_    0.198721 0.270551 0.526920 0.237866
H2    H     H_    0.748627 0.192884 0.695342 0.379134
H3    H     H_    0.372193 0.600014 0.605599 0.183928
H4    H     H_    0.434536 0.672631 0.672921 0.130016
H5    H     H_    0.339617 0.686810 0.628067 0.113024
H6    H     H_    0.618716 0.396355 0.385982 0.173133
H7    H     H_    0.700829 0.372659 0.444134 0.135050
H8    H     H_    0.653670 0.311468 0.363642 0.121271
H9    H     H_    0.521118 0.929013 0.637098 0.185714
H10   H     H_    0.396921 0.876163 0.630225 0.189170
H11   H     H_    0.456478 0.816401 0.682714 0.148899
H12   H     H_    0.804060 0.723400 0.436713 0.243379
H13   H     H_    0.656166 0.149876 0.404574 0.203708
H14   H     H_    0.715499 0.233344 0.467493 0.143808
H15   H     H_    0.659300 0.116811 0.509429 0.210500
H16   H     H_    0.257208 0.873977 0.545931 0.373486
H17   H     H_    0.478792 0.991168 0.252681 0.392731
H18   H     H_    0.290649 0.139269 0.743430 0.390424
H19   H     H_    0.792340 0.899766 0.323142 0.390501
H20   H     H_    0.188023 0.574899 0.264012 0.399615
H21   H     H_    0.819832 0.418566 0.725654 0.395860
H22   H     H_    0.939713 0.920781 0.525320 0.401692
H23   H     H_    0.178397 0.633708 0.461126 0.186798
H24   H     H_    0.059259 0.084537 0.435883 0.401672
H25   H     H_    0.488324 0.741226 0.944997 0.375648
H26   H     H_    0.414844 0.251084 0.020765 0.372580
H27   H     H_    0.557500 0.708593 0.260571 0.223926
H28   H     H_    0.482695 0.719566 0.188616 0.165406
H29   H     H_    0.433267 0.654582 0.283659 0.226912
H30   H     H_    0.521317 0.279157 0.808744 0.138154
H31   H     H_    0.439985 0.295355 0.746863 0.218095
H32   H     H_    0.561003 0.336454 0.709616 0.231061
H33   H     H_    0.824041 0.367521 0.529194 0.186734
H34   H     H_    0.541914 0.634887 0.729762 0.171391
H35   H     H_    0.501002 0.379062 0.264922 0.175881
H36   H     H_    0.482283 0.636887 0.087821 0.177664
H37   H     H_    0.543592 0.369265 0.906963 0.179172
H38   H     H_    0.272996 0.777424 0.340055 0.389629
N1    N     N_2   0.485199 0.505821 0.013354 -0.135703
N2    N     N_2   0.557557 0.506894 0.980056 -0.134156
N3    N     N_R   0.488960 0.284450 0.509710 -0.257832
N4    N     N_R   0.511040 0.715550 0.490290 -0.243384
N5    N     N_2   0.481060 0.012590 0.523427 -0.197877
N6    N     N_2   0.513672 0.987308 0.466799 -0.129442
O1    O     O_R   0.504130 0.580750 0.382440 -0.462034
O2    O     O_2   0.179984 0.850192 0.403436 -0.166352
O3    O     O_3   0.214004 0.740119 0.320292 -0.453976
O4    O     O_2   0.817796 0.149338 0.566932 -0.227910
O5    O     O_2   0.926320 0.206213 0.666250 -0.195540
O6    O     O_3   0.786717 0.251427 0.661174 -0.488027
O7    O     O_2   0.261590 0.992239 0.634322 -0.209202
O8    O     O_2   0.226523 0.042629 0.502996 -0.141222
O9    O     O_3   0.304258 0.928561 0.512332 -0.460593
O10   O     O_2   0.639569 0.016089 0.313319 -0.211037
O11   O     O_2   0.569952 0.875081 0.254022 -0.253372
O12   O     O_R   0.495870 0.419250 0.617560 -0.442295
O13   O     O_3   0.462917 0.949997 0.304063 -0.474331
O14   O     O_2   0.338305 0.298884 0.641339 -0.303505
O15   O     O_2   0.233010 0.157863 0.602404 -0.204586
O16   O     O_3   0.343499 0.148174 0.704879 -0.523165
O17   O     O_2   0.721079 0.807815 0.466498 -0.259281
O18   O     O_2   0.672139 0.717127 0.356789 -0.323450
O19   O     O_3   0.727168 0.892728 0.327561 -0.417519
O20   O     O_2   0.306527 0.627737 0.385176 -0.324154
O21   O     O_2   0.283273 0.486963 0.329941 -0.284198
O22   O     O_3   0.155654 0.549306 0.318097 -0.463034
O23   O     O_R   0.496670 0.435250 0.388990 -0.540935
O24   O     O_2   0.725858 0.515420 0.666159 -0.276320
O25   O     O_2   0.698224 0.374111 0.610472 -0.298448
O26   O     O_3   0.852328 0.451057 0.672874 -0.466445
O27   O     O_2   0.060875 0.837103 0.524313 -0.203771
O28   O     O_2   0.019577 0.888383 0.395189 -0.183547
O29   O     O_3   0.905983 0.855255 0.520377 -0.452523
O30   O     O_2   0.978092 0.106720 0.569762 -0.165103
O31   O     O_2   0.939990 0.170939 0.444572 -0.216440
O32   O     O_3   0.093347 0.148917 0.444216 -0.464878
O33   O     O_2   0.641731 0.704550 0.943056 -0.220156
O34   O     O_R   0.503330 0.564750 0.611010 -0.538766
O35   O     O_2   0.610026 0.765430 0.814223 -0.246497
O36   O     O_3   0.472677 0.682512 0.923807 -0.514639
O37   O     O_2   0.579900 0.346268 0.072091 -0.255840
O38   O     O_2   0.456690 0.251785 0.176825 -0.238062
O39   O     O_3   0.409691 0.304155 0.041878 -0.484634
O40   O     O_R   0.635650 0.613550 0.494890 -0.422851
O41   O     O_R   0.364350 0.386450 0.505110 -0.450917
O42   O     O_R   0.628200 0.468050 0.501440 -0.496493
O43   O     O_R   0.371800 0.531950 0.498560 -0.491795
O44   O     O_2   0.071195 0.778670 0.309167 -0.178210
S1    S     S_3+6 0.132610 0.763607 0.368776 0.117838
S2    S     S_3+6 0.016032 0.175450 0.495667 0.118070
S3    S     S_3+6 0.573521 0.687855 0.882092 0.057866
S4    S     S_3+6 0.486015 0.330305 0.109968 0.059816
S5    S     S_3+6 0.866839 0.229578 0.609035 0.079887
S6    S     S_3+6 0.295912 0.019284 0.547453 0.143605
S7    S     S_3+6 0.556612 0.927190 0.318047 0.091042
S8    S     S_3+6 0.329865 0.207583 0.621992 0.060210
S9    S     S_3+6 0.670813 0.797538 0.393265 0.061403
S10   S     S_3+6 0.235937 0.535926 0.373332 0.014382
S11   S     S_3+6 0.770457 0.465748 0.620643 0.024161
S12   S     S_3+6 0.983669 0.825848 0.472926 0.115722

loop_
_geom_bond_atom_site_label_1
_geom_bond_atom_site_label_2
_ccdc_geom_bond_type
Cu1   O1    S    
C47   S5    S    
C25   C31   A    
C27   S12   S    
C23   C45   A    
C27   C29   A    
C14   C18   A    
C2    C4    A    
N5    N6    D    
C4    S3    S    
O20   S10   D    
C12   C49   S    
C15   C19   A    
O5    S5    D    
C12   O34   A    
C17   C26   S    
C21   S7    S    
C2    C49   A    
C41   H6    S    
C24   N4    A    
O6    S5    S    
C38   C39   A    
C11   C14   A    
C6    N2    S    
H22   O29   S    
C33   C36   A    
C31   S11   S    
C15   C42   S    
C1    O23   A    
O22   S10   S    
C13   C40   S    
C46   H30   S    
H17   O13   S    
Cu1   O34   S    
C40   H4    S    
C10   C46   S    
Cu2   O42   S    
C31   C33   A    
C2    H34   S    
O21   S10   D    
C37   C47   A    
H26   O39   S    
C42   H10   S    
C11   N3    A    
O36   S3    S    
C48   C50   A    
O28   S12   D    
C29   H12   S    
C45   S1    S    
C18   N5    S    
O13   S7    S    
O14   S8    D    
C3    C50   A    
H2    O6    S    
C25   C29   A    
C30   H1    S    
C8    H37   S    
Cu1   Cu2   S    
C32   C35   A    
O17   S9    D    
C44   H28   S    
O44   S1    D    
C41   H7    S    
C4    C6    A    
C44   H29   S    
C1    O1    A    
N1    N2    D    
C5    C7    A    
C26   C32   A    
C6    C8    A    
O30   S2    D    
O10   S7    D    
O16   S8    S    
O31   S2    D    
C35   C39   A    
H25   O36   S    
O29   S12   S    
O8    S6    D    
O11   S7    D    
Cu1   O40   S    
C7    H36   S    
O4    S5    D    
C43   H13   S    
C40   H3    S    
O19   S9    S    
Cu2   O41   S    
H19   O19   S    
C36   C45   A    
C17   O43   A    
C42   H9    S    
C5    N1    S    
H18   O16   S    
C50   H35   S    
C46   H32   S    
C43   H15   S    
O39   S4    S    
C22   S8    S    
C26   C30   A    
C13   C15   A    
O2    S1    D    
H24   O32   S    
C22   N3    A    
C20   S6    S    
C23   H23   S    
C28   S2    S    
H16   O9    S    
C16   O40   A    
H38   O3    S    
O35   S3    D    
C12   O12   A    
C16   C25   S    
C7    C9    A    
O27   S12   D    
C9    C44   S    
C40   H5    S    
C35   C37   A    
C34   C38   A    
O3    S1    S    
C44   H27   S    
C16   O42   A    
C3    S4    S    
C41   H8    S    
C20   C22   A    
C3    C5    A    
C1    C48   S    
O33   S3    D    
C27   C36   A    
O37   S4    D    
C33   C38   A    
Cu2   N3    S    
C13   N4    A    
O26   S11   S    
C28   C30   A    
O15   S8    D    
C28   C37   A    
C43   H14   S    
C23   C39   A    
O9    S6    S    
C11   C41   S    
C18   C20   A    
O24   S11   D    
C24   S9    S    
Cu1   N4    S    
O38   S4    D    
C46   H31   S    
Cu2   O23   S    
O25   S11   D    
C32   S10   S    
Cu2   O12   S    
C9    C48   A    
C8    C10   A    
H21   O26   S    
C21   C24   A    
H20   O22   S    
C17   O41   A    
C34   C47   A    
O18   S9    D    
C10   C49   A    
O32   S2    S    
C42   H11   S    
C34   H33   S    
C19   N6    S    
O7    S6    D    
C14   C43   S    
C19   C21   A    
Cu1   O43   S    
