data_mof_unit_41421.cif
_audit_creation_date              2013-03-05T15:51:00-0500
_audit_creation_method            fapswitch 2.2
_symmetry_space_group_name_H-M    P1
_symmetry_Int_Tables_number       1
_space_group_crystal_system       triclinic
_cell_length_a                    7.04032
_cell_length_b                    17.982668
_cell_length_c                    18.930424
_cell_angle_alpha                 109.237281
_cell_angle_beta                  91.190462
_cell_angle_gamma                 90.003543
_cell_volume                      2262.28904499

loop_
_atom_site_label
_atom_site_type_symbol
_atom_site_description
_atom_site_fract_x
_atom_site_fract_y
_atom_site_fract_z
_atom_type_partial_charge
O1    O     O_R   0.505810 0.439670 0.562310 -0.593346
O2    O     O_R   0.169070 0.404920 0.411210 -0.563845
O3    O     O_R   0.005550 0.560330 0.437690 -0.600459
C1    C     C_R   0.338568 0.381230 0.384408 0.955517
O4    O     O_R   0.175650 0.430000 0.560110 -0.578166
O5    O     O_R   0.012170 0.585580 0.587650 -0.585007
C2    C     C_R   0.345375 0.415071 0.581496 0.906380
O6    O     O_R   0.499180 0.414420 0.412350 -0.608075
O7    O     O_3   0.341430 0.551020 0.508860 -0.268443
V1    V     V_3+5 0.063930 0.490540 0.498360 1.197493
O8    O     O_R   0.682850 0.595080 0.588790 -0.564041
C3    C     C_R   0.853600 0.616788 0.618380 1.044388
O9    O     O_R   0.676280 0.570000 0.439890 -0.601259
C4    C     C_R   0.843022 0.581840 0.415742 1.032218
V2    V     V_3+5 0.564760 0.509460 0.501640 1.191608
O10   O     O_3   0.837130 0.448980 0.491140 -0.274468
C5    C     C_R   0.068807 0.867557 0.184841 -0.136688
C6    C     C_R   0.921199 0.865947 0.131794 -0.245874
C7    C     C_R   0.764804 0.815617 0.125136 -0.149818
C8    C     C_R   0.749780 0.768434 0.170684 0.163026
C9    C     C_R   0.894070 0.770020 0.223822 0.039510
C10   C     C_R   0.054623 0.819763 0.231300 0.057671
C11   C     C_R   0.589450 0.720813 0.164776 -0.161194
C12   C     C_R   0.572750 0.673459 0.209694 -0.207101
C13   C     C_R   0.718556 0.670750 0.261373 0.077791
C14   C     C_R   0.876893 0.722149 0.270011 0.012768
C15   C     C_R   0.019444 0.725526 0.324321 0.152630
C16   C     C_R   0.176287 0.775533 0.332337 -0.209754
C17   C     C_R   0.193788 0.822036 0.286791 -0.172178
C18   C     C_R   0.712728 0.618436 0.304242 0.142209
C19   C     C_R   0.849899 0.627960 0.363292 -0.183777
C20   C     C_R   0.002803 0.680149 0.371117 -0.306675
H1    H     H_    0.653657 0.812942 0.083793 0.153325
H2    H     H_    0.474551 0.720870 0.125753 0.141263
H3    H     H_    0.440073 0.642085 0.204516 0.135540
H4    H     H_    0.110728 0.685477 0.414302 0.172801
H5    H     H_    0.286234 0.778924 0.374266 0.139408
H6    H     H_    0.316783 0.860317 0.296579 0.164100
C21   C     C_3   0.744427 0.803822 0.748084 -0.277169
C22   C     C_3   0.899530 0.772460 0.690028 -0.012130
H7    H     H_    0.648057 0.853818 0.754384 0.155231
C23   C     C_3   0.868994 0.687756 0.690709 -0.382056
C24   C     C_3   0.710725 0.719020 0.748083 -0.075562
C25   C     C_3   0.855421 0.732573 0.812897 0.181848
C26   C     C_3   0.016158 0.700838 0.756273 0.217708
C27   C     C_3   0.053829 0.785861 0.753018 0.182609
C28   C     C_3   0.897434 0.816169 0.810787 -0.276385
C29   C     C_3   0.544847 0.264306 0.294347 -0.068259
C30   C     C_3   0.428014 0.186604 0.266475 -0.224913
H8    H     H_    0.469414 0.135225 0.283197 0.143991
H9    H     H_    0.674826 0.273542 0.330408 0.146598
C31   C     C_3   0.417551 0.192986 0.186594 -0.128953
C32   C     C_3   0.534189 0.270481 0.214490 -0.157310
C33   C     C_3   0.350570 0.318575 0.236026 -0.225966
C34   C     C_3   0.233560 0.241590 0.207697 0.295258
C35   C     C_3   0.242193 0.234794 0.286910 -0.048708
C36   C     C_3   0.358154 0.311202 0.314582 -0.172925
H10   H     H_    0.647992 0.290552 0.185722 0.127443
H11   H     H_    0.315728 0.373354 0.223712 0.121305
C37   C     C_R   0.398267 0.098329 0.791697 -0.289092
C38   C     C_R   0.410652 0.133901 0.869656 -0.174486
C39   C     C_R   0.403296 0.216816 0.901828 0.171433
C40   C     C_R   0.383087 0.263158 0.853771 0.117374
C41   C     C_R   0.379255 0.226630 0.774749 -0.042938
C42   C     C_R   0.384669 0.143449 0.743186 0.112316
C43   C     C_R   0.368068 0.345582 0.882857 -0.276819
C44   C     C_R   0.358133 0.391837 0.836522 -0.064746
C45   C     C_R   0.358762 0.356534 0.757914 0.085014
C46   C     C_R   0.369205 0.273598 0.727147 0.041232
C47   C     C_R   0.369685 0.237653 0.648616 0.135158
C48   C     C_R   0.371517 0.155620 0.618060 -0.287192
C49   C     C_R   0.375026 0.107983 0.663871 0.217070
C50   C     C_R   0.345825 0.401748 0.709330 -0.206612
C51   C     C_R   0.355324 0.366325 0.631400 -0.118570
C52   C     C_R   0.365857 0.284102 0.601382 -0.195813
H12   H     H_    0.402049 0.034723 0.769809 0.134599
H13   H     H_    0.370870 0.376167 0.942460 0.166985
H14   H     H_    0.324876 0.464532 0.731847 0.125685
H15   H     H_    0.368130 0.256306 0.541121 0.120052
H16   H     H_    0.368225 0.128266 0.557699 0.147124
O11   O     O_R   0.271890 0.085690 0.087580 -0.579364
O12   O     O_R   0.595690 0.070020 0.939870 -0.587331
O13   O     O_R   0.758900 0.914390 0.912370 -0.600345
C53   C     C_R   0.425549 0.082676 0.916758 0.932200
O14   O     O_R   0.602020 0.095100 0.088770 -0.600333
O15   O     O_R   0.765280 0.939660 0.062330 -0.575470
C54   C     C_R   0.433089 0.120380 0.115741 0.908532
O16   O     O_R   0.265520 0.060430 0.937620 -0.598267
O17   O     O_3   0.429560 0.949050 0.991100 -0.277873
V3    V     V_3+5 0.707160 0.009450 0.001650 1.150930
O18   O     O_R   0.094540 0.929890 0.060190 -0.590320
C55   C     C_R   0.927369 0.915424 0.082115 0.990730
O19   O     O_R   0.088200 0.904800 0.911290 -0.610632
C56   C     C_R   0.917471 0.885760 0.881122 0.943475
V4    V     V_3+5 0.206300 0.990390 0.998440 1.157493
O20   O     O_3   0.934030 0.050940 0.008900 -0.294498
C57   C     C_2   0.233221 0.921212 0.193318 1.019276
O21   O     O_2   0.394421 0.895097 0.185321 -0.677010
O22   O     O_R   0.202663 0.001373 0.207973 -0.756359
H17   H     H_    0.324837 0.029881 0.206027 0.309589
C58   C     C_2   0.547033 0.665171 0.725959 1.013164
O23   O     O_2   0.422054 0.678524 0.686529 -0.640471
O24   O     O_R   0.565785 0.590179 0.731789 -0.822250
H18   H     H_    0.485301 0.549633 0.693299 0.309348
C59   C     C_3   0.803711 0.727198 0.890366 -0.427251
C60   C     C_3   0.791941 0.644391 0.895353 -0.759575
H19   H     H_    0.749916 0.600900 0.841200 0.324608
H20   H     H_    0.929607 0.626096 0.913440 0.249402
H21   H     H_    0.686674 0.643513 0.937968 0.256535
H22   H     H_    0.906680 0.762087 0.933892 0.174200
H23   H     H_    0.663374 0.755720 0.905247 0.195557
C61   C     C_3   0.133383 0.637866 0.774144 -0.275447
C62   C     C_3   0.261416 0.674469 0.843806 -0.864980
H24   H     H_    0.334860 0.728142 0.842330 0.228146
H25   H     H_    0.180891 0.691634 0.895941 0.241282
H26   H     H_    0.369187 0.632068 0.848270 0.303849
H27   H     H_    0.038486 0.593672 0.784439 0.180690
H28   H     H_    0.208258 0.602695 0.724310 0.197146
C63   C     C_3   0.236654 0.832439 0.750711 -0.307111
C64   C     C_3   0.296311 0.823677 0.670444 -0.803385
H29   H     H_    0.262784 0.764359 0.630313 0.290476
H30   H     H_    0.223133 0.867768 0.651000 0.246014
H31   H     H_    0.448597 0.834724 0.666516 0.239951
H32   H     H_    0.212681 0.896071 0.780236 0.171271
H33   H     H_    0.352258 0.814364 0.781576 0.187682
C65   C     C_3   0.070536 0.245302 0.156123 -0.553378
C66   C     C_3   0.921796 0.185288 0.153246 -0.663343
H34   H     H_    0.977909 0.125354 0.141541 0.303052
H35   H     H_    0.851464 0.200129 0.207517 0.229300
H36   H     H_    0.823021 0.188754 0.108527 0.251723
H37   H     H_    0.004304 0.304565 0.176165 0.198263
H38   H     H_    0.124639 0.235787 0.099161 0.205682
C67   C     C_2   0.087231 0.209325 0.327517 0.942768
O25   O     O_2   0.016683 0.143699 0.300546 -0.614843
O26   O     O_R   0.028189 0.259284 0.396867 -0.801840
H39   H     H_    0.924788 0.234883 0.418819 0.316372
C68   C     C_3   0.421211 0.254969 0.986739 -0.389668
C69   C     C_3   0.620669 0.288707 0.010391 -0.880949
H40   H     H_    0.725988 0.240288 0.997125 0.264810
H41   H     H_    0.660582 0.330768 0.981431 0.266898
H42   H     H_    0.626143 0.320323 0.071559 0.239036
H43   H     H_    0.311887 0.300919 0.007861 0.184212
H44   H     H_    0.392779 0.212669 0.016543 0.163359
C70   C     C_2   0.367811 0.477454 0.873485 0.992720
O27   O     O_2   0.498013 0.514294 0.859143 -0.669307
O28   O     O_R   0.237601 0.514979 0.928385 -0.806691
H45   H     H_    0.263948 0.573535 0.951523 0.310040
C71   C     C_3   0.362643 0.019871 0.625496 -0.429656
C72   C     C_3   0.558358 0.982200 0.618367 -0.775976
H46   H     H_    0.652724 0.008290 0.586309 0.260236
H47   H     H_    0.624375 0.990842 0.674258 0.267772
H48   H     H_    0.544241 0.918078 0.587820 0.259898
H49   H     H_    0.265164 0.993379 0.655846 0.203245
H50   H     H_    0.299002 0.005890 0.568286 0.204969
C73   C     C_3   0.587325 0.544599 0.279225 -0.364143
C74   C     C_3   0.708659 0.471039 0.247019 -0.924163
H51   H     H_    0.826525 0.482473 0.213682 0.262006
H52   H     H_    0.768392 0.450781 0.292237 0.251163
H53   H     H_    0.619901 0.423345 0.208840 0.247105
H54   H     H_    0.500040 0.539609 0.325468 0.204441
H55   H     H_    0.482688 0.543717 0.234933 0.184429
C75   C     C_2   0.886773 0.798024 0.622077 0.975061
O29   O     O_2   0.879183 0.868186 0.630023 -0.682088
O30   O     O_R   0.877017 0.742290 0.550581 -0.831699
H56   H     H_    0.860784 0.767626 0.510322 0.317001

loop_
_geom_bond_atom_site_label_1
_geom_bond_atom_site_label_2
_geom_bond_distance
_ccdc_geom_bond_type
C34   C35   1.544103 S    
C25   C59   1.551828 S    
O19   C56   1.315568 A    
C10   C17   1.412101 A    
C50   C51   1.404091 A    
V4    O20   2.184752 S    
C4    C19   1.490196 S    
C1    O6    1.296795 A    
C66   H35   1.101084 S    
C57   O21   1.221394 D    
C26   C61   1.522779 S    
O26   H39   1.013839 S    
C21   H7    1.102569 S    
C32   C33   1.541115 S    
C73   H55   1.100704 S    
C22   C27   1.554610 S    
C14   C15   1.408515 A    
C65   C66   1.490971 S    
C20   H4    1.085077 S    
O30   H56   1.013239 S    
C59   H22   1.110196 S    
O28   H45   1.013770 S    
C72   H47   1.109412 S    
O5    C3    1.308286 A    
C61   H27   1.106050 S    
O11   V4    2.014837 S    
C60   H19   1.099614 S    
V2    O10   2.184739 S    
C31   C54   1.538772 S    
C65   H37   1.112689 S    
C35   C36   1.528603 S    
C6    C7    1.402253 A    
C43   H13   1.079870 S    
C61   C62   1.537325 S    
C3    C23   1.535426 S    
O24   H18   1.008133 S    
C33   C34   1.541115 S    
O8    V2    2.013109 S    
C29   H9    1.109188 S    
O15   C55   1.312372 A    
C7    C8    1.400159 A    
C45   C46   1.413633 A    
C1    C36   1.504253 S    
C50   H14   1.078725 S    
C8    C11   1.396953 A    
C47   C48   1.396026 A    
O1    V2    2.008964 S    
O7    V1    2.209166 S    
C25   C28   1.545611 S    
C62   H26   1.097304 S    
C11   H2    1.084307 S    
C22   C23   1.542583 S    
C43   C44   1.394404 A    
C68   H44   1.106555 S    
C40   C43   1.405680 A    
O19   V4    2.012869 S    
O9    C4    1.311025 A    
C38   C39   1.414115 A    
C71   H50   1.112339 S    
C44   C70   1.467237 S    
C48   H16   1.084748 S    
C57   O22   1.392901 S    
C9    C14   1.421475 A    
C64   H30   1.101840 S    
C35   C67   1.502553 S    
C2    C51   1.486169 S    
C75   O30   1.394023 S    
C33   H11   1.110782 S    
O14   C54   1.324465 A    
C29   C32   1.552149 S    
C59   H23   1.111304 S    
C73   C74   1.530224 S    
C12   H3    1.077086 S    
C51   C52   1.400982 A    
C44   C45   1.412524 A    
C58   O23   1.216493 D    
C29   C36   1.547151 S    
C17   H6    1.080396 S    
C12   C13   1.415234 A    
C70   O28   1.397630 S    
C7    H1    1.084857 S    
C72   H48   1.109990 S    
C21   C22   1.536163 S    
O4    C2    1.309721 A    
C21   C24   1.543297 S    
C45   C50   1.415805 A    
C63   H32   1.110289 S    
O13   C56   1.299283 A    
C38   C53   1.480533 S    
C37   C38   1.402609 A    
C23   C26   1.556720 S    
C74   H51   1.111926 S    
O17   V4    1.727347 S    
O2    C1    1.321256 A    
C24   C25   1.534127 S    
C24   C58   1.467579 S    
C42   C49   1.424969 A    
C22   C75   1.502986 S    
C39   C40   1.427077 A    
C19   C20   1.401138 A    
C34   C65   1.507092 S    
C65   H38   1.110244 S    
C32   H10   1.102918 S    
C30   C31   1.554036 S    
C5    C6    1.423610 A    
C41   C46   1.424529 A    
C71   C72   1.524243 S    
C63   C64   1.542348 S    
O11   C54   1.310326 A    
O3    C4    1.310630 A    
C69   H41   1.109605 S    
C63   H33   1.102214 S    
C18   C73   1.528021 S    
C37   C42   1.413568 A    
O6    V2    2.013714 S    
O12   C53   1.312222 A    
O9    V2    2.011152 S    
O15   V3    1.998126 S    
C67   O25   1.221662 D    
C52   H15   1.084651 S    
C71   H49   1.106680 S    
C66   H34   1.101407 S    
O2    V1    2.004334 S    
O18   C55   1.310159 A    
C31   C32   1.546652 S    
C21   C28   1.546552 S    
C62   H24   1.103660 S    
C59   C60   1.525174 S    
C13   C18   1.431691 A    
O13   V3    2.008271 S    
C27   C28   1.537101 S    
C16   C17   1.391899 A    
C73   H54   1.107298 S    
O1    C2    1.313866 A    
C74   H53   1.105049 S    
C25   C26   1.550059 S    
C53   O16   1.306869 A    
C70   O27   1.217230 D    
C69   H42   1.108990 S    
O5    V1    2.008200 S    
O14   V3    2.004273 S    
C64   H31   1.098859 S    
V3    O20   1.746406 S    
C75   O29   1.221737 D    
C30   C35   1.553177 S    
C68   C69   1.528147 S    
C5    C10   1.422640 A    
O12   V3    1.992845 S    
O22   H17   1.008819 S    
C6    C55   1.493678 S    
C41   C42   1.417018 A    
C74   H52   1.110341 S    
C13   C14   1.420004 A    
C66   H36   1.102017 S    
C48   C49   1.405409 A    
O3    V1    1.998332 S    
C49   C71   1.511556 S    
C72   H46   1.110928 S    
C61   H28   1.093339 S    
C31   C34   1.546945 S    
C18   C19   1.428458 A    
C60   H20   1.106934 S    
C16   H5    1.084195 S    
C29   C30   1.550289 S    
C28   C56   1.500995 S    
C37   H12   1.081134 S    
C27   C63   1.544837 S    
C39   C68   1.528136 S    
O7    V2    1.729499 S    
C46   C47   1.412399 A    
O16   V4    2.015253 S    
C69   H40   1.111177 S    
C15   C20   1.394631 A    
C11   C12   1.394033 A    
O18   V4    2.011304 S    
C40   C41   1.421546 A    
C26   C27   1.573057 S    
O4    V1    1.992686 S    
C8    C9    1.408291 A    
C47   C52   1.410358 A    
C58   O24   1.394880 S    
C30   H8    1.108025 S    
C23   C24   1.544430 S    
C15   C16   1.397857 A    
C67   O26   1.396037 S    
C64   H29   1.108704 S    
V1    O10   1.746510 S    
O17   V3    2.209037 S    
C9    C10   1.416919 A    
C5    C57   1.478743 S    
C60   H21   1.110634 S    
C68   H43   1.109159 S    
O8    C3    1.318767 A    
C62   H25   1.101467 S    
C33   C36   1.535744 S    
