data_mof_unit_49115.cif
_audit_creation_date              2012-12-11T16:20:11-0500
_audit_creation_method            fapswitch 2.2
_symmetry_space_group_name_H-M    P1
_symmetry_Int_Tables_number       1
_space_group_crystal_system       triclinic
_cell_length_a                    13.878458
_cell_length_b                    14.07691
_cell_length_c                    29.95649
_cell_angle_alpha                 97.21865
_cell_angle_beta                  90.408054
_cell_angle_gamma                 119.459346
_cell_volume                      5039.27065443

loop_
_atom_site_label
_atom_site_type_symbol
_atom_type_description
_atom_site_fract_x
_atom_site_fract_y
_atom_site_fract_z
_atom_type_partial_charge
C1    C     C_R   0.721986 0.100373 0.568470 0.554430
C2    C     C_1   0.339386 0.655545 0.762152 0.173215
C3    C     C_2   0.183820 0.727064 0.283902 0.597260
C4    C     C_2   0.291560 0.479258 0.292470 0.656251
C5    C     C_2   0.236266 0.431224 0.195676 0.620808
C6    C     C_2   0.543678 0.694616 0.297413 0.626135
C7    C     C_2   0.510451 0.630044 0.199983 0.655970
C8    C     C_2   0.131754 0.976561 0.157427 0.620853
C9    C     C_2   0.123302 0.979772 0.309139 0.652080
C10   C     C_2   0.527167 0.694919 0.583205 0.619489
C11   C     C_2   0.519404 0.335904 0.097635 0.661712
C12   C     C_2   0.764531 0.002384 0.171609 0.637628
C13   C     C_1   0.335466 0.656023 0.722130 0.144322
C14   C     C_2   0.790057 0.011483 0.073628 0.614912
C15   C     C_2   0.482991 0.586362 0.805064 0.623679
C16   C     C_R   0.382236 0.785544 0.550082 0.561406
C17   C     C_R   0.306132 0.604962 0.898403 -0.027984
C18   C     C_3   0.307320 0.011409 0.720382 0.160583
C19   C     C_3   0.235676 0.151502 0.714870 0.034523
C20   C     C_3   0.216597 0.139219 0.767997 0.333954
C21   C     C_1   0.300854 0.184643 0.880854 0.126775
C22   C     C_3   0.334267 0.126247 0.703409 -0.148207
C23   C     C_3   0.319938 0.032042 0.774322 0.114208
C24   C     C_R   0.332034 0.661297 0.674674 -0.013548
C25   C     C_3   0.318488 0.141250 0.792734 -0.030147
C26   C     C_3   0.424708 0.242550 0.781249 0.081896
C27   C     C_3   0.446241 0.222001 0.731189 -0.111810
C28   C     C_R   0.399790 0.117089 0.569978 0.569510
C29   C     C_1   0.310445 0.156273 0.842254 0.156912
C30   C     C_1   0.352402 0.125172 0.654677 0.167935
C31   C     C_1   0.371910 0.126110 0.615520 0.195764
C32   C     C_3   0.736646 0.203868 0.724324 0.392091
C33   C     C_3   0.947150 0.292053 0.720660 0.157911
C34   C     C_3   0.965215 0.286297 0.772818 -0.121512
C35   C     C_R   0.244952 0.666003 0.652207 0.045773
C36   C     C_1   0.891914 0.209647 0.880404 0.105646
C37   C     C_3   0.830958 0.187341 0.702158 -0.043496
C38   C     C_3   0.762055 0.235493 0.777261 0.144870
C39   C     C_3   0.850910 0.205310 0.792311 -0.135531
C40   C     C_R   0.719875 0.096035 0.442989 0.550535
C41   C     C_3   0.811301 0.081548 0.770263 0.155404
C42   C     C_3   0.826921 0.082506 0.718216 0.096726
C43   C     C_1   0.865652 0.210082 0.841910 0.082654
C44   C     C_1   0.810195 0.167728 0.652262 0.161894
C45   C     C_1   0.777705 0.140254 0.612852 0.123408
C46   C     C_R   0.258440 0.693781 0.608603 -0.127146
C47   C     C_3   0.300230 0.755393 0.270355 0.205733
C48   C     C_3   0.265833 0.558468 0.271817 -0.096175
C49   C     C_3   0.250138 0.540659 0.218884 -0.102091
C50   C     C_1   0.307603 0.605879 0.110480 0.091628
C51   C     C_3   0.346899 0.684027 0.290100 -0.070155
C52   C     C_R   0.382082 0.785035 0.425362 0.555041
C53   C     C_3   0.299091 0.737563 0.216893 0.103828
C54   C     C_3   0.334454 0.649902 0.200269 -0.074899
C55   C     C_3   0.456912 0.695932 0.219718 -0.071619
C56   C     C_3   0.466341 0.722694 0.272685 -0.095361
C57   C     C_R   0.277308 0.686791 0.836305 0.267988
C58   C     C_1   0.324467 0.631635 0.150632 0.062213
C59   C     C_1   0.354443 0.705696 0.339729 0.110724
C60   C     C_1   0.364329 0.734637 0.379667 0.117063
C61   C     C_R   0.360630 0.135700 0.400666 0.003063
C62   C     C_R   0.436142 0.224229 0.379676 -0.108312
C63   C     C_R   0.414769 0.228201 0.334834 -0.102030
C64   C     C_R   0.397377 0.115268 0.442910 0.555379
C65   C     C_R   0.316954 0.145308 0.310491 0.024836
C66   C     C_R   0.233688 0.062649 0.332432 0.068833
C67   C     C_R   0.257689 0.058073 0.377575 -0.105237
C68   C     C_R   0.259323 0.663399 0.880943 0.074655
C69   C     C_R   0.227789 0.076941 0.144742 0.020756
C70   C     C_R   0.224446 0.104728 0.101896 -0.160389
C71   C     C_R   0.416072 0.254133 0.115300 0.054231
C72   C     C_R   0.417964 0.230107 0.159614 0.226406
C73   C     C_R   0.321739 0.145992 0.174833 0.019907
C74   C     C_1   0.315669 0.140286 0.222360 0.179648
C75   C     C_1   0.312794 0.140707 0.262412 0.152744
C76   C     C_R   0.356441 0.718264 0.587380 -0.033305
C77   C     C_R   0.314401 0.197416 0.087910 -0.071026
C78   C     C_R   0.781603 0.135857 0.403491 -0.058309
C79   C     C_R   0.381973 0.585581 0.873538 -0.121860
C80   C     C_R   0.801833 0.064222 0.373261 -0.089538
C81   C     C_R   0.833815 0.089366 0.330460 0.219534
C82   C     C_R   0.847917 0.187914 0.317895 0.059847
C83   C     C_R   0.837926 0.264717 0.349343 0.222332
C84   C     C_R   0.804797 0.238415 0.392043 -0.093597
C85   C     C_R   0.912961 0.309492 0.168915 -0.089885
C86   C     C_R   0.931887 0.314771 0.123804 -0.130014
C87   C     C_R   0.839879 0.113578 0.107522 0.029393
C88   C     C_R   0.434453 0.695486 0.607364 0.043892
C89   C     C_R   0.822827 0.108956 0.154015 0.050912
C90   C     C_R   0.401759 0.609856 0.829577 0.015356
C91   C     C_R   0.863099 0.208068 0.184336 0.019084
C92   C     C_1   0.860740 0.207414 0.231960 0.103753
C93   C     C_1   0.857775 0.202244 0.271508 0.148797
C94   C     C_R   0.901331 0.218377 0.093186 -0.000050
C95   C     C_R   0.284153 0.230091 0.923687 0.565431
C96   C     C_R   0.266644 0.548249 0.938537 0.585935
C97   C     C_R   0.944014 0.222208 0.923998 0.567564
C98   C     C_R   0.292339 0.240967 0.048690 0.561945
C99   C     C_R   0.274398 0.557624 0.064539 0.554535
C100  C     C_R   0.422683 0.670598 0.651558 -0.106240
C101  C     C_R   0.342333 0.653564 0.809967 0.011679
C102  C     C_R   0.953798 0.232205 0.050017 0.576971
C103  C     C_2   0.193025 0.700393 0.909172 0.652872
C104  C     C_2   0.271729 0.267804 0.702923 0.598178
C105  C     C_2   0.128716 0.075955 0.683232 0.713858
C106  C     C_2   0.510279 0.333509 0.713678 0.650579
C107  C     C_2   0.369498 0.954984 0.699661 0.726302
C108  C     C_2   0.044942 0.300174 0.695545 0.614887
C109  C     C_2   0.039364 0.396500 0.803701 0.694719
C110  C     C_2   0.695674 0.997224 0.782678 0.736050
C111  C     C_2   0.142358 0.650019 0.673523 0.687614
Cl1   Cl    Cl    0.169197 0.901050 0.701452 -0.460432
Cl2   Cl    Cl    0.742187 0.952633 0.682051 -0.386329
Cl3   Cl    Cl    0.610581 0.078571 0.711928 -0.555153
Cl4   Cl    Cl    0.894650 0.032686 0.793145 -0.408290
Cl5   Cl    Cl    0.384267 0.899598 0.294397 -0.529334
Cl6   Cl    Cl    0.376322 0.863256 0.192742 -0.443347
Cl7   Cl    Cl    0.540377 0.304210 0.196616 -0.444107
Cl8   Cl    Cl    0.857581 0.390378 0.335035 -0.539813
Cl9   Cl    Cl    0.845209 0.990715 0.291963 -0.519291
Cl10  Cl    Cl    0.097850 0.013351 0.779446 -0.339573
Cl11  Cl    Cl    0.190227 0.242637 0.796811 -0.585463
Cl12  Cl    Cl    0.545114 0.286761 0.818981 -0.397170
Cl13  Cl    Cl    0.436945 0.031581 0.800429 -0.430490
Cl14  Cl    Cl    0.219138 0.758597 0.813081 -0.359972
Cl15  Cl    Cl    0.802401 0.376531 0.798068 -0.286351
Cl16  Cl    Cl    0.706235 0.294920 0.697894 -0.402006
Cl17  Cl    Cl    0.950155 0.416594 0.709799 -0.364902
Cr1   Cr    Cr6+3 0.583400 0.162540 0.509180 1.090317
Cr2   Cr    Cr6+3 0.584070 0.916690 0.495550 1.103065
Cr3   Cr    Cr6+3 0.332550 0.920810 0.495240 1.092729
Cr4   Cr    Cr6+3 0.086700 0.177000 0.983690 1.115444
Cr5   Cr    Cr6+3 0.336880 0.419130 0.994740 1.111525
Cr6   Cr    Cr6+3 0.084850 0.422220 0.995960 1.101190
H1    H     H_    0.504126 0.189719 0.731116 0.230159
H2    H     H_    0.195632 0.705593 0.592643 0.205504
H3    H     H_    0.507011 0.776797 0.207687 0.210629
H4    H     H_    0.148805 0.055693 0.079948 0.191366
H5    H     H_    0.197953 0.991493 0.394233 0.170586
H6    H     H_    0.515834 0.285969 0.396670 0.163846
H7    H     H_    0.478085 0.292656 0.318287 0.186550
H8    H     H_    0.978327 0.395759 0.113694 0.153026
H9    H     H_    0.943036 0.385396 0.192305 0.153771
H10   H     H_    0.790897 0.295347 0.415159 0.173585
H11   H     H_    0.785029 0.984964 0.381474 0.190973
H12   H     H_    0.411698 0.314407 0.787143 0.242828
H13   H     H_    0.422154 0.545502 0.887607 0.197202
H14   H     H_    0.485609 0.660279 0.668471 0.193182
H15   H     H_    0.249787 0.961117 0.786775 0.258963
H16   H     H_    0.180274 0.772780 0.969654 0.353261
H17   H     H_    0.350651 0.433360 0.721500 0.353431
H18   H     H_    0.058703 0.007794 0.619576 0.370961
H19   H     H_    0.542160 0.423886 0.662793 0.364432
H20   H     H_    0.437293 0.918504 0.645328 0.357424
H21   H     H_    0.195568 0.409813 0.678408 0.353045
H22   H     H_    0.088010 0.327484 0.848037 0.333709
H23   H     H_    0.013697 0.243802 0.772954 0.162503
H24   H     H_    0.568657 0.840567 0.773386 0.365865
H25   H     H_    0.985977 0.623179 0.664825 0.408767
H26   H     H_    0.062819 0.660108 0.326137 0.392913
H27   H     H_    0.257191 0.379549 0.339942 0.346608
H28   H     H_    0.279586 0.348060 0.148063 0.332659
H29   H     H_    0.571847 0.625393 0.347402 0.360776
H30   H     H_    0.617178 0.621608 0.156420 0.393240
H31   H     H_    0.077841 0.847454 0.191847 0.372957
H32   H     H_    0.010748 0.934575 0.256457 0.395899
H33   H     H_    0.580097 0.657752 0.524487 0.343376
H34   H     H_    0.909706 0.093114 0.713693 0.226991
H35   H     H_    0.618857 0.371774 0.046239 0.353735
H36   H     H_    0.769586 0.869613 0.187186 0.391709
H37   H     H_    0.712674 0.937702 0.011594 0.357892
H38   H     H_    0.579768 0.609939 0.752835 0.396691
H39   H     H_    0.684468 0.189555 0.793650 0.244769
H40   H     H_    0.213219 0.704501 0.201603 0.152811
H41   H     H_    0.182753 0.537048 0.283376 0.168864
H42   H     H_    0.166373 0.529652 0.210675 0.055063
H43   H     H_    0.512580 0.814191 0.280468 0.176215
O1    O     O_R   0.494060 0.188820 0.559230 -0.479024
O2    O     O_R   0.170530 0.527770 0.952070 -0.454965
O3    O     O_R   0.987720 0.318450 0.945940 -0.482616
O4    O     O_R   0.678470 0.153390 0.554100 -0.486002
O5    O     O_R   0.976400 0.159230 0.032040 -0.482072
O6    O     O_R   0.193740 0.188470 0.029020 -0.511769
O7    O     O_R   0.364860 0.335530 0.039220 -0.464186
O8    O     O_R   0.330170 0.515340 0.044800 -0.476576
O9    O     O_R   0.177230 0.536000 0.050040 -0.510129
O10   O     O_R   0.993930 0.326080 0.036750 -0.506898
O11   O     O_3   0.169480 0.339450 0.991460 -0.295307
O12   O     O_R   0.480140 0.824500 0.445020 -0.490538
O13   O     O_R   0.697870 0.003940 0.549410 -0.476380
O14   O     O_R   0.480980 0.827230 0.535590 -0.457432
O15   O     O_R   0.309390 0.811640 0.537920 -0.502953
O16   O     O_R   0.341810 0.023400 0.546180 -0.488352
O17   O     O_R   0.493150 0.185870 0.461540 -0.512362
O18   O     O_R   0.677630 0.150660 0.463530 -0.503637
O19   O     O_R   0.696960 0.000990 0.451710 -0.505571
O20   O     O_2   0.103629 0.684910 0.893961 -0.375303
O21   O     O_R   0.232757 0.751912 0.953607 -0.674608
O22   O     O_2   0.266624 0.279237 0.663236 -0.459516
O23   O     O_R   0.308480 0.808690 0.440220 -0.482625
O24   O     O_R   0.320239 0.362742 0.735194 -0.654941
O25   O     O_2   0.037330 0.035937 0.697715 -0.377760
O26   O     O_R   0.134321 0.056884 0.636556 -0.649949
O27   O     O_2   0.581851 0.413419 0.738858 -0.357753
O28   O     O_R   0.493141 0.345794 0.669233 -0.665140
O29   O     O_2   0.379699 0.889224 0.719474 -0.407604
O30   O     O_R   0.399774 0.962902 0.655286 -0.688879
O31   O     O_2   0.034487 0.227707 0.665494 -0.499478
O32   O     O_R   0.146274 0.398625 0.704240 -0.631517
O33   O     O_2   0.049043 0.483012 0.795225 -0.285431
O34   O     O_R   0.340970 0.020670 0.455610 -0.493924
O35   O     O_R   0.098742 0.401217 0.842585 -0.674745
O36   O     O_2   0.653129 0.021529 0.814414 -0.465851
O37   O     O_R   0.643370 0.887600 0.761605 -0.528695
O38   O     O_2   0.137911 0.654504 0.714363 -0.337748
O39   O     O_R   0.050180 0.631338 0.646572 -0.643798
O40   O     O_2   0.131188 0.760018 0.264088 -0.445128
O41   O     O_R   0.139286 0.670904 0.320531 -0.681958
O42   O     O_2   0.359318 0.455113 0.277169 -0.414754
O43   O     O_R   0.234462 0.431625 0.329094 -0.663376
O44   O     O_2   0.162828 0.345202 0.206431 -0.502584
O45   O     O_3   0.500010 0.000010 0.499990 -0.284560
O46   O     O_R   0.301274 0.426514 0.161032 -0.660153
O47   O     O_2   0.638839 0.730120 0.286585 -0.420589
O48   O     O_R   0.511034 0.635799 0.333948 -0.667895
O49   O     O_2   0.492471 0.544959 0.213501 -0.360247
O50   O     O_R   0.583369 0.669515 0.166285 -0.659904
O51   O     O_2   0.038147 0.944384 0.140789 -0.443594
O52   O     O_R   0.148960 0.916123 0.187053 -0.614954
O53   O     O_2   0.062914 0.896751 0.325554 -0.447654
O54   O     O_R   0.086329 0.997673 0.269193 -0.638375
O55   O     O_2   0.616080 0.725065 0.603930 -0.430902
O56   O     O_R   0.969690 0.151000 0.934080 -0.462707
O57   O     O_R   0.511250 0.654993 0.537030 -0.673209
O58   O     O_2   0.580321 0.425559 0.120226 -0.442911
O59   O     O_R   0.546876 0.309723 0.054781 -0.655250
O60   O     O_2   0.673892 0.973008 0.186469 -0.449178
O61   O     O_R   0.815792 0.938593 0.173091 -0.574830
O62   O     O_2   0.790151 0.928525 0.081653 -0.426839
O63   O     O_R   0.743441 0.011126 0.032011 -0.661158
O64   O     O_2   0.516207 0.529758 0.820029 -0.419741
O65   O     O_R   0.524430 0.631046 0.765728 -0.702838
O66   O     O_R   0.187530 0.180840 0.938210 -0.481577
O67   O     O_R   0.358160 0.327300 0.941250 -0.480850
O68   O     O_R   0.323950 0.507710 0.953980 -0.507577

loop_
_geom_bond_atom_site_label_1
_geom_bond_atom_site_label_2
_ccdc_geom_bond_type
H33   O57   S    
C5    O44   D    
C55   C56   S    
C15   O64   D    
H32   O54   S    
H35   O59   S    
H22   O35   S    
C41   C42   S    
Cr6   O9    S    
Cr3   O15   S    
C19   C20   S    
C68   C103  S    
C7    C55   S    
C108  O31   D    
C85   H9    S    
C106  O28   S    
C63   C65   A    
Cr1   O17   S    
C85   C91   A    
C39   C41   S    
C53   C54   S    
C44   C45   T    
C65   C66   A    
C81   Cl9   S    
C10   C88   S    
C26   C27   S    
Cr3   O45   S    
C32   Cl16  S    
C110  O37   S    
C111  O38   D    
C14   C87   S    
Cr2   O19   S    
Cr1   O45   S    
Cr4   O6    S    
C40   O19   A    
C14   O62   D    
C99   O9    A    
C53   Cl6   S    
C105  O26   S    
H37   O63   S    
C84   H10   S    
C57   Cl14  S    
C49   C54   S    
C6    O48   S    
C17   C79   A    
C51   C56   S    
C103  O20   D    
C83   Cl8   S    
C37   C42   S    
C26   H12   S    
C2    C13   T    
C9    C66   S    
C79   C90   A    
Cr4   O11   S    
C86   C94   A    
Cr5   O11   S    
Cr4   O5    S    
C18   C107  S    
C48   C51   S    
H26   O41   S    
C4    O43   S    
C64   O17   A    
H18   O26   S    
C69   C73   A    
C36   C97   S    
C52   O23   A    
C32   C38   S    
Cr6   O2    S    
C89   C91   A    
C109  O35   S    
C67   H5    S    
Cr4   O56   S    
C76   C88   A    
C20   Cl11  S    
H20   O30   S    
Cr2   O12   S    
Cr5   O8    S    
C95   O67   A    
C47   C53   S    
C48   H41   S    
C1    O13   A    
C61   C62   A    
C11   O58   D    
C12   O61   S    
C66   C67   A    
C23   H15   S    
C15   O65   S    
H38   O65   S    
C59   C60   T    
C82   C93   S    
C16   C76   S    
C70   C77   A    
H31   O52   S    
C5    C49   S    
Cr3   O16   S    
C33   C108  S    
C41   Cl4   S    
C107  O29   D    
C46   C76   A    
C38   Cl15  S    
C42   H34   S    
C53   H40   S    
C81   C82   A    
C6    O47   D    
C56   H43   S    
C73   C74   S    
C25   C29   S    
C47   Cl5   S    
C18   Cl1   S    
C10   O57   S    
C24   C35   A    
C74   C75   T    
C18   C23   S    
C102  O5    A    
Cr6   O11   S    
C12   C89   S    
Cr2   O45   S    
C110  O36   D    
C38   C39   S    
C111  O39   S    
C91   C92   S    
C1    O4    A    
C80   C81   A    
C97   O3    A    
C39   C43   S    
C21   C95   S    
C2    C101  S    
C25   C26   S    
C85   C86   A    
C21   C29   T    
C33   Cl17  S    
C33   C37   S    
C34   C39   S    
C13   C24   S    
C9    O53   D    
C103  O21   S    
C50   C58   T    
C98   O6    A    
C61   C64   S    
C90   C101  A    
C62   C63   A    
C16   O14   A    
C100  H14   S    
C8    O52   S    
C61   C67   A    
Cr4   O66   S    
C83   C84   A    
H21   O32   S    
C3    O40   D    
C4    O42   D    
C97   O56   A    
C19   C22   S    
C10   O55   D    
C28   O16   A    
C50   C99   S    
C78   C80   A    
C77   C98   S    
C64   O34   A    
C17   C96   S    
Cr6   O3    S    
C32   C37   S    
Cr5   O7    S    
C20   Cl10  S    
C88   C100  A    
H19   O28   S    
C19   C105  S    
C48   C49   S    
C5    O46   S    
H17   O24   S    
C41   C110  S    
C87   C89   A    
Cr3   O34   S    
C104  O22   D    
C40   C78   S    
C51   C59   S    
C26   Cl12  S    
C57   C68   A    
C109  O33   D    
C96   O68   A    
C71   C77   A    
C42   Cl2   S    
C35   C111  S    
Cr2   O14   S    
C86   H8    S    
C4    C48   S    
C54   C58   S    
C11   O59   S    
Cr1   O4    S    
C54   C55   S    
C16   O15   A    
C17   C68   A    
H25   O39   S    
C22   C30   S    
C24   C100  A    
C107  O30   S    
Cr6   O10   S    
C28   C31   S    
C108  O32   S    
C6    C56   S    
C72   C73   A    
C38   H39   S    
C19   C104  S    
C55   H3    S    
C47   C51   S    
C70   H4    S    
C23   Cl13  S    
C7    O49   D    
H24   O37   S    
C57   C101  A    
Cr1   O1    S    
C63   H7    S    
C102  O10   A    
C27   C106  S    
C9    O54   S    
C22   C27   S    
C95   O66   A    
C32   Cl3   S    
C104  O24   S    
C37   C44   S    
C18   C22   S    
Cr3   O23   S    
C27   H1    S    
C71   C72   A    
Cr5   O67   S    
C8    C69   S    
H29   O48   S    
C15   C90   S    
C14   O63   S    
C1    C45   S    
C105  O25   D    
C30   C31   T    
C7    O50   S    
C8    O51   D    
C3    O41   S    
C12   O60   D    
C3    C47   S    
C92   C93   T    
C99   O8    A    
C33   C34   S    
C79   H13   S    
H30   O50   S    
C11   C71   S    
C52   O12   A    
C23   C25   S    
C96   O2    A    
C98   O7    A    
C69   C70   A    
C80   H11   S    
Cr1   O18   S    
C106  O27   D    
C34   H23   S    
C78   C84   A    
C46   H2    S    
H28   O46   S    
C94   C102  S    
C52   C60   S    
C82   C83   A    
C20   C25   S    
H27   O43   S    
C72   Cl7   S    
C34   C109  S    
H36   O61   S    
C36   C43   T    
C62   H6    S    
C87   C94   A    
C35   C46   A    
C28   O1    A    
H16   O21   S    
C49   H42   S    
C65   C75   S    
Cr2   O13   S    
Cr5   O68   S    
C40   O18   A    
