data_mof_unit_9126.cif
_audit_creation_date              2012-10-26T20:17:10-0400
_audit_creation_method            fapswitch 2.2
_symmetry_space_group_name_H-M    P1
_symmetry_Int_Tables_number       1
_space_group_crystal_system       triclinic
_cell_length_a                    10.642491
_cell_length_b                    11.12112
_cell_length_c                    9.896615
_cell_angle_alpha                 110.507266
_cell_angle_beta                  98.059625
_cell_angle_gamma                 92.101389
_cell_volume                      1081.60445865

loop_
_atom_site_label
_atom_site_type_symbol
_atom_type_description
_atom_site_fract_x
_atom_site_fract_y
_atom_site_fract_z
_atom_type_partial_charge
C1    C     C_R   0.494643 0.254804 0.442246 0.572354
C2    C     C_3   0.123375 0.500668 0.503364 0.034237
C3    C     C_3   0.975626 0.595696 0.621205 -0.149918
C4    C     C_3   0.023907 0.406194 0.379056 -0.135328
C5    C     C_2   0.489850 0.115884 0.415821 0.104415
C6    C     C_2   0.554182 0.877232 0.586184 0.117530
C7    C     C_2   0.524775 0.074116 0.529003 -0.023882
C8    C     C_2   0.481600 0.943196 0.518444 -0.018059
C9    C     C_2   0.507916 0.513725 0.081097 0.061922
C10   C     C_2   0.490015 0.487740 0.918810 0.066678
C11   C     C_3   0.025969 0.405787 0.817506 -0.286269
C12   C     C_R   0.515447 0.743787 0.558205 0.564851
C13   C     C_3   0.968852 0.602873 0.186650 -0.288237
C14   C     C_1   0.351390 0.892370 0.447716 0.202152
C15   C     C_1   0.597639 0.158330 0.668913 0.267928
C16   C     C_3   0.780428 0.905378 0.585028 -0.290876
C17   C     C_3   0.324838 0.036516 0.194893 -0.262035
C18   C     C_1   0.397956 0.383465 0.823579 0.285117
C19   C     C_1   0.597783 0.619962 0.175944 0.274596
C20   C     C_R   0.259758 0.499508 0.501148 0.562140
C21   C     C_R   0.740169 0.501319 0.499044 0.548601
C22   C     C_3   0.051252 0.479986 0.617441 0.153596
C23   C     C_3   0.948210 0.521944 0.382954 0.146539
C24   C     C_3   0.951311 0.384911 0.495953 -0.119789
C25   C     C_3   0.048309 0.616977 0.504395 -0.134958
C26   C     C_3   0.876368 0.501128 0.497043 0.030796
Cu1   Cu    Cu3+1 0.522260 0.521810 0.644920 0.962276
Cu2   Cu    Cu3+1 0.477740 0.478190 0.355080 0.970318
H1    H     H_    0.909144 0.290911 0.492577 0.109775
H2    H     H_    0.948551 0.469151 0.848970 0.144830
H3    H     H_    0.831487 0.461914 0.180251 0.265896
H4    H     H_    0.913437 0.611258 0.087154 0.134828
H5    H     H_    0.050297 0.545048 0.156366 0.144868
H6    H     H_    0.005008 0.701676 0.262809 0.183486
H7    H     H_    0.697528 0.902814 0.760569 0.261767
H8    H     H_    0.870712 0.956069 0.656622 0.139748
H9    H     H_    0.761790 0.943101 0.494671 0.173827
H10   H     H_    0.791970 0.800533 0.539595 0.168960
H11   H     H_    0.478184 0.934769 0.243324 0.261417
H12   H     H_    0.090100 0.711220 0.508283 0.133337
H13   H     H_    0.265141 0.943511 0.160172 0.146413
H14   H     H_    0.336712 0.058401 0.096054 0.160487
H15   H     H_    0.273650 0.113082 0.265793 0.154856
H16   H     H_    0.953942 0.671420 0.720974 0.110867
H17   H     H_    0.045389 0.330564 0.279099 0.112708
H18   H     H_    0.621098 0.628748 0.931319 0.203634
H19   H     H_    0.381083 0.369367 0.068309 0.203484
H20   H     H_    0.169230 0.538844 0.818981 0.254512
H21   H     H_    0.080399 0.395984 0.916731 0.134813
H22   H     H_    0.983935 0.308223 0.743045 0.169517
N1    N     N_2   0.444270 0.445410 0.137360 -0.370844
N2    N     N_1   0.669740 0.706201 0.249819 -0.326646
N3    N     N_2   0.555730 0.554590 0.862640 -0.369123
N4    N     N_2   0.110858 0.459701 0.747253 -0.482372
N5    N     N_2   0.887035 0.542307 0.253758 -0.485511
N6    N     N_1   0.247943 0.851863 0.391886 -0.348394
N7    N     N_1   0.656045 0.224496 0.779779 -0.298028
N8    N     N_2   0.677548 0.928206 0.669627 -0.528524
N9    N     N_2   0.449024 0.026497 0.269791 -0.523767
N10   N     N_1   0.324616 0.298763 0.748686 -0.293949
O1    O     O_R   0.511880 0.332340 0.577400 -0.494906
O2    O     O_R   0.488120 0.667660 0.422600 -0.485038
O3    O     O_R   0.474280 0.295500 0.332650 -0.484916
O4    O     O_R   0.525720 0.704500 0.667350 -0.512244
O5    O     O_R   0.335640 0.518390 0.622350 -0.485855
O6    O     O_R   0.664360 0.481610 0.377650 -0.483025
O7    O     O_R   0.298050 0.481550 0.377590 -0.508084
O8    O     O_R   0.701950 0.518450 0.622410 -0.509501

loop_
_geom_bond_atom_site_label_1
_geom_bond_atom_site_label_2
_ccdc_geom_bond_type
C2    C22   S    
C2    C4    S    
C21   C26   S    
Cu1   N3    S    
C13   H5    S    
Cu1   O5    S    
C6    C8    D    
C21   O6    A    
C12   O2    A    
C9    C10   S    
C6    N8    S    
C13   H4    S    
C14   N6    T    
C21   O8    A    
C9    N1    D    
C16   H9    S    
H11   N9    S    
C13   N5    S    
C7    C15   S    
C13   H6    S    
C22   N4    S    
C11   H22   S    
C16   N8    S    
C16   H8    S    
C23   N5    S    
C15   N7    T    
C11   N4    S    
C17   N9    S    
H7    N8    S    
C12   O4    A    
C1    C5    S    
C1    O3    A    
H18   N3    S    
C18   N10   T    
Cu1   O1    S    
C10   C18   S    
C4    C23   S    
C2    C25   S    
C22   C24   S    
C4    H17   S    
C23   C25   S    
C25   H12   S    
C6    C12   S    
C4    C24   S    
Cu2   N1    S    
C17   H13   S    
C3    H16   S    
C7    C8    S    
Cu1   O4    S    
C5    N9    S    
C2    C20   S    
Cu2   O3    S    
C20   O5    A    
C3    C25   S    
Cu2   O7    S    
C1    O1    A    
C11   H21   S    
C5    C7    D    
C23   C26   S    
C16   H10   S    
C17   H15   S    
H20   N4    S    
C10   N3    D    
C17   H14   S    
C3    C22   S    
C8    C14   S    
Cu1   O8    S    
C20   O7    A    
H3    N5    S    
C24   H1    S    
C19   N2    T    
C9    C19   S    
C3    C26   S    
H19   N1    S    
Cu2   O6    S    
C11   H2    S    
C24   C26   S    
Cu1   Cu2   S    
Cu2   O2    S    
