data_mof_unit_20046.cif
_audit_creation_date              2013-03-05T15:51:07-0500
_audit_creation_method            fapswitch 2.2
_symmetry_space_group_name_H-M    P1
_symmetry_Int_Tables_number       1
_space_group_crystal_system       triclinic
_cell_length_a                    10.665015
_cell_length_b                    12.066695
_cell_length_c                    12.670986
_cell_angle_alpha                 95.462481
_cell_angle_beta                  95.231435
_cell_angle_gamma                 87.289802
_cell_volume                      1615.25501703

loop_
_atom_site_label
_atom_site_type_symbol
_atom_site_description
_atom_site_fract_x
_atom_site_fract_y
_atom_site_fract_z
_atom_type_partial_charge
O1    O     O_R   0.506270 0.421700 0.658830 -0.599866
O2    O     O_R   0.493730 0.578300 0.341170 -0.621285
O3    O     O_R   0.491200 0.609310 0.646410 -0.604610
O4    O     O_R   0.508800 0.390690 0.353590 -0.595234
C1    C     C_R   0.481989 0.523050 0.699480 0.922447
C2    C     C_R   0.517697 0.476913 0.300634 0.893370
O5    O     O_R   0.693580 0.406210 0.506230 -0.565701
O6    O     O_R   0.306420 0.593790 0.493770 -0.569385
O7    O     O_R   0.678510 0.593830 0.493810 -0.560915
O8    O     O_R   0.321490 0.406170 0.506190 -0.542704
C3    C     C_R   0.742676 0.501917 0.503669 0.940095
C4    C     C_R   0.257408 0.498026 0.495725 0.949768
Zn1   Zn    Zn3+2 0.510060 0.374730 0.508290 1.070211
Zn2   Zn    Zn3+2 0.489940 0.625270 0.491710 1.060517
C5    C     C_3   0.972027 0.441818 0.578312 -0.157041
C6    C     C_3   0.028449 0.558279 0.419910 -0.158190
C7    C     C_3   0.054828 0.544027 0.590843 0.432620
C8    C     C_3   0.945319 0.456255 0.407262 0.437828
C9    C     C_3   0.122562 0.494785 0.494379 -0.244097
C10   C     C_3   0.877570 0.505268 0.504022 -0.234238
C11   C     C_3   0.039281 0.392096 0.481208 -0.182001
C12   C     C_3   0.960889 0.608094 0.516829 -0.182601
C13   C     C_R   0.549790 0.460668 0.189401 -0.064394
C14   C     C_R   0.449458 0.540554 0.810765 -0.034688
C15   C     C_R   0.509756 0.652280 0.972405 -0.094244
C16   C     C_R   0.494959 0.349222 0.026050 -0.125653
C17   C     C_R   0.455869 0.645713 0.867028 -0.100469
C18   C     C_R   0.546798 0.355764 0.132327 -0.042521
C19   C     C_R   0.426766 0.449806 0.866337 -0.138322
C20   C     C_R   0.568009 0.554076 0.135904 -0.129959
C21   C     C_R   0.478108 0.449829 0.973336 -0.024647
C22   C     C_R   0.524110 0.552929 0.026825 0.014611
N1    N     N_R   0.523490 0.207800 0.519350 -0.175274
N2    N     N_R   0.476510 0.792200 0.480650 -0.170396
C23   C     C_R   0.358755 0.950551 0.417750 -0.370780
C24   C     C_R   0.646218 0.048954 0.575817 -0.349868
C25   C     C_R   0.380654 0.834233 0.415110 0.550100
C26   C     C_R   0.624243 0.164637 0.578565 0.545564
C27   C     C_R   0.563765 0.860584 0.535708 0.572488
C28   C     C_R   0.437949 0.139392 0.462226 0.573411
C29   C     C_R   0.554722 0.977001 0.526412 -0.150327
C30   C     C_R   0.448829 0.022598 0.469090 -0.132582
H1    H     H_    0.273849 0.983504 0.376736 0.196274
H2    H     H_    0.731668 0.017232 0.617254 0.212308
O9    O     O_3   0.125429 0.583643 0.685611 -0.545075
C31   C     C_3   0.046165 0.631115 0.762695 0.141744
H3    H     H_    0.944930 0.613582 0.743372 0.060424
H4    H     H_    0.055268 0.722847 0.770695 0.175963
C32   C     C_3   0.088107 0.587978 0.869888 -0.804793
H5    H     H_    0.187357 0.608758 0.894526 0.268258
H6    H     H_    0.027605 0.627020 0.931125 0.203709
H7    H     H_    0.079912 0.496237 0.864799 0.240430
O10   O     O_3   0.874208 0.417035 0.312604 -0.540389
C33   C     C_3   0.952971 0.372529 0.233973 0.133544
H8    H     H_    0.944195 0.280761 0.223322 0.167106
H9    H     H_    0.054065 0.390060 0.253344 0.058755
C34   C     C_3   0.910409 0.419267 0.128504 -0.771874
H10   H     H_    0.921260 0.510756 0.135628 0.265127
H11   H     H_    0.968905 0.380593 0.065659 0.192395
H12   H     H_    0.810320 0.401108 0.104559 0.263602
C35   C     C_2   0.940267 0.382984 0.670110 0.606924
H13   H     H_    0.892130 0.429080 0.732665 -0.022552
O11   O     O_2   0.969507 0.284695 0.675848 -0.498694
C36   C     C_2   0.065233 0.616331 0.329279 0.616156
H14   H     H_    0.123976 0.571578 0.272990 -0.021272
O12   O     O_2   0.030379 0.712603 0.318464 -0.499874
C37   C     C_2   0.079253 0.271747 0.462766 0.651759
H15   H     H_    0.047575 0.223345 0.389692 0.005324
O13   O     O_2   0.146223 0.226965 0.530919 -0.447029
C38   C     C_2   0.920097 0.728380 0.533862 0.646236
H16   H     H_    0.950935 0.777786 0.606556 0.009137
O14   O     O_2   0.853118 0.771949 0.464912 -0.456458
C39   C     C_2   0.633878 0.648190 0.198100 0.468338
H17   H     H_    0.586047 0.728458 0.213224 0.084356
O15   O     O_2   0.740804 0.633812 0.238908 -0.505326
C40   C     C_2   0.323276 0.375182 0.822035 0.406650
H18   H     H_    0.274950 0.329149 0.874422 0.077934
O16   O     O_2   0.285161 0.368909 0.727988 -0.482590
C41   C     C_2   0.621484 0.259092 0.174890 0.387371
H19   H     H_    0.627607 0.179388 0.128155 0.118424
O17   O     O_2   0.683169 0.268128 0.261011 -0.531794
C42   C     C_2   0.390453 0.744692 0.821625 0.397809
H20   H     H_    0.406379 0.828304 0.857647 0.126059
O18   O     O_2   0.314868 0.734276 0.743380 -0.528730
C43   C     C_2   0.556532 0.761439 0.019452 0.257098
H21   H     H_    0.657133 0.771712 0.036011 0.099155
O19   O     O_2   0.483879 0.839448 0.042152 -0.592593
C44   C     C_2   0.465964 0.236893 0.971425 0.290690
H22   H     H_    0.473353 0.218343 0.887742 0.072273
O20   O     O_2   0.428831 0.163635 0.019638 -0.582321
O21   O     O_3   0.337386 0.186278 0.403385 -0.592600
C45   C     C_3   0.359464 0.174132 0.294739 0.131234
H23   H     H_    0.346621 0.087310 0.259185 0.141198
H24   H     H_    0.455883 0.196691 0.283229 0.177026
C46   C     C_3   0.266278 0.249979 0.235273 -0.825319
H25   H     H_    0.269637 0.336308 0.274238 0.228404
H26   H     H_    0.288502 0.251181 0.151889 0.263470
H27   H     H_    0.170301 0.218486 0.234807 0.217634
O22   O     O_3   0.663496 0.813991 0.595967 -0.582113
C47   C     C_3   0.641802 0.832511 0.704423 0.106148
H28   H     H_    0.545380 0.811679 0.716144 0.154711
H29   H     H_    0.654796 0.920503 0.736015 0.121952
C48   C     C_3   0.733502 0.760061 0.768891 -0.863122
H30   H     H_    0.830558 0.787354 0.764936 0.231531
H31   H     H_    0.712272 0.769231 0.853244 0.207359
H32   H     H_    0.726177 0.671253 0.737626 0.241080
O23   O     O_3   0.699769 0.234456 0.647180 -0.560168
C49   C     C_3   0.663284 0.227189 0.750842 0.124840
H33   H     H_    0.681731 0.141627 0.776290 0.118643
H34   H     H_    0.561558 0.249978 0.752173 0.147714
C50   C     C_3   0.735031 0.306924 0.832283 -0.818195
H35   H     H_    0.715496 0.394209 0.813008 0.235183
H36   H     H_    0.704718 0.299187 0.912487 0.195146
H37   H     H_    0.837357 0.285401 0.835778 0.275143
O24   O     O_3   0.307704 0.761370 0.346056 -0.579404
C51   C     C_3   0.298310 0.796250 0.241370 0.137070
H38   H     H_    0.388931 0.828377 0.222067 0.155994
H39   H     H_    0.223460 0.862896 0.232933 0.163912
C52   C     C_3   0.264153 0.699973 0.158363 -0.797003
H40   H     H_    0.161125 0.688959 0.150065 0.245366
H41   H     H_    0.289938 0.718858 0.079369 0.241996
H42   H     H_    0.314228 0.621505 0.179640 0.244168

loop_
_geom_bond_atom_site_label_1
_geom_bond_atom_site_label_2
_geom_bond_distance
_ccdc_geom_bond_type
N2    C25   1.366879 A    
C29   C30   1.404792 A    
C50   H35   1.109643 S    
C14   C17   1.396482 A    
C46   H27   1.107906 S    
C27   C29   1.418863 A    
C19   C40   1.492952 S    
C43   H21   1.084940 S    
C49   H33   1.114100 S    
O5    C3    1.294736 A    
C31   C32   1.522383 S    
O1    C1    1.304781 A    
C9    C11   1.545907 S    
C40   O16   1.220029 D    
C34   H11   1.110582 S    
O24   C51   1.422949 S    
C8    C11   1.541110 S    
C26   O23   1.382566 S    
C51   H38   1.113904 S    
C39   H17   1.082057 S    
O4    Zn1   1.986575 S    
C35   O11   1.219216 D    
C18   C41   1.496536 S    
C14   C19   1.398724 A    
C47   H28   1.096413 S    
C8    O10   1.413416 S    
C7    C9    1.533318 S    
C33   H8    1.110052 S    
C48   H31   1.106864 S    
C21   C22   1.443728 A    
C51   H39   1.111531 S    
C32   H6    1.110550 S    
C6    C12   1.538985 S    
O23   C49   1.415186 S    
C38   H16   1.082025 S    
C48   H32   1.110340 S    
C23   H1    1.080569 S    
C15   C22   1.434194 A    
C43   O19   1.220365 D    
C16   C21   1.436680 A    
C11   C37   1.496757 S    
C39   O15   1.220135 D    
C24   C29   1.401133 A    
O2    C2    1.304073 A    
C47   H29   1.108919 S    
C15   C43   1.482443 S    
C31   H4    1.109932 S    
C52   H41   1.108587 S    
C5    C10   1.542218 S    
C7    O9    1.413251 S    
C33   H9    1.109440 S    
C3    C10   1.440718 S    
N1    C28   1.369164 A    
C37   H15   1.082237 S    
C13   C20   1.399228 A    
C40   H18   1.083721 S    
O4    C2    1.302154 A    
O21   C45   1.410500 S    
C41   O17   1.220126 D    
C20   C39   1.486059 S    
C34   H12   1.109021 S    
O9    C31   1.412450 S    
C45   C46   1.517160 S    
N2    C27   1.370474 A    
C37   O13   1.219734 D    
C36   O12   1.219289 D    
O7    Zn2   2.027111 S    
Zn1   N1    2.029860 S    
C27   O22   1.381116 S    
O22   C47   1.409488 S    
C5    C11   1.538836 S    
O6    C4    1.293862 A    
C32   H7    1.109855 S    
C45   H24   1.101897 S    
C5    C35   1.491153 S    
C50   H36   1.107631 S    
C49   C50   1.520773 S    
C13   C18   1.397040 A    
O7    C3    1.285692 A    
O3    Zn2   1.986577 S    
O8    C4    1.285705 A    
C6    C8    1.538515 S    
C10   C12   1.547610 S    
C42   H20   1.081429 S    
C42   O18   1.220119 D    
C24   H2    1.082001 S    
O1    Zn1   1.940993 S    
C48   H30   1.107816 S    
C52   H42   1.108581 S    
C5    C7    1.538253 S    
C31   H3    1.110825 S    
O6    Zn2   2.014273 S    
C23   C25   1.409672 A    
C17   C42   1.490978 S    
N1    C26   1.365025 A    
C44   O20   1.221274 D    
O3    C1    1.303926 A    
O8    Zn1   2.027111 S    
Zn2   N2    2.029860 S    
C52   H40   1.107317 S    
C46   H26   1.105270 S    
O10   C33   1.412374 S    
C25   O24   1.392115 S    
C15   C17   1.401290 A    
C16   C18   1.404799 A    
C7    C12   1.540891 S    
C51   C52   1.525164 S    
C36   H14   1.081194 S    
C24   C26   1.402141 A    
C19   C21   1.415113 A    
C20   C22   1.417274 A    
C34   H10   1.109727 S    
C1    C14   1.476117 S    
C6    C9    1.541762 S    
C2    C13   1.473458 S    
C4    C9    1.439015 S    
C28   C30   1.418885 A    
C45   H23   1.109838 S    
C23   C30   1.399706 A    
C49   H34   1.107772 S    
C50   H37   1.107674 S    
C8    C10   1.535616 S    
C47   C48   1.515735 S    
C28   O21   1.379622 S    
C35   H13   1.079104 S    
O2    Zn2   1.940990 S    
C41   H19   1.082868 S    
O5    Zn1   2.014271 S    
C44   H22   1.071931 S    
C16   C44   1.494630 S    
C32   H5    1.109375 S    
C46   H25   1.110219 S    
C38   O14   1.219872 D    
C6    C36   1.491531 S    
C12   C38   1.496773 S    
C33   C34   1.522738 S    
