data_mof_unit_30748.cif
_audit_creation_date              2012-12-10T19:14:56-0500
_audit_creation_method            fapswitch 2.2
_symmetry_space_group_name_H-M    P1
_symmetry_Int_Tables_number       1
_space_group_crystal_system       triclinic
_cell_length_a                    16.006244
_cell_length_b                    14.734866
_cell_length_c                    10.901353
_cell_angle_alpha                 90.489254
_cell_angle_beta                  90.282934
_cell_angle_gamma                 90.167693
_cell_volume                      2570.94616912

loop_
_atom_site_label
_atom_site_type_symbol
_atom_type_description
_atom_site_fract_x
_atom_site_fract_y
_atom_site_fract_z
_atom_type_partial_charge
C1    C     C_1   0.252130 0.500381 0.504398 -0.192924
C2    C     C_1   0.747801 0.501201 0.503315 -0.198260
C3    C     C_R   0.495862 0.500236 0.873402 -0.142243
C4    C     C_R   0.497093 0.498927 0.128342 -0.146602
C5    C     C_R   0.500162 0.902846 0.499375 0.066283
C6    C     C_R   0.499491 0.097085 0.500942 0.064353
C7    C     C_R   0.442268 0.951453 0.428107 -0.174196
C8    C     C_R   0.557469 0.048436 0.572022 -0.171669
C9    C     C_R   0.557552 0.952557 0.571708 -0.163294
C10   C     C_R   0.441921 0.047341 0.428918 -0.165053
C11   C     C_R   0.955836 0.570607 0.440336 0.098363
C12   C     C_R   0.044043 0.444356 0.588060 0.103259
C13   C     C_R   0.044249 0.567896 0.436384 0.101070
C14   C     C_R   0.955580 0.442117 0.584338 0.100765
C15   C     C_R   0.340935 0.499941 0.501782 0.821620
C16   C     C_R   0.659043 0.500214 0.500599 0.820339
C17   C     C_R   0.498265 0.499605 0.261841 0.800606
C18   C     C_R   0.498304 0.500260 0.738767 0.819258
C19   C     C_R   0.912547 0.505388 0.510517 0.015510
C20   C     C_R   0.087333 0.504849 0.510582 0.015613
C21   C     C_1   0.500199 0.802778 0.499288 0.078826
C22   C     C_1   0.499656 0.197211 0.500747 0.063303
C23   C     C_1   0.822638 0.503110 0.506442 -0.023213
C24   C     C_1   0.177278 0.502160 0.507181 -0.024750
C25   C     C_R   0.404639 0.636839 0.109301 0.119757
C26   C     C_R   0.482298 0.328563 0.892604 0.114392
C27   C     C_R   0.501227 0.672127 0.899504 0.132909
C28   C     C_R   0.582465 0.355700 0.103537 0.145108
C29   C     C_R   0.401812 0.724721 0.056439 0.124083
C30   C     C_R   0.528552 0.254349 0.940391 0.075444
C31   C     C_R   0.450783 0.742503 0.950034 0.090876
C32   C     C_R   0.581497 0.268640 0.044915 0.150376
C33   C     C_R   0.489182 0.582635 0.942738 0.000716
C34   C     C_R   0.527303 0.423437 0.060163 -0.043979
C35   C     C_R   0.463723 0.573657 0.063550 0.002662
C36   C     C_R   0.500025 0.416855 0.939212 0.014891
Cu1   Cu    Cu3+1 0.500000 0.589220 0.500000 0.944712
Cu2   Cu    Cu3+1 0.500000 0.410780 0.500000 0.947810
H1    H     H_    0.396693 0.082706 0.372806 0.129290
H2    H     H_    0.602670 0.917168 0.628003 0.120659
H3    H     H_    0.602956 0.084626 0.627807 0.120535
H4    H     H_    0.397088 0.915240 0.371783 0.122607
N1    N     N_1   0.500000 0.276710 0.500000 -0.168256
N2    N     N_1   0.500000 0.723290 0.500000 -0.171396
O1    O     O_R   0.380310 0.575320 0.500020 -0.588942
O2    O     O_R   0.619690 0.424680 0.499980 -0.578454
O3    O     O_R   0.619690 0.575320 0.499980 -0.565281
O4    O     O_R   0.380310 0.424680 0.500020 -0.565567
O5    O     O_R   0.499990 0.575350 0.319650 -0.580829
O6    O     O_R   0.500010 0.424650 0.680350 -0.579539
O7    O     O_R   0.500010 0.575350 0.680350 -0.577210
O8    O     O_R   0.499990 0.424650 0.319650 -0.574244
C37   C     C_3   0.093543 0.630967 0.352874 -0.387422
C38   C     C_3   0.125404 0.714555 0.422619 -0.842506
H5    H     H_    0.072441 0.753356 0.462015 0.244070
H6    H     H_    0.168271 0.694494 0.497962 0.261952
H7    H     H_    0.160170 0.759195 0.358943 0.237950
H8    H     H_    0.147430 0.594706 0.312311 0.202315
H9    H     H_    0.056602 0.652585 0.272140 0.205639
C39   C     C_3   0.906063 0.372740 0.658007 -0.383750
C40   C     C_3   0.875996 0.413326 0.779405 -0.840426
H10   H     H_    0.929862 0.437123 0.835720 0.245311
H11   H     H_    0.833452 0.471390 0.762903 0.257906
H12   H     H_    0.841425 0.360969 0.831573 0.238249
H13   H     H_    0.851334 0.347765 0.604396 0.204087
H14   H     H_    0.942514 0.310490 0.676182 0.202693
C41   C     C_3   0.906819 0.643413 0.372206 -0.380244
C42   C     C_3   0.877177 0.609386 0.246626 -0.843171
H15   H     H_    0.930663 0.584995 0.191047 0.244356
H16   H     H_    0.831641 0.553217 0.257269 0.258422
H17   H     H_    0.845913 0.665408 0.196928 0.241470
H18   H     H_    0.851838 0.665255 0.426683 0.205691
H19   H     H_    0.943664 0.706574 0.361369 0.202504
C43   C     C_3   0.093250 0.383894 0.675221 -0.388194
C44   C     C_3   0.121292 0.296505 0.611522 -0.841084
H20   H     H_    0.066602 0.258163 0.575202 0.243705
H21   H     H_    0.164073 0.311901 0.534562 0.263341
H22   H     H_    0.155004 0.253168 0.678161 0.237306
H23   H     H_    0.148855 0.420689 0.711488 0.200132
H24   H     H_    0.057201 0.367208 0.758577 0.203641
C45   C     C_3   0.632272 0.191177 0.099758 -0.408249
C46   C     C_3   0.591519 0.155845 0.216443 -0.811531
H25   H     H_    0.592975 0.208437 0.289483 0.253004
H26   H     H_    0.525484 0.136353 0.198880 0.256171
H27   H     H_    0.625912 0.095466 0.249781 0.239616
H28   H     H_    0.640014 0.133259 0.036053 0.203737
H29   H     H_    0.697129 0.212730 0.120813 0.201317
C47   C     C_3   0.442285 0.831167 0.879868 -0.417451
C48   C     C_3   0.386641 0.817055 0.767155 -0.810503
H30   H     H_    0.412055 0.762528 0.707676 0.265822
H31   H     H_    0.322589 0.797082 0.794730 0.249879
H32   H     H_    0.383079 0.880939 0.714116 0.241619
H33   H     H_    0.415206 0.886595 0.935265 0.213388
H34   H     H_    0.503627 0.857905 0.850344 0.185697
C49   C     C_3   0.526254 0.163883 0.871070 -0.386885
C50   C     C_3   0.475213 0.091157 0.936515 -0.858204
H35   H     H_    0.417711 0.120231 0.977384 0.250878
H36   H     H_    0.456692 0.037844 0.869099 0.242090
H37   H     H_    0.512466 0.058183 0.009365 0.253878
H38   H     H_    0.499106 0.172586 0.778122 0.196340
H39   H     H_    0.590348 0.139288 0.852087 0.181094
C51   C     C_3   0.355813 0.800684 0.123559 -0.398693
C52   C     C_3   0.269665 0.819610 0.068294 -0.842995
H40   H     H_    0.234868 0.755551 0.050292 0.253727
H41   H     H_    0.233010 0.861828 0.133355 0.234437
H42   H     H_    0.275095 0.857551 0.981485 0.255751
H43   H     H_    0.348444 0.784077 0.222095 0.188384
H44   H     H_    0.393914 0.863663 0.126970 0.186807
C53   C     C_3   0.332575 0.603552 0.189189 -0.391281
C54   C     C_3   0.289788 0.519257 0.135022 -0.883216
H45   H     H_    0.270340 0.531931 0.038730 0.259982
H46   H     H_    0.331928 0.459760 0.138285 0.255944
H47   H     H_    0.233505 0.502288 0.189246 0.235864
H48   H     H_    0.353765 0.589139 0.282521 0.229899
H49   H     H_    0.282718 0.654756 0.199469 0.213840
C55   C     C_3   0.401380 0.308303 0.820685 -0.346196
C56   C     C_3   0.330391 0.375866 0.841813 -0.845424
H50   H     H_    0.319830 0.385502 0.941429 0.252883
H51   H     H_    0.343195 0.442055 0.798342 0.243638
H52   H     H_    0.272112 0.348306 0.800268 0.237234
H53   H     H_    0.413054 0.299619 0.721287 0.232072
H54   H     H_    0.375748 0.242275 0.851362 0.200348
C57   C     C_3   0.582547 0.699325 0.835239 -0.346083
C58   C     C_3   0.655466 0.632764 0.849854 -0.828748
H55   H     H_    0.663588 0.614008 0.947672 0.245176
H56   H     H_    0.646579 0.570689 0.793454 0.244942
H57   H     H_    0.714063 0.665588 0.818518 0.230704
H58   H     H_    0.571384 0.714444 0.737122 0.231180
H59   H     H_    0.606070 0.763139 0.878131 0.174170
C59   C     C_3   0.657220 0.384405 0.182474 -0.347483
C60   C     C_3   0.733653 0.402374 0.102359 -0.902103
H60   H     H_    0.746859 0.344499 0.039797 0.248031
H61   H     H_    0.723209 0.463814 0.046000 0.258430
H62   H     H_    0.789337 0.413725 0.161567 0.247150
H63   H     H_    0.646160 0.448255 0.233574 0.194453
H64   H     H_    0.672217 0.333012 0.252663 0.211433

loop_
_geom_bond_atom_site_label_1
_geom_bond_atom_site_label_2
_ccdc_geom_bond_type
C7    C10   A    
C12   C43   S    
C49   C50   S    
C60   H62   S    
C45   C46   S    
C37   H9    S    
C57   C58   S    
C37   C38   S    
C27   C33   A    
C32   C45   S    
C11   C19   A    
C30   C49   S    
C55   H54   S    
C56   H51   S    
Cu1   O7    S    
Cu2   O8    S    
C3    C33   A    
C6    C22   S    
C50   H37   S    
C55   C56   S    
C16   O3    A    
C3    C18   S    
C41   H18   S    
C7    H4    S    
C40   H11   S    
C54   H45   S    
C54   H46   S    
C38   H5    S    
C20   C24   S    
C42   H15   S    
C50   H36   S    
C51   H44   S    
C1    C15   S    
C48   H31   S    
C2    C16   S    
Cu2   O4    S    
C45   H28   S    
C25   C53   S    
C4    C35   A    
C39   H14   S    
C43   H24   S    
C57   H59   S    
C40   H10   S    
C15   O4    A    
C17   O8    A    
C11   C41   S    
C18   O7    A    
C13   C37   S    
C25   C29   A    
C38   H6    S    
C55   H53   S    
C27   C31   A    
C41   C42   S    
C28   C32   A    
C8    H3    S    
C43   C44   S    
C56   H52   S    
C17   O5    A    
C5    C7    A    
C27   C57   S    
C49   H38   S    
C8    C9    A    
C6    C8    A    
C9    H2    S    
C10   H1    S    
C40   H12   S    
C19   C23   S    
C44   H20   S    
C5    C9    A    
Cu1   Cu2   S    
C21   N2    T    
Cu1   O5    S    
C22   N1    T    
C50   H35   S    
C12   C20   A    
C51   H43   S    
C52   H41   S    
C48   H32   S    
C44   H21   S    
C54   H47   S    
C45   H29   S    
C53   H48   S    
C25   C35   A    
C58   H57   S    
C41   H19   S    
C4    C17   S    
C26   C36   A    
C59   H63   S    
C12   C14   A    
C39   H13   S    
C26   C30   A    
C46   H26   S    
C43   H23   S    
Cu1   O3    S    
C15   O1    A    
C16   O2    A    
C60   H60   S    
C2    C23   T    
C18   O6    A    
C58   H56   S    
C47   H33   S    
C31   C47   S    
C13   C20   A    
C14   C19   A    
C59   H64   S    
C60   H61   S    
C6    C10   A    
C37   H8    S    
Cu2   O6    S    
C46   H27   S    
C14   C39   S    
Cu1   N2    S    
C59   C60   S    
Cu2   N1    S    
C29   C31   A    
C56   H50   S    
C30   C32   A    
C11   C13   A    
C28   C59   S    
C57   H58   S    
C3    C36   A    
C42   H17   S    
C33   C35   A    
C29   C51   S    
C52   H42   S    
C34   C36   A    
C4    C34   A    
C51   C52   S    
C44   H22   S    
C26   C55   S    
Cu2   O2    S    
C53   H49   S    
C28   C34   A    
C5    C21   S    
C47   C48   S    
C1    C24   T    
C42   H16   S    
C46   H25   S    
C52   H40   S    
C47   H34   S    
C39   C40   S    
C48   H30   S    
C53   C54   S    
Cu1   O1    S    
C49   H39   S    
C58   H55   S    
C38   H7    S    
