data_mof_unit_8375.cif
_audit_creation_date              2012-10-26T18:50:47-0400
_audit_creation_method            fapswitch 2.2
_symmetry_space_group_name_H-M    P1
_symmetry_Int_Tables_number       1
_space_group_crystal_system       triclinic
_cell_length_a                    12.311496
_cell_length_b                    13.178636
_cell_length_c                    17.248603
_cell_angle_alpha                 104.966149
_cell_angle_beta                  74.879803
_cell_angle_gamma                 116.605165
_cell_volume                      2382.96159066

loop_
_atom_site_label
_atom_site_type_symbol
_atom_type_description
_atom_site_fract_x
_atom_site_fract_y
_atom_site_fract_z
_atom_type_partial_charge
C1    C     C_R   0.144531 0.713605 0.506891 0.529389
C2    C     C_R   0.032729 0.519379 0.265026 0.000921
C3    C     C_R   0.733805 0.975837 0.389355 -0.132278
C4    C     C_R   0.987498 0.503098 0.652451 0.565309
C5    C     C_R   0.774539 0.164581 0.470131 0.004236
C6    C     C_R   0.179479 0.916800 0.558706 -0.100805
C7    C     C_R   0.256888 0.032468 0.573715 0.383517
C8    C     C_R   0.382716 0.069232 0.544888 -0.093983
C9    C     C_R   0.433492 0.990653 0.497274 -0.029872
C10   C     C_R   0.351965 0.875321 0.473746 0.004994
C11   C     C_R   0.562386 0.023104 0.471376 0.033507
C12   C     C_R   0.895338 0.538163 0.797897 -0.185370
C13   C     C_R   0.606758 0.944384 0.415691 0.055461
C14   C     C_R   0.523839 0.836155 0.385552 -0.138766
C15   C     C_R   0.398334 0.802536 0.413254 -0.109535
C16   C     C_R   0.855931 0.286210 0.487689 0.551852
C17   C     C_R   0.648855 0.131272 0.499996 -0.131258
C18   C     C_R   0.817437 0.085912 0.416005 -0.128379
C19   C     C_R   0.225973 0.836751 0.510692 -0.063320
C20   C     C_R   0.642079 0.674569 0.630063 -0.137831
C21   C     C_R   0.249978 0.352059 0.389526 0.058281
C22   C     C_R   0.348692 0.319834 0.365628 -0.151525
C23   C     C_R   0.995059 0.605897 0.171633 0.004592
C24   C     C_R   0.448630 0.375678 0.407091 -0.127920
C25   C     C_R   0.451002 0.465015 0.473481 0.002772
C26   C     C_R   0.347402 0.494906 0.495844 0.199710
C27   C     C_R   0.551502 0.525440 0.518617 -0.008125
C28   C     C_R   0.015165 0.501083 0.348196 0.538549
C29   C     C_R   0.545996 0.614027 0.584681 0.038875
C30   C     C_R   0.444520 0.641664 0.605421 -0.137070
C31   C     C_R   0.347520 0.583322 0.562239 -0.036435
C32   C     C_R   0.657980 0.502259 0.501555 0.044568
C33   C     C_R   0.743705 0.647382 0.610256 0.048126
C34   C     C_R   0.976283 0.582242 0.249546 -0.131473
C35   C     C_R   0.982498 0.506296 0.738922 0.014660
C36   C     C_R   0.065175 0.478980 0.763761 0.375302
C37   C     C_R   0.062077 0.486341 0.845955 -0.063563
C38   C     C_R   0.977340 0.521424 0.904582 -0.022207
C39   C     C_R   0.892413 0.544956 0.880222 -0.135758
C40   C     C_R   0.940197 0.679937 0.159996 0.026547
C41   C     C_R   0.814843 0.656133 0.189761 -0.112335
C42   C     C_R   0.763755 0.726872 0.180002 -0.120721
C43   C     C_R   0.837195 0.822113 0.140867 -0.107842
C44   C     C_R   0.961884 0.846755 0.111352 -0.113056
C45   C     C_R   0.111590 0.482216 0.202325 -0.139340
C46   C     C_R   0.013433 0.776281 0.120968 -0.081746
C47   C     C_R   0.129475 0.503305 0.124068 -0.126369
C48   C     C_R   0.069116 0.561815 0.107676 0.028758
C49   C     C_2   0.974013 0.530918 0.991485 -0.120685
C50   C     C_2   0.076555 0.564867 0.022151 -0.143771
Cu1   Cu    Cu3+1 0.900140 0.524980 0.518800 0.929605
Cu2   Cu    Cu3+1 0.099860 0.475020 0.481200 0.967092
F1    F     F_    0.148825 0.444587 0.709216 -0.605428
F2    F     F_    0.210344 0.109159 0.619186 -0.600906
H1    H     H_    0.187020 0.470109 0.075454 0.113198
H2    H     H_    0.920326 0.616383 0.298887 0.132185
H3    H     H_    0.439612 0.709144 0.656039 0.115464
H4    H     H_    0.638491 0.742443 0.680615 0.101092
H5    H     H_    0.670157 0.436678 0.452407 0.118501
H6    H     H_    0.172767 0.308133 0.357051 0.118728
H7    H     H_    0.522407 0.347130 0.385992 0.097498
H8    H     H_    0.347717 0.251267 0.314798 0.101514
H9    H     H_    0.274006 0.610505 0.583688 0.186276
H10   H     H_    0.157743 0.435376 0.213476 0.121474
H11   H     H_    0.165794 0.584970 0.982920 0.116781
H12   H     H_    0.914718 0.110816 0.391955 0.127822
H13   H     H_    0.825420 0.570652 0.925013 0.128869
H14   H     H_    0.830087 0.558916 0.780606 0.142426
H15   H     H_    0.884986 0.509617 0.031164 0.140788
H16   H     H_    0.125107 0.462966 0.863424 0.139655
H17   H     H_    0.756482 0.582352 0.219939 0.101612
H18   H     H_    0.667161 0.707781 0.202741 0.101214
H19   H     H_    0.797516 0.876893 0.133513 0.110773
H20   H     H_    0.018774 0.920783 0.081271 0.109357
H21   H     H_    0.110552 0.797363 0.098621 0.112708
H22   H     H_    0.556087 0.776909 0.340492 0.098247
H23   H     H_    0.768159 0.916312 0.346500 0.117526
H24   H     H_    0.621023 0.192351 0.545374 0.123383
H25   H     H_    0.083180 0.889581 0.586302 0.153494
H26   H     H_    0.437156 0.160181 0.559173 0.137826
H27   H     H_    0.338493 0.719874 0.384653 0.150935
H28   H     H_    0.818279 0.693806 0.644979 0.123542
N1    N     N_R   0.749710 0.562810 0.547300 -0.234858
N2    N     N_R   0.249640 0.437820 0.453210 -0.233396
O1    O     O_R   0.025490 0.682370 0.523640 -0.505458
O2    O     O_R   0.194150 0.640180 0.491890 -0.539828
O3    O     O_R   0.905900 0.523560 0.631310 -0.519476
O4    O     O_R   0.074570 0.481370 0.599560 -0.440955
O5    O     O_R   0.805850 0.359820 0.508110 -0.509281
O6    O     O_R   0.974510 0.317630 0.476360 -0.492261
O7    O     O_R   0.925430 0.518630 0.400440 -0.512635
O8    O     O_R   0.094100 0.476440 0.368690 -0.523693

loop_
_geom_bond_atom_site_label_1
_geom_bond_atom_site_label_2
_ccdc_geom_bond_type
C43   H19   S    
C16   O6    A    
C24   H7    S    
C27   C29   A    
C41   C42   A    
Cu2   O6    S    
C35   C36   A    
Cu1   O1    S    
C7    C8    A    
C15   H27   S    
C38   C49   S    
C40   C46   A    
C6    C19   A    
C12   H14   S    
C37   C38   A    
C21   C22   A    
C36   C37   A    
C10   C15   A    
C30   C31   A    
C5    C17   A    
C23   C40   S    
C30   H3    S    
C3    C18   A    
Cu2   N2    S    
C5    C16   S    
C36   F1    S    
Cu1   O7    S    
C8    C9    A    
C33   H28   S    
C3    C13   A    
C34   H2    S    
C41   H17   S    
C2    C34   A    
C48   C50   S    
C4    C35   S    
C26   C31   A    
C49   H15   S    
C13   C14   A    
C46   H21   S    
C44   C46   A    
C20   C29   A    
C45   C47   A    
C2    C45   A    
C1    O1    A    
C1    C19   S    
Cu1   Cu2   S    
C31   H9    S    
Cu2   O4    S    
C24   C25   A    
C21   H6    S    
Cu1   O3    S    
C4    O3    A    
C5    C18   A    
C25   C26   A    
C14   H22   S    
C43   C44   A    
C29   C30   A    
C22   H8    S    
C9    C11   A    
C47   C48   A    
C21   N2    A    
C10   C19   A    
C23   C34   A    
C42   H18   S    
C28   O8    A    
C12   C35   A    
C44   H20   S    
C33   N1    A    
C20   C33   A    
C40   C41   A    
C22   C24   A    
Cu2   O8    S    
C18   H12   S    
C42   C43   A    
C20   H4    S    
C3    H23   S    
Cu1   N1    S    
C47   H1    S    
C9    C10   A    
C1    O2    A    
C32   N1    A    
C11   C17   A    
C26   N2    A    
C23   C48   A    
C27   C32   A    
C39   H13   S    
C6    C7    A    
C4    O4    A    
C25   C27   A    
C45   H10   S    
C32   H5    S    
C12   C39   A    
Cu2   O2    S    
Cu1   O5    S    
C11   C13   A    
C6    H25   S    
C38   C39   A    
C17   H24   S    
C28   O7    A    
C50   H11   S    
C16   O5    A    
C49   C50   D    
C8    H26   S    
C14   C15   A    
C2    C28   S    
C7    F2    S    
C37   H16   S    
