data_mof_unit_30199.cif
_audit_creation_date              2012-12-11T14:13:57-0500
_audit_creation_method            fapswitch 2.2
_symmetry_space_group_name_H-M    P1
_symmetry_Int_Tables_number       1
_space_group_crystal_system       triclinic
_cell_length_a                    17.064892
_cell_length_b                    7.252338
_cell_length_c                    16.887296
_cell_angle_alpha                 90.002432
_cell_angle_beta                  99.469668
_cell_angle_gamma                 89.997135
_cell_volume                      2061.49744152

loop_
_atom_site_label
_atom_site_type_symbol
_atom_type_description
_atom_site_fract_x
_atom_site_fract_y
_atom_site_fract_z
_atom_type_partial_charge
O1    O     O_R   0.414560 0.494370 0.416770 -0.541554
O2    O     O_R   0.585440 0.994370 0.583230 -0.541558
O3    O     O_R   0.578370 0.819590 0.429320 -0.533568
O4    O     O_R   0.421630 0.319590 0.570680 -0.533554
C1    C     C_R   0.605233 0.656210 0.414833 0.705759
C2    C     C_R   0.394758 0.156225 0.585157 0.705782
O5    O     O_R   0.414740 0.823790 0.407360 -0.533188
O6    O     O_R   0.585260 0.323790 0.592640 -0.533179
O7    O     O_R   0.420650 0.998510 0.561120 -0.538059
O8    O     O_R   0.579350 0.498510 0.438880 -0.538022
C3    C     C_R   0.386807 0.656251 0.386093 0.738368
C4    C     C_R   0.613193 0.156250 0.613907 0.738421
O9    O     O_3   0.502130 0.662240 0.550470 -0.378310
O10   O     O_3   0.497870 0.162240 0.449530 -0.378294
V1    V     V_3+5 0.499600 0.935390 0.490640 1.397964
V2    V     V_3+5 0.500400 0.435390 0.509360 1.397965
C5    C     C_2   0.794335 0.271347 0.780389 -0.142940
C6    C     C_2   0.205667 0.771350 0.219606 -0.142926
C7    C     C_2   0.824104 0.112407 0.814017 -0.347917
C8    C     C_2   0.175896 0.612408 0.185982 -0.347927
H1    H     H_    0.818842 0.400441 0.806122 0.149057
H2    H     H_    0.181162 0.900443 0.193869 0.149065
H3    H     H_    0.803593 0.981101 0.787675 0.135281
H4    H     H_    0.196406 0.481104 0.212327 0.135279
C9    C     C_2   0.732367 0.285576 0.706791 0.186181
C10   C     C_2   0.267636 0.785587 0.293203 0.186180
C11   C     C_2   0.679752 0.146740 0.682942 -0.306969
C12   C     C_2   0.320249 0.646740 0.317058 -0.306966
H5    H     H_    0.684460 0.018228 0.716157 0.105742
H6    H     H_    0.315537 0.518216 0.283847 0.105742
C13   C     C_R   0.328260 0.154478 0.631661 -0.061131
C14   C     C_R   0.671728 0.654408 0.368327 -0.060985
C15   C     C_R   0.163258 0.114815 0.858666 -0.087854
C16   C     C_R   0.836728 0.614877 0.141314 -0.087742
C17   C     C_R   0.290645 0.992827 0.833367 0.169655
C18   C     C_R   0.709207 0.493426 0.166467 0.169721
C19   C     C_R   0.232394 0.011336 0.882425 -0.211156
C20   C     C_R   0.767495 0.511823 0.117444 -0.211183
C21   C     C_R   0.150960 0.202652 0.782513 0.103769
C22   C     C_R   0.849097 0.702367 0.217546 0.103777
C23   C     C_R   0.210344 0.187000 0.732189 0.063943
C24   C     C_R   0.789697 0.686766 0.267854 0.063938
C25   C     C_R   0.280078 0.080672 0.757445 0.101279
C26   C     C_R   0.719853 0.580900 0.242478 0.101280
C27   C     C_R   0.337883 0.065458 0.706321 -0.261789
C28   C     C_R   0.662022 0.565764 0.293575 -0.261745
C29   C     C_R   0.258227 0.256737 0.605834 0.151782
C30   C     C_R   0.741864 0.756206 0.394269 0.151819
C31   C     C_R   0.201003 0.273205 0.656222 -0.168863
C32   C     C_R   0.799122 0.772576 0.343914 -0.168849
H7    H     H_    0.392261 0.989003 0.724897 0.133346
H8    H     H_    0.607567 0.489655 0.274915 0.133246
H9    H     H_    0.148861 0.355032 0.634647 0.138832
H10   H     H_    0.851358 0.854011 0.365588 0.138840
H11   H     H_    0.240543 0.942537 0.940228 0.126967
H12   H     H_    0.759291 0.443291 0.059576 0.126875
O11   O     O_R   0.920750 0.773600 0.061260 -0.531760
O12   O     O_R   0.079250 0.273600 0.938740 -0.531763
O13   O     O_R   0.085340 0.439850 0.092570 -0.540516
O14   O     O_R   0.914660 0.939850 0.907430 -0.540521
C33   C     C_R   0.111515 0.608031 0.115351 0.741216
C34   C     C_R   0.888485 0.108032 0.884649 0.741234
O15   O     O_R   0.921720 0.444130 0.070790 -0.538634
O16   O     O_R   0.078280 0.944130 0.929210 -0.538667
O17   O     O_R   0.914480 0.269530 0.916840 -0.539668
O18   O     O_R   0.085520 0.769530 0.083160 -0.539658
C35   C     C_R   0.897459 0.612040 0.087596 0.701342
C36   C     C_R   0.102536 0.112030 0.912396 0.701320
O19   O     O_3   0.997840 0.601520 0.949550 -0.377416
O20   O     O_3   0.002160 0.101520 0.050450 -0.377391
V3    V     V_3+5 0.000400 0.328340 0.009360 1.408238
V4    V     V_3+5 0.999600 0.828340 0.990640 1.408214
C37   C     C_3   0.073965 0.304362 0.752813 -0.781830
H13   H     H_    0.029717 0.295467 0.793696 0.211612
H14   H     H_    0.086614 0.452600 0.744374 0.210830
H15   H     H_    0.044921 0.244187 0.694905 0.197826
C38   C     C_3   0.926171 0.803685 0.247328 -0.781899
H16   H     H_    0.970378 0.794924 0.206392 0.211538
H17   H     H_    0.913628 0.951914 0.255955 0.210809
H18   H     H_    0.955206 0.743090 0.305153 0.197868
C39   C     C_3   0.730777 0.465266 0.660938 -0.722859
H19   H     H_    0.783860 0.550981 0.682890 0.180138
H20   H     H_    0.730997 0.437997 0.596235 0.202678
H21   H     H_    0.677689 0.547371 0.668757 0.214343
C40   C     C_3   0.269232 0.965298 0.339047 -0.722813
H22   H     H_    0.216152 0.051027 0.317090 0.180132
H23   H     H_    0.269010 0.938059 0.403751 0.202643
H24   H     H_    0.322323 0.047375 0.331225 0.214330
C41   C     C_3   0.241195 0.348792 0.524574 -0.780091
H25   H     H_    0.283156 0.307502 0.484179 0.206397
H26   H     H_    0.180826 0.309754 0.493934 0.199733
H27   H     H_    0.243723 0.500848 0.532248 0.209927
C42   C     C_3   0.758985 0.847829 0.475623 -0.780382
H28   H     H_    0.716815 0.807080 0.515887 0.206473
H29   H     H_    0.819217 0.807841 0.506334 0.199807
H30   H     H_    0.756885 0.999956 0.468085 0.209917
C43   C     C_3   0.363055 0.877274 0.863347 -0.792462
H31   H     H_    0.361019 0.817996 0.923631 0.208331
H32   H     H_    0.366909 0.760886 0.821428 0.212637
H33   H     H_    0.417405 0.963437 0.868040 0.205338
C44   C     C_3   0.636672 0.378393 0.136353 -0.792444
H34   H     H_    0.638653 0.319370 0.076009 0.208329
H35   H     H_    0.632682 0.261836 0.178150 0.212611
H36   H     H_    0.582416 0.464873 0.131739 0.205337

loop_
_geom_bond_atom_site_label_1
_geom_bond_atom_site_label_2
_ccdc_geom_bond_type
C42   H28   S    
C11   H5    S    
C14   C30   A    
C37   H13   S    
O1    C3    A    
O2    C4    A    
C43   H33   S    
C2    O7    A    
C43   H31   S    
C29   C31   A    
C38   H16   S    
O5    C3    A    
C15   C21   A    
C16   C22   A    
O16   C36   A    
C17   C19   A    
O12   V3    S    
C38   H18   S    
O14   V4    S    
C7    C34   S    
C28   H8    S    
O14   C34   A    
O6    V2    S    
C8    C33   S    
C43   H32   S    
C33   O18   A    
O18   V4    S    
C8    H4    S    
C12   H6    S    
C6    C10   S    
O20   V3    S    
C41   H26   S    
C17   C25   A    
C23   C25   A    
C1    C14   S    
C30   C32   A    
C2    C13   S    
C44   H35   S    
C13   C29   A    
C9    C39   S    
C29   C41   S    
C24   C26   A    
O11   C35   A    
C23   C31   A    
C39   H20   S    
C26   C28   A    
C39   H19   S    
C38   H17   S    
O15   C35   A    
O13   C33   A    
C30   C42   S    
C40   H23   S    
C44   H34   S    
C21   C23   A    
O5    V1    S    
C4    C11   S    
C40   H22   S    
C5    H1    S    
C18   C44   S    
O4    V2    S    
O19   V4    S    
C7    H3    S    
O6    C4    A    
O1    V2    S    
C32   H10   S    
C41   H27   S    
O2    V1    S    
C25   C27   A    
C24   C32   A    
C21   C37   S    
O12   C36   A    
O15   V3    S    
C42   H30   S    
C37   H15   S    
C18   C26   A    
O4    C2    A    
C9    C11   D    
C37   H14   S    
C18   C20   A    
C39   H21   S    
O3    V1    S    
C40   H24   S    
C34   O17   A    
C16   C20   A    
C14   C28   A    
O3    C1    A    
C16   C35   S    
C44   H36   S    
C10   C12   D    
C5    C9    S    
C6    H2    S    
O7    V1    S    
C1    O8    A    
O17   V3    S    
C22   C38   S    
C3    C12   S    
C10   C40   S    
C31   H9    S    
C22   C24   A    
C5    C7    D    
C6    C8    D    
O16   V4    S    
O11   V4    S    
C15   C19   A    
C19   H11   S    
C20   H12   S    
C42   H29   S    
C13   C27   A    
O9    V2    S    
C27   H7    S    
O10   V1    S    
O8    V2    S    
C41   H25   S    
C17   C43   S    
C15   C36   S    
O13   V3    S    
