data_mof_unit_10260.cif
_audit_creation_date              2012-12-10T18:43:06-0500
_audit_creation_method            fapswitch 2.2
_symmetry_space_group_name_H-M    P1
_symmetry_Int_Tables_number       1
_space_group_crystal_system       triclinic
_cell_length_a                    8.731439
_cell_length_b                    19.43357
_cell_length_c                    18.163716
_cell_angle_alpha                 89.706939
_cell_angle_beta                  97.953656
_cell_angle_gamma                 90.21761
_cell_volume                      3052.37101447

loop_
_atom_site_label
_atom_site_type_symbol
_atom_type_description
_atom_site_fract_x
_atom_site_fract_y
_atom_site_fract_z
_atom_type_partial_charge
C1    C     C_R   0.500238 0.367484 0.500264 0.794232
C2    C     C_R   0.499762 0.632516 0.499736 0.794231
C3    C     C_R   0.377744 0.964415 0.525426 -0.198183
C4    C     C_R   0.622256 0.035585 0.474574 -0.198183
C5    C     C_R   0.380823 0.036029 0.526673 -0.146721
C6    C     C_R   0.619177 0.963970 0.473327 -0.146721
C7    C     C_R   0.503577 0.071893 0.501655 0.091483
C8    C     C_R   0.496423 0.928107 0.498345 0.091483
C9    C     C_R   0.400059 0.458349 0.714530 0.081796
C10   C     C_R   0.599941 0.541651 0.285470 0.081796
C11   C     C_R   0.398105 0.457552 0.791719 -0.284613
C12   C     C_R   0.601895 0.542447 0.208281 -0.284612
C13   C     C_R   0.500036 0.499945 0.838441 0.111984
C14   C     C_R   0.499964 0.500055 0.161559 0.111984
C15   C     C_R   0.601969 0.542352 0.804840 -0.287576
C16   C     C_R   0.398030 0.457648 0.195160 -0.287576
C17   C     C_R   0.599980 0.541621 0.727399 0.084009
C18   C     C_R   0.400020 0.458379 0.272601 0.084009
C19   C     C_R   0.638625 0.507479 0.970504 -0.179760
C20   C     C_R   0.361375 0.492520 0.029496 -0.179760
C21   C     C_R   0.638601 0.507530 0.047866 -0.180628
C22   C     C_R   0.361399 0.492470 0.952134 -0.180628
C23   C     C_R   0.203559 0.499984 0.481014 0.890285
C24   C     C_R   0.796441 0.500016 0.518986 0.890286
C25   C     C_R   0.499977 0.500048 0.078713 0.120239
C26   C     C_R   0.500023 0.499951 0.921287 0.120239
C27   C     C_2   0.037826 0.500038 0.470494 -0.373424
C28   C     C_2   0.962174 0.499962 0.529506 -0.373424
C29   C     C_R   0.501275 0.743967 0.431645 -0.230132
C30   C     C_R   0.498726 0.256033 0.568355 -0.230133
C31   C     C_R   0.497168 0.815957 0.429435 0.022331
C32   C     C_R   0.502832 0.184043 0.570565 0.022331
C33   C     C_R   0.491900 0.852536 0.496200 0.051869
C34   C     C_R   0.508100 0.147464 0.503799 0.051869
C35   C     C_R   0.487401 0.816508 0.562924 -0.187850
C36   C     C_R   0.512598 0.183492 0.437076 -0.187849
C37   C     C_R   0.490438 0.744958 0.564256 -0.191854
C38   C     C_R   0.509561 0.255041 0.435744 -0.191854
C39   C     C_R   0.497823 0.708134 0.498711 -0.047363
C40   C     C_R   0.502177 0.291866 0.501289 -0.047362
Cu1   Cu    Cu3+1 0.499960 0.500000 0.573360 0.933884
Cu2   Cu    Cu3+1 0.500040 0.500000 0.426640 0.933884
H1    H     H_    0.977831 0.500164 0.413890 0.171751
H2    H     H_    0.022169 0.499836 0.586110 0.171752
H3    H     H_    0.681273 0.576696 0.837923 0.126822
H4    H     H_    0.318727 0.423304 0.162077 0.126822
H5    H     H_    0.678353 0.574669 0.702222 0.117259
H6    H     H_    0.321647 0.425331 0.297777 0.117259
H7    H     H_    0.748135 0.512162 0.949303 0.125422
H8    H     H_    0.251865 0.487838 0.050697 0.125422
H9    H     H_    0.748090 0.512244 0.083594 0.125918
H10   H     H_    0.251910 0.487756 0.916406 0.125918
H11   H     H_    0.504728 0.715931 0.380462 0.154990
H12   H     H_    0.495274 0.284069 0.619538 0.154990
H13   H     H_    0.483903 0.844015 0.614407 0.139010
H14   H     H_    0.516096 0.155985 0.385593 0.139010
H15   H     H_    0.487385 0.718539 0.616682 0.152235
H16   H     H_    0.512613 0.281461 0.383317 0.152234
H17   H     H_    0.282070 0.937274 0.544647 0.132749
H18   H     H_    0.717929 0.062726 0.455353 0.132749
H19   H     H_    0.287575 0.063551 0.546975 0.133566
H20   H     H_    0.712425 0.936449 0.453025 0.133566
H21   H     H_    0.321727 0.425291 0.679273 0.115642
H22   H     H_    0.678273 0.574709 0.320727 0.115642
H23   H     H_    0.318836 0.423177 0.814608 0.127451
H24   H     H_    0.681164 0.576823 0.185391 0.127451
N1    N     N_R   0.499980 0.500020 0.683620 -0.171608
N2    N     N_R   0.500020 0.499980 0.316380 -0.171608
O1    O     O_R   0.499930 0.400180 0.561970 -0.591203
O2    O     O_R   0.500070 0.599820 0.438030 -0.591203
O3    O     O_R   0.500010 0.400190 0.438070 -0.591168
O4    O     O_R   0.499990 0.599810 0.561930 -0.591168
O5    O     O_R   0.274810 0.500000 0.547650 -0.582448
O6    O     O_R   0.725190 0.500000 0.452350 -0.582448
O7    O     O_R   0.274880 0.500000 0.423750 -0.592695
O8    O     O_R   0.725120 0.500000 0.576250 -0.592695
C41   C     C_R   0.494303 0.851249 0.356634 0.095937
C42   C     C_R   0.375372 0.897693 0.331138 -0.121475
C43   C     C_R   0.373857 0.931091 0.262694 -0.138373
C44   C     C_R   0.490144 0.918075 0.218978 -0.113197
C45   C     C_R   0.607965 0.871494 0.243551 -0.132167
C46   C     C_R   0.610050 0.838025 0.312005 -0.170563
H25   H     H_    0.283733 0.907859 0.364106 0.124842
H26   H     H_    0.282312 0.966968 0.243476 0.122544
H27   H     H_    0.488778 0.943969 0.165996 0.117829
H28   H     H_    0.697863 0.861389 0.209596 0.123995
H29   H     H_    0.702628 0.802387 0.330570 0.122927
C47   C     C_R   0.505699 0.148751 0.643366 0.095937
C48   C     C_R   0.389952 0.161975 0.687996 -0.170563
C49   C     C_R   0.392039 0.128506 0.756449 -0.132167
C50   C     C_R   0.509860 0.081925 0.781022 -0.113196
C51   C     C_R   0.626146 0.068909 0.737305 -0.138374
C52   C     C_R   0.624629 0.102307 0.668861 -0.121475
H30   H     H_    0.297375 0.197614 0.669430 0.122927
H31   H     H_    0.302142 0.138611 0.790405 0.123995
H32   H     H_    0.511226 0.056031 0.834004 0.117828
H33   H     H_    0.717691 0.033031 0.756523 0.122544
H34   H     H_    0.716268 0.092141 0.635893 0.124842

loop_
_geom_bond_atom_site_label_1
_geom_bond_atom_site_label_2
_ccdc_geom_bond_type
C38   C40   A    
Cu1   Cu2   S    
C45   C46   A    
C49   H31   S    
Cu1   N1    S    
C41   C42   A    
C30   H12   S    
Cu2   O7    S    
C1    O3    A    
Cu1   O1    S    
C35   C37   A    
C43   H26   S    
C20   C25   A    
C18   N2    A    
C46   H29   S    
C32   C47   S    
Cu2   O2    S    
C48   H30   S    
C19   C26   A    
C51   C52   A    
C20   H8    S    
C1    C40   S    
C50   H32   S    
C38   H16   S    
C42   H25   S    
C31   C33   A    
C23   C27   S    
C45   H28   S    
Cu2   N2    S    
C4    H18   S    
C23   O5    A    
C4    C7    A    
C2    O4    A    
C2    C39   S    
C51   H33   S    
C31   C41   S    
C37   C39   A    
C17   N1    A    
Cu2   O6    S    
C5    H19   S    
C24   C28   S    
C4    C6    A    
C3    C8    A    
C16   H4    S    
C50   C51   A    
C5    C7    A    
C42   C43   A    
C24   O8    A    
C6    C8    A    
C12   H24   S    
C28   H2    S    
C35   H13   S    
C1    O1    A    
C32   C34   A    
C9    N1    A    
C44   H27   S    
C36   H14   S    
C19   H7    S    
C29   C39   A    
C30   C40   A    
C9    C11   A    
C10   C12   A    
Cu1   O4    S    
C20   C22   A    
C13   C15   A    
C7    C34   S    
C14   C16   A    
C13   C26   S    
C15   H3    S    
C21   H9    S    
C23   O7    A    
C22   H10   S    
C15   C17   A    
C21   C25   A    
C47   C52   A    
C19   C21   A    
C9    H21   S    
C10   H22   S    
C17   H5    S    
C12   C14   A    
C44   C45   A    
C3    C5    A    
C18   H6    S    
C10   N2    A    
C6    H20   S    
C36   C38   A    
C29   C31   A    
Cu1   O8    S    
C30   C32   A    
C11   C13   A    
C24   O6    A    
C49   C50   A    
C29   H11   S    
C41   C46   A    
Cu2   O3    S    
C33   C35   A    
C34   C36   A    
C8    C33   S    
C14   C25   S    
Cu1   O5    S    
C43   C44   A    
C27   H1    S    
C47   C48   A    
C16   C18   A    
C22   C26   A    
C27   C28   D    
C48   C49   A    
C2    O2    A    
C52   H34   S    
C37   H15   S    
C11   H23   S    
C3    H17   S    
