data_mof_unit_55595.cif
_audit_creation_date              2012-12-10T17:48:52-0500
_audit_creation_method            fapswitch 2.2
_symmetry_space_group_name_H-M    P1
_symmetry_Int_Tables_number       1
_space_group_crystal_system       triclinic
_cell_length_a                    10.719459
_cell_length_b                    14.69927
_cell_length_c                    14.717082
_cell_angle_alpha                 65.032153
_cell_angle_beta                  103.46688
_cell_angle_gamma                 103.030864
_cell_volume                      2023.04357261

loop_
_atom_site_label
_atom_site_type_symbol
_atom_type_description
_atom_site_fract_x
_atom_site_fract_y
_atom_site_fract_z
_atom_type_partial_charge
C1    C     C_R   0.479979 0.119688 0.312209 0.803307
C2    C     C_3   0.878307 0.000336 0.500012 0.156631
C3    C     C_3   0.922742 0.899391 0.580364 -0.387504
C4    C     C_3   0.964576 0.089407 0.525798 -0.365480
C5    C     C_R   0.480533 0.186936 0.204899 -0.076308
C6    C     C_R   0.541570 0.812567 0.795545 -0.062480
C7    C     C_R   0.487844 0.214743 0.031570 -0.008083
C8    C     C_R   0.475860 0.148756 0.131584 -0.241339
C9    C     C_R   0.495721 0.291402 0.177713 -0.254861
C10   C     C_R   0.515142 0.360237 0.079457 0.079367
C11   C     C_R   0.507475 0.321009 0.004646 0.104679
C12   C     C_R   0.260020 0.000392 0.499990 0.757218
C13   C     C_R   0.539773 0.466948 0.053683 0.074146
C14   C     C_R   0.540551 0.533745 0.950389 0.067011
C15   C     C_R   0.534949 0.492479 0.878191 -0.226093
C16   C     C_R   0.520132 0.388661 0.905040 -0.220825
C17   C     C_R   0.566760 0.509089 0.128060 -0.225639
C18   C     C_R   0.584786 0.613146 0.101230 -0.230688
C19   C     C_R   0.573829 0.678971 0.999612 0.161378
C20   C     C_R   0.549565 0.639921 0.923043 0.088457
C21   C     C_R   0.586085 0.783723 0.973650 -0.195775
C22   C     C_R   0.571002 0.850279 0.872140 -0.191517
C23   C     C_R   0.522969 0.880247 0.687799 0.797395
C24   C     C_R   0.530497 0.708272 0.821421 -0.258822
C25   C     C_R   0.715330 0.284597 0.669125 -0.302775
C26   C     C_R   0.682175 0.203143 0.639153 0.084089
C27   C     C_R   0.518541 0.285094 0.509151 0.004954
C28   C     C_R   0.547942 0.371039 0.535515 -0.021469
C29   C     C_R   0.648465 0.368511 0.617958 0.166780
C30   C     C_R   0.481391 0.458160 0.484229 0.077214
C31   C     C_R   0.517080 0.541086 0.516934 0.080202
C32   C     C_R   0.617147 0.533637 0.600290 -0.244575
C33   C     C_R   0.681257 0.449229 0.649357 -0.203315
C34   C     C_R   0.740116 0.999929 0.499967 0.754845
C35   C     C_R   0.380513 0.465214 0.401460 -0.240001
C36   C     C_R   0.315723 0.549269 0.352916 -0.196312
C37   C     C_R   0.349277 0.630369 0.383743 0.164018
C38   C     C_R   0.450883 0.628390 0.465366 -0.023355
C39   C     C_R   0.282052 0.714104 0.332821 -0.318227
C40   C     C_R   0.316222 0.796090 0.361984 0.073350
C41   C     C_R   0.481609 0.715017 0.490676 0.004093
C42   C     C_3   0.042425 0.013534 0.394101 -0.384357
C43   C     C_3   0.898309 0.013108 0.394071 -0.374336
C44   C     C_3   0.066886 0.899786 0.580524 -0.370128
C45   C     C_3   0.107449 0.089767 0.525796 -0.370075
C46   C     C_3   0.122280 0.000943 0.500126 0.154298
Cu1   Cu    Cu3+1 0.465900 0.918260 0.475680 0.925509
Cu2   Cu    Cu3+1 0.534100 0.081740 0.524320 0.930047
H1    H     H_    0.051071 0.950787 0.373474 0.169382
H2    H     H_    0.952531 0.082234 0.601819 0.167015
H3    H     H_    0.122890 0.889598 0.657231 0.154592
H4    H     H_    0.908905 0.888957 0.657009 0.151631
H5    H     H_    0.517370 0.361898 0.846292 0.166397
H6    H     H_    0.502803 0.681643 0.760761 0.151955
H7    H     H_    0.580433 0.930820 0.853714 0.165960
H8    H     H_    0.605339 0.642160 0.160583 0.148147
H9    H     H_    0.464530 0.067564 0.152437 0.159445
H10   H     H_    0.490221 0.317254 0.234858 0.147849
H11   H     H_    0.080670 0.085951 0.335399 0.149557
H12   H     H_    0.546359 0.538671 0.800304 0.141609
H13   H     H_    0.579008 0.463865 0.208399 0.146575
H14   H     H_    0.606257 0.814058 0.031951 0.137272
H15   H     H_    0.757441 0.447068 0.713008 0.143486
H16   H     H_    0.559146 0.721269 0.549983 0.119457
H17   H     H_    0.265026 0.861055 0.322316 0.122224
H18   H     H_    0.238520 0.550927 0.290014 0.142225
H19   H     H_    0.792385 0.281767 0.732349 0.138234
H20   H     H_    0.732938 0.137963 0.679138 0.120115
H21   H     H_    0.442164 0.279404 0.448951 0.118845
H22   H     H_    0.866708 0.085302 0.335336 0.153765
H23   H     H_    0.648320 0.591903 0.630167 0.125934
H24   H     H_    0.348691 0.406675 0.371982 0.128433
H25   H     H_    0.203901 0.716368 0.270424 0.138172
H26   H     H_    0.838263 0.950101 0.373593 0.173473
H27   H     H_    0.076104 0.834500 0.564081 0.175666
H28   H     H_    0.863173 0.834060 0.563678 0.168580
H29   H     H_    0.163677 0.082725 0.601763 0.178676
H30   H     H_    0.146196 0.163606 0.469073 0.164907
H31   H     H_    0.935022 0.163212 0.469143 0.173776
N1    N     N_R   0.585360 0.204570 0.560800 -0.176371
N2    N     N_R   0.414550 0.795430 0.439160 -0.176069
O1    O     O_R   0.455060 0.022100 0.338110 -0.586866
O2    O     O_R   0.512640 0.160150 0.379180 -0.588607
O3    O     O_R   0.288900 0.930980 0.479450 -0.587971
O4    O     O_R   0.346480 0.069030 0.520520 -0.587456
O5    O     O_R   0.487360 0.839850 0.620820 -0.588135
O6    O     O_R   0.544940 0.977900 0.661890 -0.583314
O7    O     O_R   0.653520 0.930970 0.479480 -0.588864
O8    O     O_R   0.711100 0.069020 0.520550 -0.591223
C47   C     C_1   0.481914 0.171046 0.958837 0.196778
N3    N     N_1   0.477263 0.136094 0.900656 -0.299908

loop_
_geom_bond_atom_site_label_1
_geom_bond_atom_site_label_2
_ccdc_geom_bond_type
C15   H12   S    
C19   C20   A    
C25   H19   S    
C7    C8    A    
C45   C46   S    
C7    C11   A    
C12   O4    A    
C1    C5    S    
C36   C37   A    
C19   C21   A    
C9    H10   S    
C30   C31   A    
C36   H18   S    
C24   H6    S    
C15   C16   A    
C6    C22   A    
C29   C33   A    
C12   O3    A    
C18   C19   A    
C42   C46   S    
Cu1   O1    S    
C20   C24   A    
C16   H5    S    
C17   H13   S    
Cu1   Cu2   S    
C23   O5    A    
C45   H30   S    
C9    C10   A    
C27   H21   S    
C18   H8    S    
C2    C34   S    
C43   H26   S    
C39   H25   S    
C41   N2    A    
C23   O6    A    
C21   C22   A    
C44   C46   S    
C32   H23   S    
C4    C45   S    
C25   C29   A    
C3    C44   S    
Cu1   O5    S    
C14   C20   A    
C4    H31   S    
C12   C46   S    
C27   N1    A    
C39   C40   A    
C25   C26   A    
C7    C47   S    
C26   N1    A    
C4    H2    S    
C35   C36   A    
C44   H27   S    
C2    C4    S    
C5    C9    A    
C37   C38   A    
C8    H9    S    
C11   C16   A    
C31   C32   A    
C2    C43   S    
C33   H15   S    
C6    C24   A    
C17   C18   A    
Cu2   O6    S    
C34   O7    A    
Cu1   O3    S    
C3    H28   S    
C21   H14   S    
C38   C41   A    
C30   C35   A    
C44   H3    S    
C35   H24   S    
C43   H22   S    
Cu2   O8    S    
C42   C43   S    
C28   C29   A    
C14   C15   A    
C40   N2    A    
C10   C13   A    
C42   H11   S    
C5    C8    A    
C3    H4    S    
Cu2   O2    S    
C22   H7    S    
C1    O2    A    
C31   C38   A    
C13   C17   A    
C40   H17   S    
C26   H20   S    
Cu1   O7    S    
Cu2   N1    S    
C28   C30   A    
C2    C3    S    
C1    O1    A    
C34   O8    A    
C37   C39   A    
C32   C33   A    
C47   N3    T    
C6    C23   S    
Cu1   N2    S    
C10   C11   A    
C42   H1    S    
C27   C28   A    
Cu2   O4    S    
C45   H29   S    
C41   H16   S    
C13   C14   A    
