data_mof_unit_30212.cif
_audit_creation_date              2012-12-10T17:48:51-0500
_audit_creation_method            fapswitch 2.2
_symmetry_space_group_name_H-M    P1
_symmetry_Int_Tables_number       1
_space_group_crystal_system       triclinic
_cell_length_a                    10.788331
_cell_length_b                    14.70246
_cell_length_c                    14.725141
_cell_angle_alpha                 64.488007
_cell_angle_beta                  103.931448
_cell_angle_gamma                 103.359515
_cell_volume                      2024.14601676

loop_
_atom_site_label
_atom_site_type_symbol
_atom_type_description
_atom_site_fract_x
_atom_site_fract_y
_atom_site_fract_z
_atom_type_partial_charge
C1    C     C_R   0.482298 0.120031 0.311980 0.836310
C2    C     C_3   0.877476 0.003520 0.494712 -0.263875
C3    C     C_3   0.926411 0.907437 0.585434 0.420667
C4    C     C_3   0.962037 0.099995 0.510256 -0.406173
C5    C     C_R   0.486478 0.187498 0.204107 -0.091135
C6    C     C_R   0.555682 0.811887 0.796494 -0.095262
C7    C     C_R   0.454850 0.214472 0.025951 -0.017522
C8    C     C_R   0.450562 0.149145 0.128003 -0.193222
C9    C     C_R   0.532692 0.290986 0.178123 -0.132570
C10   C     C_R   0.542226 0.358359 0.076930 0.108535
C11   C     C_R   0.496319 0.320118 0.999323 0.096878
C12   C     C_R   0.260153 0.001277 0.498631 0.922699
C13   C     C_R   0.587679 0.464243 0.050372 -0.045017
C14   C     C_R   0.556679 0.532552 0.948459 -0.006545
C15   C     C_R   0.517756 0.492837 0.872480 -0.113522
C16   C     C_R   0.491284 0.388719 0.897256 -0.194466
C17   C     C_R   0.667461 0.503527 0.120449 0.538122
C18   C     C_R   0.703892 0.608521 0.093154 -0.163185
C19   C     C_R   0.656600 0.678890 0.994562 -0.034024
C20   C     C_R   0.574702 0.639097 0.923934 0.036871
C21   C     C_R   0.688016 0.787069 0.961965 -0.007468
C22   C     C_R   0.642151 0.850843 0.862697 -0.194831
C23   C     C_R   0.523396 0.879780 0.688236 0.818095
C24   C     C_R   0.511626 0.707016 0.831210 -0.039312
C25   C     C_R   0.738448 0.293988 0.651682 -0.216203
C26   C     C_R   0.696630 0.209994 0.625727 0.757622
C27   C     C_R   0.512152 0.281051 0.517885 -0.037542
C28   C     C_R   0.552985 0.373164 0.533452 -0.023071
C29   C     C_R   0.662312 0.374633 0.610330 -0.099259
C30   C     C_R   0.485197 0.460710 0.479512 -0.017571
C31   C     C_R   0.517030 0.541811 0.514518 -0.057166
C32   C     C_R   0.611966 0.531883 0.602051 0.529772
C33   C     C_R   0.686345 0.452965 0.646681 -0.112885
C34   C     C_R   0.739479 0.001765 0.497067 0.857398
C35   C     C_R   0.388439 0.472002 0.391053 -0.061558
C36   C     C_R   0.308168 0.547784 0.353904 -0.072437
C37   C     C_R   0.338750 0.626621 0.389000 0.072839
C38   C     C_R   0.449412 0.628648 0.463396 -0.003665
C39   C     C_R   0.264664 0.707221 0.346665 -0.265495
C40   C     C_R   0.303649 0.790087 0.373853 0.101948
C41   C     C_R   0.488691 0.719521 0.481582 0.110970
C42   C     C_3   0.043014 0.013806 0.390542 1.066701
C43   C     C_3   0.896509 0.006611 0.390825 -0.348465
C44   C     C_3   0.064129 0.900133 0.578361 -0.413683
C45   C     C_3   0.107581 0.096821 0.519028 0.444263
C46   C     C_3   0.122523 0.003123 0.498189 -0.284559
Cu1   Cu    Cu3+1 0.465900 0.918260 0.475680 1.015497
Cu2   Cu    Cu3+1 0.534100 0.081740 0.524320 1.038120
H1    H     H_    0.944292 0.099319 0.582110 0.178560
H2    H     H_    0.925279 0.913821 0.657976 0.118250
H3    H     H_    0.461424 0.362898 0.835562 0.159244
H4    H     H_    0.674608 0.932247 0.836750 0.198708
H5    H     H_    0.417437 0.068471 0.147789 0.169917
H6    H     H_    0.554934 0.318870 0.237649 0.227166
H7    H     H_    0.511468 0.541850 0.792646 0.212658
H8    H     H_    0.580111 0.734441 0.525289 0.242431
H9    H     H_    0.246793 0.851782 0.340743 0.197782
H10   H     H_    0.419474 0.265939 0.475879 0.208625
H11   H     H_    0.860290 0.075384 0.327728 0.144348
H12   H     H_    0.177782 0.707924 0.291366 0.174599
H13   H     H_    0.057731 0.838690 0.551680 0.255292
N1    N     N_R   0.585360 0.204570 0.560800 -0.240125
N2    N     N_R   0.414550 0.795430 0.439160 -0.225154
O1    O     O_R   0.455060 0.022100 0.338110 -0.596090
O2    O     O_R   0.512640 0.160150 0.379180 -0.578487
O3    O     O_R   0.288900 0.930980 0.479450 -0.558693
O4    O     O_R   0.346480 0.069030 0.520520 -0.563194
O5    O     O_R   0.487360 0.839850 0.620820 -0.569708
O6    O     O_R   0.544940 0.977900 0.661890 -0.550722
O7    O     O_R   0.653520 0.930970 0.479480 -0.558227
O8    O     O_R   0.711100 0.069020 0.520550 -0.556280
F1    F     F_    0.063645 0.939011 0.364056 -0.676979
C47   C     C_1   0.144656 0.867566 0.680406 0.261562
N3    N     N_1   0.207576 0.841972 0.760333 -0.245471
C48   C     C_1   0.389711 0.672368 0.779399 0.278207
N4    N     N_1   0.292508 0.644992 0.738093 -0.231235
C49   C     C_1   0.790176 0.638822 0.170486 0.389053
N5    N     N_1   0.859174 0.661589 0.233260 -0.230952
C50   C     C_1   0.414518 0.170969 0.950359 0.247657
N6    N     N_1   0.382446 0.136051 0.889917 -0.227546
F2    F     F_    0.084471 0.106888 0.316693 -0.601372
F3    F     F_    0.724962 0.440424 0.212051 -0.665595
C51   C     C_1   0.770303 0.838071 0.024436 0.248769
N7    N     N_1   0.835909 0.880165 0.073417 -0.213535
C52   C     C_1   0.777008 0.450294 0.737888 0.380482
N8    N     N_1   0.848590 0.449008 0.810836 -0.209496
C53   C     C_1   0.197805 0.547377 0.274329 0.287790
N9    N     N_1   0.110053 0.546894 0.211170 -0.203030
C54   C     C_1   0.863227 0.295851 0.715645 0.332834
N10   N     N_1   0.963378 0.296570 0.766507 -0.218113
F4    F     F_    0.766107 0.131337 0.668211 -0.677732
F5    F     F_    0.628693 0.594484 0.651298 -0.691297
C55   C     C_1   0.378035 0.416580 0.327839 0.286826
N11   N     N_1   0.367576 0.373239 0.276252 -0.228797
C56   C     C_1   0.820023 0.919148 0.368041 0.479442
N12   N     N_1   0.760369 0.850887 0.350054 -0.231099
F6    F     F_    0.845488 0.818565 0.587066 -0.617596
C57   C     C_1   0.175502 0.092545 0.620728 0.258848
N13   N     N_1   0.228662 0.089714 0.699959 -0.228417
F7    F     F_    0.164022 0.186389 0.448595 -0.620658
C58   C     C_1   0.922609 0.196577 0.428591 0.480989
N14   N     N_1   0.891755 0.271825 0.365002 -0.166057

loop_
_geom_bond_atom_site_label_1
_geom_bond_atom_site_label_2
_ccdc_geom_bond_type
C53   N9    T    
C58   N14   T    
C47   N3    T    
C23   O6    A    
C56   N12   T    
C16   H3    S    
Cu2   O6    S    
C7    C8    A    
C41   H8    S    
C52   N8    T    
C7    C11   A    
C55   N11   T    
C40   N2    A    
C30   C35   A    
C1    C5    S    
C22   H4    S    
C36   C37   A    
C19   C21   A    
C18   C19   A    
C45   C57   S    
Cu1   N2    S    
C30   C31   A    
C39   H12   S    
C15   C16   A    
C6    C22   A    
C29   C33   A    
C17   F3    S    
C42   C46   S    
C33   C52   S    
Cu2   N1    S    
Cu1   Cu2   S    
C1    O2    A    
Cu2   O2    S    
C9    C10   A    
C34   O7    A    
Cu1   O3    S    
C49   N5    T    
C2    C34   S    
C21   C22   A    
C42   F2    S    
C45   F7    S    
C3    H2    S    
C44   C46   S    
C4    C45   S    
C35   C55   S    
C36   C53   S    
C25   C29   A    
C12   O4    A    
C3    C44   S    
C14   C20   A    
C38   C41   A    
C12   C46   S    
C39   C40   A    
C26   F4    S    
C45   C46   S    
C12   O3    A    
C10   C13   A    
C35   C36   A    
C15   H7    S    
C23   O5    A    
C2    C4    S    
C48   N4    T    
Cu1   O7    S    
C5    C9    A    
C37   C38   A    
C27   N1    A    
C11   C16   A    
C3    F6    S    
C43   C56   S    
C51   N7    T    
C2    C43   S    
C6    C24   A    
C4    C58   S    
C42   F1    S    
C17   C18   A    
C42   C43   S    
C41   N2    A    
Cu2   O8    S    
C1    O1    A    
Cu1   O5    S    
Cu1   O1    S    
C7    C50   S    
C28   C29   A    
C40   H9    S    
C31   C32   A    
C27   H10   S    
C8    H5    S    
C5    C8    A    
C24   C48   S    
C43   H11   S    
C44   H13   S    
C25   C54   S    
C31   C38   A    
C13   C17   A    
C4    H1    S    
C32   C33   A    
C19   C20   A    
C28   C30   A    
C2    C3    S    
C25   C26   A    
C37   C39   A    
C32   F5    S    
C18   C49   S    
C6    C23   S    
Cu2   O4    S    
C26   N1    A    
C44   C47   S    
C10   C11   A    
C50   N6    T    
C57   N13   T    
C21   C51   S    
C14   C15   A    
C9    H6    S    
C54   N10   T    
C13   C14   A    
C34   O8    A    
C20   C24   A    
C27   C28   A    
