data_mof_unit_55760.cif
_audit_creation_date              2012-10-26T19:40:09-0400
_audit_creation_method            fapswitch 2.2
_symmetry_space_group_name_H-M    P1
_symmetry_Int_Tables_number       1
_space_group_crystal_system       triclinic
_cell_length_a                    15.025085
_cell_length_b                    8.735289
_cell_length_c                    7.522404
_cell_angle_alpha                 103.42132
_cell_angle_beta                  94.175193
_cell_angle_gamma                 93.714636
_cell_volume                      954.390091799

loop_
_atom_site_label
_atom_site_type_symbol
_atom_type_description
_atom_site_fract_x
_atom_site_fract_y
_atom_site_fract_z
_atom_type_partial_charge
C1    C     C_R   0.496412 0.200146 0.454062 0.568491
C2    C     C_R   0.177811 0.442705 0.337791 -0.124906
C3    C     C_R   0.767932 0.502171 0.496657 -0.002471
C4    C     C_R   0.232067 0.497820 0.503346 -0.002461
C5    C     C_R   0.806396 0.446543 0.332282 -0.132295
C6    C     C_R   0.193603 0.553421 0.667739 -0.132298
C7    C     C_R   0.899033 0.445389 0.332359 0.012167
C8    C     C_R   0.100966 0.554567 0.667664 0.012159
C9    C     C_R   0.953427 0.500651 0.499252 0.064089
C10   C     C_R   0.046571 0.499301 0.500771 0.064087
C11   C     C_R   0.914747 0.557054 0.664689 0.008035
C12   C     C_R   0.503588 0.799854 0.545938 0.568489
C13   C     C_R   0.085251 0.442935 0.335316 0.008044
C14   C     C_R   0.938135 0.389198 0.168768 -0.132270
C15   C     C_R   0.061864 0.610790 0.831240 -0.132294
C16   C     C_R   0.030859 0.387971 0.170250 -0.133770
C17   C     C_R   0.969140 0.612050 0.829740 -0.133778
C18   C     C_2   0.481689 0.033405 0.434783 0.045951
C19   C     C_2   0.518311 0.966594 0.565217 0.045950
C20   C     C_R   0.328937 0.499203 0.501730 0.545041
C21   C     C_R   0.671063 0.500797 0.498270 0.545037
C22   C     C_R   0.822187 0.557313 0.662196 -0.124923
Cu1   Cu    Cu3+1 0.510010 0.517380 0.684380 1.042415
Cu2   Cu    Cu3+1 0.489990 0.482620 0.315620 1.042415
H1    H     H_    0.792489 0.601016 0.789482 0.141943
H2    H     H_    0.389151 0.331401 0.832856 0.265725
H3    H     H_    0.645752 0.489270 0.041233 0.248016
H4    H     H_    0.610850 0.668598 0.167142 0.265724
H5    H     H_    0.207509 0.399057 0.210474 0.141933
H6    H     H_    0.764440 0.401644 0.205075 0.129629
H7    H     H_    0.235560 0.598324 0.794948 0.129620
H8    H     H_    0.897070 0.346620 0.039876 0.128901
H9    H     H_    0.102930 0.653399 0.960119 0.128904
H10   H     H_    0.060041 0.344379 0.042438 0.124454
H11   H     H_    0.939958 0.655703 0.957524 0.124463
H12   H     H_    0.354248 0.510726 0.958766 0.248009
I1    I     I_    0.382182 0.919742 0.215484 -0.321225
I2    I     I_    0.617816 0.080259 0.784520 -0.321227
N1    N     N_2   0.474890 0.456420 0.038520 -0.026562
N2    N     N_2   0.525110 0.543580 0.961480 -0.026564
N3    N     N_3   0.388147 0.410293 0.959801 -0.465425
N4    N     N_3   0.611854 0.589704 0.040199 -0.465426
O1    O     O_R   0.506510 0.286130 0.619770 -0.504985
O2    O     O_R   0.493490 0.713870 0.380230 -0.504985
O3    O     O_R   0.489600 0.256770 0.308360 -0.453436
O4    O     O_R   0.510400 0.743230 0.691640 -0.453438
O5    O     O_R   0.378710 0.514640 0.655720 -0.545944
O6    O     O_R   0.621290 0.485360 0.344280 -0.545946
O7    O     O_R   0.361800 0.485290 0.344300 -0.481532
O8    O     O_R   0.638200 0.514710 0.655700 -0.481531

loop_
_geom_bond_atom_site_label_1
_geom_bond_atom_site_label_2
_ccdc_geom_bond_type
C2    C4    A    
Cu1   Cu2   S    
C10   C13   A    
C15   C17   A    
C20   O7    A    
C19   I2    S    
C9    C10   A    
C3    C22   A    
C11   C22   A    
C21   O6    A    
N2    N4    S    
C6    H7    S    
H12   N3    S    
N1    N3    S    
Cu1   O4    S    
C9    C11   A    
H3    N4    S    
C1    O3    A    
C1    C18   S    
C2    H5    S    
Cu2   O3    S    
C12   C19   S    
C8    C10   A    
C21   O8    A    
C18   I1    S    
C15   H9    S    
C5    H6    S    
C8    C15   A    
Cu2   O2    S    
C14   C16   A    
C3    C21   S    
C20   O5    A    
Cu1   O5    S    
C4    C6    A    
Cu1   N2    S    
C4    C20   S    
C7    C9    A    
Cu2   O7    S    
Cu2   N1    S    
Cu1   O1    S    
C12   O4    A    
C18   C19   D    
C13   C16   A    
H4    N4    S    
N1    N2    D    
C5    C7    A    
C2    C13   A    
C12   O2    A    
Cu1   O8    S    
C6    C8    A    
C17   H11   S    
C16   H10   S    
C1    O1    A    
C7    C14   A    
C11   C17   A    
H2    N3    S    
C14   H8    S    
C3    C5    A    
C22   H1    S    
Cu2   O6    S    
