data_mof_unit_53634.cif
_audit_creation_date              2012-12-10T18:04:52-0500
_audit_creation_method            fapswitch 2.2
_symmetry_space_group_name_H-M    P1
_symmetry_Int_Tables_number       1
_space_group_crystal_system       triclinic
_cell_length_a                    10.778495
_cell_length_b                    9.612039
_cell_length_c                    17.708031
_cell_angle_alpha                 90.184553
_cell_angle_beta                  93.00927
_cell_angle_gamma                 89.632494
_cell_volume                      1832.035543

loop_
_atom_site_label
_atom_site_type_symbol
_atom_type_description
_atom_site_fract_x
_atom_site_fract_y
_atom_site_fract_z
_atom_type_partial_charge
C1    C     C_R   0.262425 0.500250 0.497835 0.876971
C2    C     C_R   0.737256 0.499271 0.501764 0.909612
C3    C     C_1   0.519549 0.503434 0.966547 0.135450
C4    C     C_1   0.524913 0.503265 0.034386 0.132169
C5    C     C_R   0.056733 0.470506 0.432034 0.173208
C6    C     C_R   0.941524 0.523652 0.569143 0.158766
C7    C     C_R   0.927076 0.463587 0.434023 0.153172
C8    C     C_R   0.071882 0.521557 0.568144 0.170186
C9    C     C_R   0.505618 0.499815 0.355875 0.834843
C10   C     C_R   0.499809 0.500099 0.644239 0.812590
C11   C     C_R   0.871088 0.496249 0.501685 -0.211405
C12   C     C_R   0.128092 0.500550 0.498941 -0.201148
C13   C     C_R   0.467246 0.619456 0.845364 0.270093
C14   C     C_R   0.513184 0.375540 0.153506 0.268643
C15   C     C_R   0.545992 0.625531 0.156539 0.267833
C16   C     C_R   0.549064 0.382719 0.846385 0.266691
C17   C     C_R   0.461231 0.617542 0.766489 -0.260311
C18   C     C_R   0.509998 0.375187 0.232030 -0.248216
C19   C     C_R   0.541823 0.623809 0.235139 -0.244496
C20   C     C_R   0.542878 0.382104 0.767610 -0.224620
C21   C     C_R   0.500816 0.499895 0.727154 -0.136472
C22   C     C_R   0.518553 0.499678 0.273334 -0.139132
C23   C     C_R   0.409763 0.074707 0.459303 0.236169
C24   C     C_R   0.584098 0.925005 0.545092 0.247154
C25   C     C_R   0.588689 0.074255 0.541860 0.249500
C26   C     C_R   0.413393 0.925684 0.456581 0.240841
C27   C     C_R   0.512105 0.502057 0.885567 -0.032181
C28   C     C_R   0.528944 0.501440 0.115342 -0.032746
Cu1   Cu    Cu3+1 0.500000 0.640660 0.500000 0.981751
Cu2   Cu    Cu3+1 0.500000 0.359340 0.500000 0.976355
H1    H     H_    0.425839 0.708181 0.736010 0.183926
H2    H     H_    0.500775 0.277235 0.260355 0.175474
H3    H     H_    0.557024 0.719749 0.266118 0.181739
H4    H     H_    0.572898 0.290053 0.738221 0.168529
N1    N     N_R   0.500000 0.852070 0.500000 -0.209060
N2    N     N_R   0.500000 0.147930 0.500000 -0.213773
O1    O     O_R   0.319640 0.618740 0.499990 -0.575886
O2    O     O_R   0.680360 0.381260 0.500010 -0.554551
O3    O     O_R   0.680360 0.618740 0.500010 -0.566751
O4    O     O_R   0.319640 0.381260 0.499990 -0.547802
O5    O     O_R   0.500000 0.618830 0.391250 -0.561652
O6    O     O_R   0.500000 0.381170 0.608750 -0.583041
O7    O     O_R   0.500000 0.618830 0.608750 -0.557176
O8    O     O_R   0.500000 0.381170 0.391250 -0.566637
Br1   Br    Br    0.414198 0.784829 0.895803 -0.390268
Br2   Br    Br    0.493175 0.201775 0.100761 -0.371314
Br3   Br    Br    0.573674 0.799723 0.107755 -0.377291
Br4   Br    Br    0.610030 0.218658 0.897941 -0.391258
N3    N     N_2   0.305469 0.147332 0.425911 -0.370699
H5    H     H_    0.221006 0.115706 0.444388 0.222368
C29   C     C_3   0.304253 0.173930 0.345520 -0.583901
H6    H     H_    0.386759 0.128619 0.319819 0.213761
H7    H     H_    0.302937 0.287254 0.335411 0.252886
H8    H     H_    0.218756 0.130791 0.316913 0.190439
N4    N     N_2   0.663638 0.850429 0.597201 -0.367263
H9    H     H_    0.755080 0.843324 0.583367 0.253573
C30   C     C_3   0.644597 0.874239 0.676655 -0.624273
H10   H     H_    0.720888 0.938417 0.702546 0.212291
H11   H     H_    0.645045 0.773247 0.706304 0.244074
H12   H     H_    0.553991 0.926409 0.685376 0.221060
N5    N     N_2   0.680890 0.148586 0.585565 -0.365953
H13   H     H_    0.664933 0.158153 0.642142 0.244742
C31   C     C_3   0.809525 0.123584 0.569062 -0.693716
H14   H     H_    0.855499 0.056318 0.613149 0.206684
H15   H     H_    0.859729 0.223819 0.569564 0.236261
H16   H     H_    0.817634 0.074133 0.512671 0.211554
N6    N     N_2   0.323661 0.852065 0.410691 -0.377879
H17   H     H_    0.232876 0.872503 0.422967 0.221816
C32   C     C_3   0.343674 0.848601 0.330293 -0.613397
H18   H     H_    0.266922 0.902651 0.298011 0.210430
H19   H     H_    0.342972 0.740111 0.309980 0.235006
H20   H     H_    0.434037 0.895252 0.317059 0.219840
N7    N     N_2   0.116587 0.445455 0.363505 -0.441031
H21   H     H_    0.081877 0.363409 0.331631 0.266424
C33   C     C_3   0.135224 0.567850 0.318557 -0.701015
H22   H     H_    0.210952 0.547169 0.279835 0.233017
H23   H     H_    0.160227 0.657705 0.355404 0.248463
H24   H     H_    0.049537 0.594476 0.284073 0.229028
N8    N     N_2   0.878854 0.541823 0.637702 -0.431145
H25   H     H_    0.852822 0.450795 0.662948 0.246471
C34   C     C_3   0.917699 0.652428 0.689202 -0.569960
H26   H     H_    0.946518 0.745639 0.657715 0.218291
H27   H     H_    0.839438 0.681411 0.724145 0.216020
H28   H     H_    0.994142 0.616550 0.728899 0.256469
N9    N     N_2   0.851413 0.431805 0.367640 -0.434966
H29   H     H_    0.876902 0.480807 0.319298 0.268134
C35   C     C_3   0.826047 0.285392 0.355531 -0.651075
H30   H     H_    0.759062 0.273002 0.306193 0.239895
H31   H     H_    0.784642 0.238983 0.405446 0.254081
H32   H     H_    0.912425 0.227361 0.344129 0.205691
N10   N     N_2   0.145896 0.534487 0.636898 -0.428648
H33   H     H_    0.224521 0.594127 0.633563 0.250513
C36   C     C_3   0.169310 0.404712 0.676417 -0.658553
H34   H     H_    0.219596 0.425693 0.731568 0.241092
H35   H     H_    0.080444 0.352471 0.687456 0.238990
H36   H     H_    0.227213 0.334499 0.642629 0.229636

loop_
_geom_bond_atom_site_label_1
_geom_bond_atom_site_label_2
_ccdc_geom_bond_type
C35   H30   S    
C31   H15   S    
C36   H34   S    
C10   O6    A    
N7    H21   S    
C14   C18   A    
C15   Br3   S    
N4    H9    S    
C16   Br4   S    
C34   H26   S    
C30   H10   S    
C14   Br2   S    
N9    H29   S    
C24   N4    S    
C7    C11   A    
C26   N6    S    
C9    C22   S    
C30   H11   S    
Cu2   O2    S    
N5    C31   S    
C23   C26   A    
C32   H19   S    
C1    O4    A    
C4    C28   S    
C2    O3    A    
N3    C29   S    
Cu2   N2    S    
C16   C20   A    
C20   H4    S    
C16   C27   A    
C31   H16   S    
C36   H35   S    
Cu1   O7    S    
N7    C33   S    
Cu2   O8    S    
C32   H18   S    
C1    C12   S    
C2    C11   S    
C34   H27   S    
N9    C35   S    
C10   C21   S    
C24   N1    A    
C29   H6    S    
C19   C22   A    
C24   C25   A    
C5    C12   A    
C19   H3    S    
N10   H33   S    
N8    C34   S    
C30   H12   S    
C6    C8    A    
C17   C21   A    
N6    H17   S    
N6    C32   S    
C32   H20   S    
C15   C19   A    
C33   H22   S    
Cu1   Cu2   S    
N10   C36   S    
C2    O2    A    
C8    C12   A    
Cu1   O3    S    
Cu2   O4    S    
C8    N10   S    
C25   N5    S    
C33   H23   S    
N3    H5    S    
C36   H36   S    
N4    C30   S    
C17   H1    S    
C18   H2    S    
C3    C4    T    
C6    C11   A    
C34   H28   S    
C5    C7    A    
C9    O8    A    
Cu1   O5    S    
C10   O7    A    
C18   C22   A    
C13   C27   A    
C31   H14   S    
C1    O1    A    
Cu1   N1    S    
C9    O5    A    
C13   C17   A    
C29   H8    S    
C14   C28   A    
C35   H31   S    
C13   Br1   S    
C15   C28   A    
C7    N9    S    
C3    C27   S    
C5    N7    S    
N5    H13   S    
C33   H24   S    
C23   N3    S    
C25   N2    A    
C6    N8    S    
N8    H25   S    
C26   N1    A    
C20   C21   A    
C23   N2    A    
C35   H32   S    
Cu1   O1    S    
Cu2   O6    S    
C29   H7    S    
