data_mof_unit_48437.cif
_audit_creation_date              2013-03-05T16:41:45-0500
_audit_creation_method            fapswitch 2.2
_symmetry_space_group_name_H-M    P1
_symmetry_Int_Tables_number       1
_space_group_crystal_system       triclinic
_cell_length_a                    10.661628
_cell_length_b                    10.701176
_cell_length_c                    9.838061
_cell_angle_alpha                 90.880122
_cell_angle_beta                  91.326656
_cell_angle_gamma                 89.707043
_cell_volume                      1121.99766839

loop_
_atom_site_label
_atom_site_type_symbol
_atom_site_description
_atom_site_fract_x
_atom_site_fract_y
_atom_site_fract_z
_atom_type_partial_charge
O1    O     O_R   0.500020 0.316790 0.614690 -0.611228
O2    O     O_R   0.500000 0.316760 0.385350 -0.581692
C1    C     C_R   0.509258 0.260116 0.498541 0.909421
O3    O     O_R   0.316770 0.500020 0.614690 -0.599215
O4    O     O_R   0.316760 0.499980 0.385350 -0.590627
C2    C     C_R   0.259301 0.508014 0.498857 0.981417
Zn1   Zn    Zn3+2 0.500010 0.500020 0.653130 1.054062
Zn2   Zn    Zn3+2 0.499990 0.499980 0.346870 1.135675
O5    O     O_R   0.500000 0.683240 0.614650 -0.585828
O6    O     O_R   0.499980 0.683210 0.385310 -0.594085
O7    O     O_R   0.683240 0.500020 0.614650 -0.628703
O8    O     O_R   0.683230 0.499980 0.385310 -0.527552
C3    C     C_R   0.504702 0.740393 0.500826 0.960233
C4    C     C_R   0.739336 0.483826 0.502167 0.934153
H1    H     H_    0.111471 0.423834 0.296302 0.265644
C5    C     C_R   0.106990 0.621431 0.720811 0.675919
C6    C     C_R   0.049194 0.626684 0.846628 -0.184577
H2    H     H_    0.087016 0.686158 0.927462 0.244291
C7    C     C_R   0.949231 0.547556 0.871537 -0.247171
H3    H     H_    0.914467 0.542477 0.973839 0.251577
C8    C     C_R   0.896876 0.473666 0.765564 0.349636
C9    C     C_R   0.941389 0.489086 0.631285 -0.140808
C10   C     C_R   0.059227 0.542034 0.616089 -0.115433
C11   C     C_R   0.124619 0.510257 0.497170 -0.165264
C12   C     C_R   0.062370 0.454033 0.385707 -0.214674
C13   C     C_R   0.935175 0.436022 0.388789 0.669474
C14   C     C_R   0.872678 0.460393 0.509776 -0.183496
C15   C     C_R   0.566162 0.066640 0.613329 0.043226
C16   C     C_R   0.539007 0.129624 0.493409 -0.179385
C17   C     C_R   0.539020 0.060930 0.368829 0.300650
C18   C     C_R   0.530108 0.931812 0.373496 -0.170693
H4    H     H_    0.519708 0.880081 0.278371 0.247839
C19   C     C_R   0.528194 0.871601 0.499339 -0.165090
C20   C     C_R   0.562785 0.939361 0.616279 0.018416
C21   C     C_3   0.527528 0.941305 0.763577 0.450499
C22   C     C_3   0.529629 0.083975 0.758213 -0.417695
H5    H     H_    0.436202 0.129196 0.768542 0.210590
H6    H     H_    0.605900 0.127809 0.821139 0.271089
C23   C     C_R   0.435260 0.410950 0.068180 0.069387
N1    N     N_R   0.499160 0.499140 0.142800 -0.175445
C24   C     C_R   0.574803 0.579012 0.075162 0.735908
C25   C     C_R   0.574733 0.578740 0.931036 -0.079480
H7    H     H_    0.634410 0.642015 0.878658 0.197615
N2    N     N_R   0.499160 0.499180 0.857150 -0.116506
C26   C     C_R   0.437268 0.409239 0.925292 0.054842
C27   C     C_3   0.300866 0.382062 0.911749 -0.523051
C28   C     C_3   0.296849 0.391532 0.065166 1.090820
H8    H     H_    0.247697 0.457089 0.860008 0.209186
H9    H     H_    0.282880 0.286345 0.870672 0.216004
N3    N     N_R   0.626147 0.891629 0.854662 0.204947
O9    O     O_R   0.729436 0.845533 0.806041 -0.380560
O10   O     O_R   0.617557 0.907275 0.985503 -0.272624
F1    F     F_    0.648923 0.660504 0.146133 -0.605765
F2    F     F_    0.231237 0.495866 0.109241 -0.683814
F3    F     F_    0.261738 0.281870 0.126135 -0.609655
F4    F     F_    0.206122 0.696825 0.700221 -0.591414
N4    N     N_R   0.813570 0.372865 0.797595 0.234166
O11   O     O_R   0.767558 0.365003 0.918547 -0.351098
O12   O     O_R   0.799481 0.278318 0.713852 -0.376601
F5    F     F_    0.873889 0.393507 0.274705 -0.579546
N5    N     N_R   0.541728 0.118982 0.238358 0.239007
O13   O     O_R   0.637334 0.187278 0.207544 -0.280654
O14   O     O_R   0.462178 0.085109 0.142646 -0.304253
N6    N     N_R   0.402595 0.890539 0.788196 0.235173
O15   O     O_R   0.386594 0.809257 0.883210 -0.303551
O16   O     O_R   0.305298 0.930661 0.718981 -0.323632

loop_
_geom_bond_atom_site_label_1
_geom_bond_atom_site_label_2
_geom_bond_distance
_ccdc_geom_bond_type
C6    H2    1.082727 S    
O4    Zn2   1.998459 S    
N3    O10   1.300783 A    
C10   C11   1.411939 A    
C18   C19   1.405041 A    
C8    N4    1.443927 S    
C16   C17   1.419456 A    
O2    C1    1.277607 A    
C4    C14   1.442765 S    
C24   C25   1.417867 A    
C18   H4    1.083728 S    
C21   C22   1.528749 S    
Zn2   O8    1.981287 S    
C17   C18   1.387003 A    
C23   C26   1.406229 A    
C2    C11   1.435724 S    
N6    O15   1.301280 A    
C21   N3    1.468471 S    
C5    F4    1.353755 S    
C19   C20   1.393863 A    
C13   C14   1.397913 A    
C15   C20   1.363461 A    
O1    Zn1   1.991201 S    
Zn1   N2    2.007550 S    
C11   C12   1.398239 A    
Zn1   O7    1.998458 S    
C27   H9    1.111281 S    
C24   F1    1.354725 S    
N4    O11   1.301613 A    
C21   N6    1.467772 S    
C25   N2    1.365041 A    
C28   F2    1.383874 S    
O4    C2    1.287577 A    
C22   H6    1.111848 S    
C22   H5    1.111279 S    
C6    C7    1.393059 A    
O8    C4    1.297145 A    
C8    C9    1.426236 A    
N3    O9    1.302474 A    
C5    C10   1.412760 A    
C9    C10   1.392971 A    
C9    C14   1.417891 A    
O3    Zn1   1.981288 S    
N5    O13   1.301455 A    
Zn2   O6    1.991201 S    
O7    C4    1.279067 A    
C27   H8    1.104354 S    
N4    O12   1.301992 A    
O3    C2    1.285104 A    
H1    C12   1.078410 S    
C25   H7    1.076626 S    
C1    C16   1.430793 S    
N2    C26   1.363090 A    
C15   C22   1.494886 S    
C28   F3    1.383316 S    
C20   C21   1.505291 S    
C17   N5    1.435520 S    
C23   N1    1.362291 A    
Zn1   O5    2.002582 S    
O5    C3    1.286276 A    
C27   C28   1.512752 S    
C15   C16   1.391620 A    
N1    C24   1.368615 A    
Zn2   N1    2.007350 S    
C7    C8    1.405704 A    
C12   C13   1.371811 A    
C26   C27   1.487079 S    
C23   C28   1.490847 S    
C13   F5    1.359061 S    
N5    O14   1.301178 A    
O2    Zn2   2.002582 S    
C7    H3    1.082793 S    
C3    C19   1.427853 S    
C5    C6    1.395651 A    
O1    C1    1.290944 A    
O6    C3    1.282502 A    
N6    O16   1.302242 A    
