data_mof_unit_50378.cif
_audit_creation_date              2012-10-26T19:15:04-0400
_audit_creation_method            fapswitch 2.2
_symmetry_space_group_name_H-M    P1
_symmetry_Int_Tables_number       1
_space_group_crystal_system       triclinic
_cell_length_a                    10.858562
_cell_length_b                    10.820241
_cell_length_c                    9.590496
_cell_angle_alpha                 88.869567
_cell_angle_beta                  90.755059
_cell_angle_gamma                 91.613094
_cell_volume                      1126.05344052

loop_
_atom_site_label
_atom_site_type_symbol
_atom_type_description
_atom_site_fract_x
_atom_site_fract_y
_atom_site_fract_z
_atom_type_partial_charge
Br1   Br    Br    0.206477 0.148735 0.550922 -0.507309
Br2   Br    Br    0.206373 0.845797 0.523687 -0.468806
C1    C     C_R   0.500748 0.262518 0.501040 0.580481
C2    C     C_R   0.450269 0.931623 0.606279 -0.009428
C3    C     C_3   0.321698 0.918580 0.659592 0.067014
C4    C     C_R   0.262667 0.495620 0.499246 0.595217
C5    C     C_3   0.324400 0.059498 0.668134 0.057964
C6    C     C_R   0.537548 0.602823 0.071582 0.156282
C7    C     C_R   0.445999 0.406530 0.077877 0.025462
C8    C     C_R   0.437335 0.408980 0.929217 0.242221
C9    C     C_R   0.536889 0.602996 0.924892 0.136390
C10   C     C_3   0.657519 0.669464 0.918184 -0.290266
C11   C     C_3   0.660214 0.667864 0.076694 -0.273392
C12   C     C_R   0.940240 0.490403 0.625539 0.040815
C13   C     C_R   0.501693 0.737310 0.498875 0.575620
C14   C     C_R   0.737914 0.500237 0.500625 0.532012
C15   C     C_R   0.066643 0.481769 0.624061 0.020665
C16   C     C_R   0.129667 0.481992 0.498594 0.058799
C17   C     C_R   0.062058 0.469382 0.373632 -0.113598
C18   C     C_R   0.933632 0.473481 0.374914 -0.139618
C19   C     C_R   0.871632 0.491942 0.500805 0.021943
C20   C     C_3   0.249219 0.275171 0.939433 -0.354380
C21   C     C_3   0.941513 0.796834 0.807677 -0.279073
C22   C     C_3   0.948611 0.578060 0.745657 -0.005277
C23   C     C_3   0.087142 0.563285 0.745588 -0.205669
C24   C     C_R   0.452053 0.058809 0.610322 0.000868
C25   C     C_R   0.506819 0.129211 0.503167 0.048890
C26   C     C_R   0.570801 0.068864 0.398759 -0.138766
C27   C     C_R   0.570746 0.939678 0.396778 -0.140105
C28   C     C_R   0.505841 0.870548 0.498474 0.043418
Cu1   Cu    Cu3+1 0.499990 0.499980 0.640670 0.954855
Cu2   Cu    Cu3+1 0.500010 0.500020 0.359330 0.960487
H1    H     H_    0.108005 0.462221 0.274667 0.130584
H2    H     H_    0.905895 0.540188 0.842410 0.113700
H3    H     H_    0.142238 0.648073 0.718910 0.196033
H4    H     H_    0.121635 0.511397 0.838430 0.105801
H5    H     H_    0.618495 0.121334 0.317559 0.130728
H6    H     H_    0.619104 0.894276 0.315166 0.118294
H7    H     H_    0.337052 0.334311 0.761698 0.328497
H8    H     H_    0.180734 0.232543 0.866502 0.172264
H9    H     H_    0.204314 0.352850 0.991019 0.135012
H10   H     H_    0.274583 0.203235 0.017916 0.159472
H11   H     H_    0.824162 0.707250 0.667630 0.260808
H12   H     H_    0.318911 0.871546 0.763663 0.094939
H13   H     H_    0.905953 0.886827 0.769706 0.166534
H14   H     H_    0.042583 0.808226 0.823250 0.177121
H15   H     H_    0.898379 0.772355 0.909186 0.125570
H16   H     H_    0.326283 0.089130 0.777901 0.122274
H17   H     H_    0.405513 0.330832 0.137979 0.142490
H18   H     H_    0.726392 0.610694 0.872237 0.152097
H19   H     H_    0.650119 0.763630 0.870872 0.130362
H20   H     H_    0.733584 0.609411 0.122490 0.144548
H21   H     H_    0.655222 0.761627 0.120835 0.125337
H22   H     H_    0.883817 0.467142 0.276637 0.127082
N1    N     N_R   0.500790 0.500930 0.147930 -0.262641
N2    N     N_R   0.500790 0.500890 0.852020 -0.235187
N3    N     N_2   0.357888 0.318739 0.863993 -0.518913
N4    N     N_2   0.913087 0.702686 0.705960 -0.484149
O1    O     O_R   0.500000 0.319640 0.618810 -0.502839
O2    O     O_R   0.500010 0.319680 0.381230 -0.512012
O3    O     O_R   0.319650 0.499970 0.618810 -0.521553
O4    O     O_R   0.319660 0.500010 0.381230 -0.492849
O5    O     O_R   0.499990 0.680320 0.618770 -0.507713
O6    O     O_R   0.500000 0.680360 0.381190 -0.489014
O7    O     O_R   0.680340 0.499990 0.618770 -0.511893
O8    O     O_R   0.680350 0.500030 0.381190 -0.514500

loop_
_geom_bond_atom_site_label_1
_geom_bond_atom_site_label_2
_ccdc_geom_bond_type
C27   H6    S    
C21   N4    S    
C2    C24   A    
C9    C10   S    
C3    C5    S    
C7    H17   S    
C14   C19   S    
C21   H13   S    
Cu1   N2    S    
C11   H20   S    
C8    N2    A    
C7    C8    A    
Cu1   O3    S    
Cu2   N1    S    
C10   H18   S    
Cu1   Cu2   S    
C13   O6    A    
C20   H8    S    
C1    O2    A    
C4    O4    A    
C20   N3    S    
C1    C25   S    
C15   C16   A    
H7    N3    S    
C15   C23   S    
C21   H14   S    
C20   H10   S    
C5    H16   S    
C10   C11   S    
C12   C15   A    
Cu2   O6    S    
C24   C25   A    
C27   C28   A    
C5    C24   S    
C26   H5    S    
C23   H3    S    
C6    C9    A    
C7    N1    A    
C4    O3    A    
C22   N4    S    
C26   C27   A    
C3    H12   S    
C6    N1    A    
C11   H21   S    
C8    N3    S    
C4    C16   S    
C2    C28   A    
Br2   C3    S    
C14   O8    A    
Cu2   O2    S    
C23   H4    S    
Cu1   O1    S    
C20   H9    S    
C6    C11   S    
Cu1   O5    S    
C10   H19   S    
C21   H15   S    
C22   C23   S    
C12   C19   A    
C13   C28   S    
C18   H22   S    
C16   C17   A    
C17   H1    S    
C12   C22   S    
C25   C26   A    
Cu1   O7    S    
C13   O5    A    
C14   O7    A    
Cu2   O4    S    
H11   N4    S    
C18   C19   A    
Br1   C5    S    
C22   H2    S    
C9    N2    A    
C17   C18   A    
Cu2   O8    S    
C2    C3    S    
C1    O1    A    
