data_mof_unit_38209.cif
_audit_creation_date              2013-03-05T15:46:45-0500
_audit_creation_method            fapswitch 2.2
_symmetry_space_group_name_H-M    P1
_symmetry_Int_Tables_number       1
_space_group_crystal_system       triclinic
_cell_length_a                    10.31717
_cell_length_b                    10.716182
_cell_length_c                    12.34173
_cell_angle_alpha                 92.091458
_cell_angle_beta                  109.454553
_cell_angle_gamma                 93.669626
_cell_volume                      1281.5410944

loop_
_atom_site_label
_atom_site_type_symbol
_atom_site_description
_atom_site_fract_x
_atom_site_fract_y
_atom_site_fract_z
_atom_type_partial_charge
O1    O     O_R   0.936910 0.692950 0.509080 -0.581053
O2    O     O_R   0.138320 0.658600 0.480130 -0.566610
C1    C     C_R   0.049902 0.732549 0.494876 0.971971
O3    O     O_R   0.002900 0.525670 0.675280 -0.587163
O4    O     O_R   0.204310 0.491320 0.646330 -0.622125
C2    C     C_R   0.132844 0.508675 0.714404 0.894832
Zn1   Zn    Zn3+2 0.865520 0.522940 0.519330 1.030344
Zn2   Zn    Zn3+2 0.134480 0.477060 0.480670 1.035601
O5    O     O_R   0.861680 0.341400 0.519870 -0.553517
O6    O     O_R   0.063090 0.307050 0.490920 -0.593380
O7    O     O_R   0.795690 0.508680 0.353670 -0.573558
O8    O     O_R   0.997100 0.474330 0.324720 -0.614780
C3    C     C_R   0.955587 0.267663 0.514134 0.938765
C4    C     C_R   0.866784 0.490920 0.285594 0.879565
C5    C     C_R   0.729969 0.353078 0.982664 -0.268354
H1    H     H_    0.520931 0.253271 0.809942 0.157074
H2    H     H_    0.757705 0.291123 0.923877 0.192915
C6    C     C_R   0.791002 0.477553 0.161892 -0.176227
C7    C     C_R   0.156992 0.597033 0.909219 -0.259009
C8    C     C_R   0.240067 0.630541 0.024327 0.591847
C9    C     C_R   0.371824 0.587480 0.064393 -0.213414
C10   C     C_R   0.419734 0.506882 0.994910 0.012532
C11   C     C_R   0.326910 0.460944 0.886741 0.069409
C12   C     C_R   0.557125 0.471421 0.027405 0.127194
C13   C     C_R   0.593720 0.383106 0.956589 0.105231
C14   C     C_R   0.494034 0.325135 0.860034 -0.253917
C15   C     C_R   0.361175 0.361706 0.826298 -0.188285
C16   C     C_R   0.659774 0.521352 0.127352 -0.250606
C17   C     C_R   0.830880 0.401840 0.084116 0.304983
C18   C     C_R   0.203222 0.517390 0.839457 -0.159945
H3    H     H_    0.638676 0.589946 0.183950 0.169066
H4    H     H_    0.058615 0.635099 0.871503 0.179584
H5    H     H_    0.433309 0.617364 0.151762 0.169768
H6    H     H_    0.286171 0.314541 0.750384 0.198418
C19   C     C_2   0.078491 0.866164 0.503326 -0.500481
C20   C     C_2   0.042026 0.938213 0.578667 0.214084
H7    H     H_    0.848270 0.091610 0.534040 0.180930
C21   C     C_2   0.948554 0.136914 0.541771 -0.395355
C22   C     C_2   0.063333 0.073141 0.575051 0.413639
H8    H     H_    0.126156 0.907656 0.445244 0.160740
N1    N     N_2   0.313640 0.446500 0.454900 0.047202
C23   C     C_2   0.430222 0.516788 0.505178 0.516969
H9    H     H_    0.678262 0.641540 0.576633 0.175865
N2    N     N_2   0.686360 0.553430 0.545150 -0.260066
C24   C     C_2   0.571472 0.482667 0.497444 0.215208
N3    N     N_R   0.971010 0.374409 0.104958 0.178483
O9    O     O_R   0.068574 0.464783 0.137757 -0.412106
O10   O     O_R   0.997005 0.268358 0.064955 -0.434071
N4    N     N_R   0.998825 0.888366 0.669260 0.218094
O11   O     O_R   0.915124 0.947472 0.707687 -0.413274
O12   O     O_R   0.066657 0.802234 0.730111 -0.455788
N5    N     N_R   0.577168 0.373593 0.429332 0.274388
O13   O     O_R   0.547403 0.379083 0.318692 -0.404864
O14   O     O_R   0.597315 0.266159 0.475541 -0.395594
O15   O     O_3   0.424064 0.630475 0.560160 -0.621855
C25   C     C_3   0.481556 0.623279 0.681150 0.077754
H10   H     H_    0.595592 0.633676 0.711807 0.120650
H11   H     H_    0.451533 0.532778 0.710215 0.166462
C26   C     C_3   0.434729 0.729306 0.740963 -0.736913
H12   H     H_    0.320583 0.727024 0.710351 0.271613
H13   H     H_    0.472572 0.719943 0.835485 0.199643
H14   H     H_    0.477209 0.820750 0.722465 0.239430
O16   O     O_3   0.334906 0.325286 0.437098 -0.563469
C27   C     C_3   0.223849 0.266326 0.345453 0.264315
H15   H     H_    0.145635 0.329337 0.302336 0.206834
H16   H     H_    0.173879 0.189245 0.378572 0.176376
C28   C     C_3   0.276893 0.206548 0.256214 -0.716253
H17   H     H_    0.366646 0.152681 0.298759 0.273602
H18   H     H_    0.194651 0.140936 0.196016 0.219417
H19   H     H_    0.306791 0.279777 0.205749 0.296611
O17   O     O_3   0.204483 0.708580 0.101558 -0.597449
C29   C     C_3   0.069479 0.747694 0.059002 0.149437
H20   H     H_    0.991257 0.666265 0.028140 0.161860
H21   H     H_    0.060774 0.812302 0.988767 0.175152
C30   C     C_3   0.038935 0.817875 0.156062 -0.785927
H22   H     H_    0.114728 0.900301 0.190004 0.253142
H23   H     H_    0.933597 0.850563 0.123616 0.206677
H24   H     H_    0.044978 0.755015 0.226940 0.258011
O18   O     O_3   0.191752 0.129476 0.580308 -0.603492
C31   C     C_3   0.306282 0.071159 0.652783 0.036052
H25   H     H_    0.294211 0.967808 0.649749 0.161856
H26   H     H_    0.327847 0.104261 0.743605 0.159074
C32   C     C_3   0.430586 0.103315 0.615984 -0.702300
H27   H     H_    0.450197 0.206309 0.616932 0.286670
H28   H     H_    0.523302 0.064368 0.675426 0.203657
H29   H     H_    0.411076 0.062667 0.527349 0.272208

loop_
_geom_bond_atom_site_label_1
_geom_bond_atom_site_label_2
_geom_bond_distance
_ccdc_geom_bond_type
O15   C25   1.418379 S    
C29   H21   1.112962 S    
N1    C23   1.323580 D    
C4    C6    1.461923 S    
C19   C20   1.349103 D    
H9    N2    1.026846 S    
N2    C24   1.309255 D    
Zn1   O7    1.924690 S    
C14   C15   1.380703 A    
C29   C30   1.521810 S    
C21   C22   1.355782 D    
O7    C4    1.302618 A    
C5    C13   1.395435 A    
C9    H5    1.077417 S    
C25   H10   1.106080 S    
C5    H2    1.084684 S    
O5    C3    1.306781 A    
C7    C8    1.412103 A    
N4    O12   1.299585 A    
C8    O17   1.398892 S    
C11   C15   1.406509 A    
C26   H12   1.108827 S    
C9    C10   1.417253 A    
C31   C32   1.520715 S    
C7    H4    1.079530 S    
N5    O14   1.301347 A    
C5    C17   1.392477 A    
C16   H3    1.076987 S    
C15   H6    1.079116 S    
H1    C14   1.076644 S    
N3    O10   1.301344 A    
C26   H13   1.110656 S    
C28   H17   1.110433 S    
C11   C18   1.401220 A    
C6    C16   1.395188 A    
C12   C13   1.416772 A    
C31   H26   1.107483 S    
C29   H20   1.112950 S    
C24   N5    1.430490 S    
O3    Zn1   1.971712 S    
C13   C14   1.382582 A    
O16   C27   1.408274 S    
C28   H18   1.109911 S    
C23   C24   1.557192 S    
C27   H16   1.107098 S    
C30   H22   1.110649 S    
C27   C28   1.522409 S    
H7    C21   1.087135 S    
C23   O15   1.388169 S    
C32   H27   1.108208 S    
C1    C19   1.436171 S    
Zn2   O8    1.971713 S    
C6    C17   1.413476 A    
Zn1   N2    2.021644 S    
Zn2   N1    2.021523 S    
C30   H23   1.110515 S    
C3    C21   1.457090 S    
O3    C2    1.292342 A    
C2    C18   1.467055 S    
O8    C4    1.294927 A    
C10   C12   1.419830 A    
N1    O16   1.353310 S    
N5    O13   1.300453 A    
Zn1   O5    1.943583 S    
N3    O9    1.300070 A    
C26   H14   1.110169 S    
C32   H28   1.110598 S    
O1    Zn1   1.945451 S    
C20   C22   1.453116 S    
O2    Zn2   1.943581 S    
C12   C16   1.392324 A    
C31   H25   1.104422 S    
O6    C3    1.284901 A    
O4    Zn2   1.924690 S    
C25   C26   1.521807 S    
C17   N3    1.433515 S    
C28   H19   1.109747 S    
C27   H15   1.095542 S    
O2    C1    1.298403 A    
O17   C29   1.412480 S    
O4    C2    1.304944 A    
C25   H11   1.107312 S    
C19   H8    1.087874 S    
C30   H24   1.111262 S    
O18   C31   1.420608 S    
C32   H29   1.110953 S    
C8    C9    1.398037 A    
Zn2   O6    1.945453 S    
N4    O11   1.301049 A    
C10   C11   1.407749 A    
O1    C1    1.283759 A    
C7    C18   1.403286 A    
C20   N4    1.441926 S    
C22   O18   1.400556 S    
