data_mof_unit_47344.cif
_audit_creation_date              2012-12-11T16:19:52-0500
_audit_creation_method            fapswitch 2.2
_symmetry_space_group_name_H-M    P1
_symmetry_Int_Tables_number       1
_space_group_crystal_system       triclinic
_cell_length_a                    13.495721
_cell_length_b                    14.062535
_cell_length_c                    29.999177
_cell_angle_alpha                 97.50043
_cell_angle_beta                  89.946236
_cell_angle_gamma                 118.840656
_cell_volume                      4931.88820591

loop_
_atom_site_label
_atom_site_type_symbol
_atom_type_description
_atom_site_fract_x
_atom_site_fract_y
_atom_site_fract_z
_atom_type_partial_charge
C1    C     C_R   0.721193 0.098928 0.568673 0.545338
C2    C     C_R   0.350355 0.645137 0.671440 0.006412
C3    C     C_R   0.267846 0.669936 0.658340 -0.113446
C4    C     C_R   0.266531 0.701985 0.616262 -0.018154
C5    C     C_R   0.223736 0.561968 0.816512 -0.138931
C6    C     C_R   0.205291 0.554357 0.861737 -0.145090
C7    C     C_R   0.408796 0.633192 0.879558 -0.002926
C8    C     C_R   0.425261 0.638633 0.833407 -0.112200
C9    C     C_R   0.332842 0.600688 0.802116 0.015942
C10   C     C_1   0.348798 0.611332 0.755505 -0.051170
C11   C     C_1   0.353829 0.624030 0.716619 -0.047048
C12   C     C_R   0.381595 0.784997 0.550518 0.528244
C13   C     C_R   0.295999 0.585741 0.893629 0.032733
C14   C     C_3   0.389225 0.101151 0.721964 -0.197817
C15   C     C_3   0.198901 0.089344 0.710351 -0.212955
C16   C     C_3   0.184922 0.102758 0.762217 -0.074936
C17   C     C_1   0.296708 0.200931 0.877059 -0.040799
C18   C     C_3   0.325525 0.152533 0.700333 0.053008
C19   C     C_3   0.380455 0.109722 0.773929 -0.074868
C20   C     C_3   0.306149 0.164747 0.788213 0.089270
C21   C     C_3   0.367275 0.281402 0.773785 -0.242497
C22   C     C_3   0.376132 0.273770 0.722154 -0.228684
C23   C     C_R   0.396728 0.118677 0.569115 0.543482
C24   C     C_1   0.302152 0.181530 0.837280 -0.084141
C25   C     C_1   0.340315 0.145362 0.651713 -0.083448
C26   C     C_1   0.361689 0.136150 0.612975 -0.035478
C27   C     C_3   0.742593 0.204383 0.725501 -0.217331
C28   C     C_3   0.944324 0.247866 0.718316 -0.216414
C29   C     C_3   0.961080 0.261673 0.770306 -0.210499
C30   C     C_1   0.897726 0.205420 0.878825 -0.041934
C31   C     C_3   0.820037 0.162574 0.702241 0.064047
C32   C     C_3   0.752934 0.211675 0.777849 -0.083079
C33   C     C_3   0.848893 0.185585 0.790830 0.073044
C34   C     C_R   0.719269 0.094898 0.442385 0.541598
C35   C     C_3   0.812523 0.065774 0.769435 -0.214031
C36   C     C_3   0.788891 0.049457 0.717344 -0.082417
C37   C     C_1   0.870169 0.195574 0.839669 -0.079515
C38   C     C_1   0.799536 0.150534 0.653216 -0.085640
C39   C     C_1   0.771049 0.131909 0.613729 -0.033673
C40   C     C_3   0.295397 0.757892 0.269414 -0.082495
C41   C     C_3   0.258357 0.563220 0.272089 -0.192576
C42   C     C_3   0.239946 0.545381 0.219626 -0.078758
C43   C     C_1   0.307809 0.606804 0.110893 -0.030441
C44   C     C_3   0.339405 0.685688 0.289474 0.073259
C45   C     C_R   0.382140 0.784210 0.425020 0.543385
C46   C     C_3   0.304359 0.746263 0.217185 -0.219692
C47   C     C_3   0.329579 0.651251 0.200605 0.065469
C48   C     C_3   0.449959 0.685795 0.220151 -0.225487
C49   C     C_3   0.457913 0.714585 0.272046 -0.231651
C50   C     C_1   0.322970 0.632954 0.151088 -0.081360
C51   C     C_1   0.352592 0.707763 0.338885 -0.083029
C52   C     C_1   0.365405 0.735829 0.378974 -0.036965
C53   C     C_R   0.363676 0.131271 0.398678 0.019798
C54   C     C_R   0.439443 0.223629 0.379379 -0.125773
C55   C     C_R   0.427680 0.225360 0.333457 -0.116431
C56   C     C_R   0.397031 0.114424 0.442522 0.540800
C57   C     C_R   0.339695 0.135607 0.306456 0.038093
C58   C     C_R   0.257817 0.047983 0.325906 -0.122109
C59   C     C_R   0.269236 0.046073 0.372027 -0.136594
C60   C     C_R   0.250268 0.073667 0.142159 -0.127400
C61   C     C_R   0.238067 0.100968 0.100210 -0.135219
C62   C     C_R   0.415732 0.271372 0.117064 -0.131649
C63   C     C_R   0.427414 0.244128 0.159037 -0.119481
C64   C     C_R   0.342595 0.147416 0.172225 0.030092
C65   C     C_1   0.339898 0.135311 0.218844 -0.045981
C66   C     C_1   0.337787 0.132525 0.258643 -0.040542
C67   C     C_R   0.355741 0.715825 0.587446 0.019632
C68   C     C_R   0.318269 0.202387 0.088142 0.017672
C69   C     C_R   0.773838 0.130165 0.400665 0.020358
C70   C     C_R   0.789711 0.056171 0.369247 -0.129657
C71   C     C_R   0.809274 0.075832 0.324907 -0.121224
C72   C     C_R   0.814082 0.169749 0.311876 0.038744
C73   C     C_R   0.808441 0.248441 0.343687 -0.117083
C74   C     C_R   0.788936 0.229072 0.388048 -0.128130
C75   C     C_R   0.851858 0.284718 0.162176 -0.139731
C76   C     C_R   0.886383 0.298009 0.118672 -0.141125
C77   C     C_R   0.846424 0.108645 0.105066 -0.113985
C78   C     C_R   0.429021 0.674110 0.598586 -0.019168
C79   C     C_R   0.814329 0.094527 0.149303 0.013552
C80   C     C_R   0.821476 0.185789 0.178147 0.036634
C81   C     C_1   0.815447 0.184304 0.225643 -0.052234
C82   C     C_1   0.815229 0.180088 0.265239 -0.045267
C83   C     C_R   0.889176 0.211626 0.090642 0.000832
C84   C     C_R   0.284049 0.233146 0.922653 0.546305
C85   C     C_R   0.266412 0.546577 0.937641 0.531425
C86   C     C_R   0.945911 0.222459 0.923409 0.541955
C87   C     C_R   0.292747 0.242438 0.049061 0.538968
C88   C     C_R   0.275244 0.558812 0.064797 0.542025
C89   C     C_R   0.427300 0.642260 0.641199 -0.114377
C90   C     C_R   0.952380 0.231980 0.049836 0.536248
Cr1   Cr    Cr6+3 0.583400 0.162540 0.509180 1.009661
Cr2   Cr    Cr6+3 0.584070 0.916690 0.495550 0.993370
Cr3   Cr    Cr6+3 0.332550 0.920810 0.495240 0.992212
Cr4   Cr    Cr6+3 0.086700 0.177000 0.983690 0.998262
Cr5   Cr    Cr6+3 0.336880 0.419130 0.994740 1.002505
Cr6   Cr    Cr6+3 0.084850 0.422220 0.995960 1.008814
H1    H     H_    0.355314 0.014493 0.705757 0.110285
H2    H     H_    0.149887 0.120321 0.692927 0.093836
H3    H     H_    0.163838 0.001278 0.696190 0.109561
H4    H     H_    0.147218 0.157956 0.768579 0.115781
H5    H     H_    0.466703 0.321080 0.714748 0.115892
H6    H     H_    0.329974 0.311613 0.707717 0.122393
H7    H     H_    0.454009 0.330698 0.790952 0.110888
H8    H     H_    0.480102 0.145070 0.714826 0.097918
H9    H     H_    0.467369 0.167575 0.789757 0.123634
H10   H     H_    0.003658 0.222167 0.702296 0.108115
H11   H     H_    0.965815 0.328461 0.707988 0.111599
H12   H     H_    0.028379 0.241856 0.779161 0.104509
H13   H     H_    0.695934 0.995015 0.709313 0.126010
H14   H     H_    0.734840 0.007267 0.784380 0.094058
H15   H     H_    0.204497 0.665792 0.681504 0.101931
H16   H     H_    0.652854 0.147788 0.712866 0.090189
H17   H     H_    0.225391 0.731719 0.198860 0.107193
H18   H     H_    0.175402 0.534412 0.287324 0.101194
H19   H     H_    0.154978 0.535711 0.211013 0.122006
H20   H     H_    0.494042 0.669212 0.287574 0.111085
H21   H     H_    0.513573 0.758844 0.205935 0.107913
H22   H     H_    0.352458 0.845483 0.283732 0.133168
H23   H     H_    0.373281 0.824812 0.208344 0.113578
H24   H     H_    0.470926 0.618757 0.210759 0.112817
H25   H     H_    0.183658 0.999176 0.152379 0.105165
H26   H     H_    0.188321 0.979372 0.305106 0.102844
H27   H     H_    0.208537 0.974981 0.386194 0.123399
H28   H     H_    0.512642 0.291121 0.398968 0.125122
H29   H     H_    0.498665 0.302044 0.182365 0.104976
H30   H     H_    0.857517 0.354488 0.184551 0.101081
H31   H     H_    0.813056 0.321757 0.333730 0.101680
H32   H     H_    0.777712 0.287888 0.411566 0.121101
H33   H     H_    0.778579 0.979397 0.377930 0.126222
H34   H     H_    0.845568 0.041998 0.082350 0.124223
H35   H     H_    0.814405 0.014983 0.300275 0.098076
O1    O     O_R   0.494060 0.188820 0.559230 -0.507426
O2    O     O_R   0.480140 0.824500 0.445020 -0.496030
O3    O     O_R   0.308480 0.808690 0.440220 -0.519154
O4    O     O_R   0.340970 0.020670 0.455610 -0.501835
O5    O     O_3   0.500010 0.000010 0.499990 -0.232201
O6    O     O_R   0.969690 0.151000 0.934080 -0.513854
O7    O     O_R   0.187530 0.180840 0.938210 -0.499366
O8    O     O_R   0.358160 0.327300 0.941250 -0.511823
O9    O     O_R   0.323950 0.507710 0.953980 -0.502801
O10   O     O_R   0.170530 0.527770 0.952070 -0.520024
O11   O     O_R   0.987720 0.318450 0.945940 -0.497128
O12   O     O_R   0.678470 0.153390 0.554100 -0.492541
O13   O     O_R   0.976400 0.159230 0.032040 -0.525907
O14   O     O_R   0.193740 0.188470 0.029020 -0.502948
O15   O     O_R   0.364860 0.335530 0.039220 -0.519065
O16   O     O_R   0.330170 0.515340 0.044800 -0.497312
O17   O     O_R   0.177230 0.536000 0.050040 -0.511515
O18   O     O_R   0.993930 0.326080 0.036750 -0.498924
O19   O     O_3   0.169480 0.339450 0.991460 -0.235561
O20   O     O_R   0.697870 0.003940 0.549410 -0.523354
O21   O     O_R   0.480980 0.827230 0.535590 -0.501373
O22   O     O_R   0.309390 0.811640 0.537920 -0.524866
O23   O     O_R   0.341810 0.023400 0.546180 -0.503243
O24   O     O_R   0.493150 0.185870 0.461540 -0.521641
O25   O     O_R   0.677630 0.150660 0.463530 -0.502684
O26   O     O_R   0.696960 0.000990 0.451710 -0.518889
H36   H     H_    0.118515 0.517761 0.871256 0.131415
C91   C     C_3   0.094209 0.991503 0.775788 -0.281838
C92   C     C_3   0.059817 0.996887 0.824557 -0.285613
C93   C     C_3   0.947095 0.896620 0.830600 -0.455817
H37   H     H_    0.876990 0.894523 0.810506 0.135513
H38   H     H_    0.951342 0.820030 0.820032 0.144507
H39   H     H_    0.928428 0.900625 0.866648 0.151911
H40   H     H_    0.124385 0.997548 0.847573 0.169835
H41   H     H_    0.052252 0.072013 0.834427 0.175709
H42   H     H_    0.016890 0.963376 0.753513 0.143376
H43   H     H_    0.118882 0.927063 0.768737 0.136897
H44   H     H_    0.152328 0.536250 0.792532 0.098857
H45   H     H_    0.320680 0.326999 0.784275 0.122648
C94   C     C_3   0.764933 0.322535 0.801637 -0.264684
C95   C     C_3   0.715358 0.315341 0.848101 -0.301399
C96   C     C_3   0.709674 0.419344 0.865756 -0.451735
H46   H     H_    0.795685 0.492209 0.868729 0.148158
H47   H     H_    0.652918 0.430598 0.842754 0.143567
H48   H     H_    0.675398 0.412544 0.899559 0.151107
H49   H     H_    0.628303 0.244382 0.845838 0.145349
H50   H     H_    0.768320 0.304742 0.872992 0.176471
H51   H     H_    0.854666 0.388530 0.804890 0.145156
H52   H     H_    0.717164 0.348170 0.780347 0.133908
H53   H     H_    0.765212 0.285545 0.715444 0.114982
H54   H     H_    0.992561 0.348804 0.784810 0.107042
C97   C     C_3   0.849528 0.990815 0.691935 -0.266233
C98   C     C_3   0.795528 0.869687 0.698443 -0.313710
C99   C     C_3   0.854745 0.812919 0.672528 -0.466744
H55   H     H_    0.852866 0.820276 0.636210 0.149608
H56   H     H_    0.944447 0.850102 0.685579 0.142862
H57   H     H_    0.810843 0.724557 0.676198 0.139028
H58   H     H_    0.800441 0.862695 0.734671 0.154632
H59   H     H_    0.704523 0.826440 0.686175 0.155341
H60   H     H_    0.844005 0.992952 0.655193 0.158030
H61   H     H_    0.940854 0.034010 0.703464 0.139224
H62   H     H_    0.671729 0.145224 0.787128 0.116647
H63   H     H_    0.880582 0.046645 0.777926 0.124969
C100  C     C_3   0.171809 0.731756 0.279304 -0.270252
C101  C     C_3   0.148960 0.741555 0.329348 -0.287536
C102  C     C_3   0.035763 0.739531 0.335846 -0.465131
H64   H     H_    0.035187 0.809160 0.322424 0.140704
H65   H     H_    0.965180 0.661216 0.318328 0.145821
H66   H     H_    0.021863 0.746385 0.372347 0.144565
H67   H     H_    0.144339 0.670880 0.343755 0.172953
H68   H     H_    0.218110 0.818971 0.347986 0.180509
H69   H     H_    0.154802 0.790789 0.263926 0.135834
H70   H     H_    0.109405 0.648505 0.262366 0.137657
H71   H     H_    0.295866 0.514053 0.283060 0.118061
C103  C     C_3   0.236040 0.436739 0.198477 -0.270693
C104  C     C_3   0.133922 0.336669 0.213260 -0.311984
C105  C     C_3   0.118094 0.229571 0.186955 -0.432376
H72   H     H_    0.103350 0.226979 0.150277 0.168906
H73   H     H_    0.194580 0.222106 0.193151 0.172063
H74   H     H_    0.044103 0.159187 0.198485 0.146298
H75   H     H_    0.145779 0.335100 0.249743 0.160136
H76   H     H_    0.055636 0.341903 0.207706 0.172697
H77   H     H_    0.227499 0.427957 0.161157 0.163117
H78   H     H_    0.315698 0.436988 0.208073 0.147112
H79   H     H_    0.517605 0.803804 0.282075 0.118691
C106  C     C_3   0.166610 0.717266 0.604082 -0.235272
C107  C     C_3   0.188613 0.833697 0.621698 -0.270112
C108  C     C_3   0.100362 0.856043 0.600681 -0.441218
H80   H     H_    0.107147 0.853194 0.563682 0.168009
H81   H     H_    0.013730 0.793779 0.607370 0.135216
H82   H     H_    0.114508 0.938682 0.615209 0.137621
H83   H     H_    0.184848 0.842860 0.658933 0.127818
H84   H     H_    0.274399 0.895758 0.614035 0.198168
H85   H     H_    0.142630 0.694129 0.567366 0.169805
H86   H     H_    0.089940 0.658133 0.619314 0.115226
H87   H     H_    0.162348 0.045940 0.078535 0.122425
C109  C     C_3   0.505458 0.656154 0.565516 -0.244890
C110  C     C_3   0.630460 0.739849 0.578530 -0.282590
C111  C     C_3   0.705701 0.736874 0.541003 -0.439467
H88   H     H_    0.697288 0.653745 0.533396 0.139881
H89   H     H_    0.681732 0.758811 0.510038 0.160668
H90   H     H_    0.795658 0.797081 0.551787 0.132487
H91   H     H_    0.641792 0.824071 0.586135 0.206248
H92   H     H_    0.657817 0.720310 0.609311 0.143843
H93   H     H_    0.493304 0.572076 0.565508 0.127542
H94   H     H_    0.481024 0.657498 0.530403 0.158028
H95   H     H_    0.479026 0.349821 0.108683 0.127095
H96   H     H_    0.490429 0.294350 0.318651 0.102424
H97   H     H_    0.918281 0.377962 0.108211 0.129498
C112  C     C_3   0.779281 0.986834 0.167428 -0.253536
C113  C     C_3   0.785077 0.896166 0.134652 -0.309672
C114  C     C_3   0.753015 0.794192 0.156683 -0.457312
H98   H     H_    0.809708 0.815099 0.187392 0.144682
H99   H     H_    0.663799 0.757995 0.165829 0.146679
H100  H     H_    0.761669 0.731988 0.132633 0.141584
H101  H     H_    0.725719 0.872349 0.104482 0.158500
H102  H     H_    0.872922 0.926678 0.123965 0.156966
H103  H     H_    0.835643 0.004605 0.197929 0.141033
H104  H     H_    0.691157 0.955059 0.177926 0.145045
H105  H     H_    0.510095 0.673586 0.821772 0.095603
C115  C     C_3   0.512645 0.680224 0.912295 -0.253503
C116  C     C_3   0.523761 0.778772 0.945125 -0.295083
C117  C     C_3   0.630427 0.828436 0.976968 -0.450082
H106  H     H_    0.627570 0.766532 0.997225 0.146534
H107  H     H_    0.707285 0.857803 0.957549 0.154586
H108  H     H_    0.636028 0.899258 0.000312 0.145907
H109  H     H_    0.527869 0.842700 0.925759 0.159991
H110  H     H_    0.448947 0.753204 0.965628 0.164206
H111  H     H_    0.510405 0.616202 0.930903 0.171157
H112  H     H_    0.590789 0.708333 0.893591 0.122951
H113  H     H_    0.486304 0.615548 0.650821 0.105652
C118  C     C_3   0.343041 0.998152 0.790675 -0.263474
C119  C     C_3   0.443867 0.978422 0.797443 -0.326718
C120  C     C_3   0.406102 0.868399 0.813369 -0.436823
H114  H     H_    0.371642 0.867574 0.847046 0.154502
H115  H     H_    0.339685 0.801569 0.788997 0.166866
H116  H     H_    0.479920 0.854299 0.815871 0.147045
H117  H     H_    0.484829 0.979679 0.765180 0.154472
H118  H     H_    0.506806 0.043843 0.823360 0.147323
H119  H     H_    0.303480 0.995400 0.823276 0.154980
H120  H     H_    0.279782 0.929401 0.765992 0.138927

loop_
_geom_bond_atom_site_label_1
_geom_bond_atom_site_label_2
_ccdc_geom_bond_type
C95   H49   S    
C103  H78   S    
C15   C18   S    
C40   H22   S    
C94   C95   S    
C8    H105  S    
C119  H117  S    
C87   O15   A    
C102  H66   S    
C41   C42   S    
C14   C18   S    
C35   C36   S    
C90   O13   A    
C57   C66   S    
C97   C98   S    
Cr3   O5    S    
C97   H61   S    
C56   O4    A    
C93   H37   S    
C99   H55   S    
C107  H83   S    
C48   H24   S    
C53   C54   A    
C91   H43   S    
C40   C46   S    
C18   C25   S    
C49   H79   S    
C115  H111  S    
C45   O3    A    
C105  H72   S    
C22   H5    S    
C5    C6    A    
C43   C88   S    
C28   C29   S    
C69   C70   A    
C90   O18   A    
C116  C117  S    
C33   C35   S    
C99   H56   S    
C100  H69   S    
C77   C83   A    
C28   H11   S    
C114  H98   S    
C46   H23   S    
C29   C33   S    
C104  H76   S    
C120  H114  S    
C98   C99   S    
C111  H90   S    
C112  C113  S    
C73   C74   A    
C23   C26   S    
C110  H91   S    
C102  H65   S    
C12   O21   A    
C77   H34   S    
C117  H107  S    
C35   H63   S    
C6    H36   S    
Cr6   O10   S    
C46   C47   S    
C116  H109  S    
C74   H32   S    
Cr1   O5    S    
C19   C20   S    
C84   O8    A    
C28   H10   S    
C8    C9    A    
C114  H99   S    
C120  H116  S    
Cr2   O21   S    
C101  H67   S    
C29   H12   S    
C42   C103  S    
C70   C71   A    
C92   H41   S    
C30   C86   S    
C75   C80   A    
C41   H18   S    
C79   C112  S    
C86   O6    A    
C106  H86   S    
C72   C73   A    
C103  H77   S    
Cr2   O2    S    
C96   H47   S    
C84   O7    A    
C78   C89   A    
C21   C22   S    
C16   C91   S    
C78   C109  S    
C94   H51   S    
Cr2   O5    S    
Cr5   O15   S    
C56   O24   A    
C2    C11   S    
C76   C83   A    
C109  C110  S    
C93   H38   S    
C60   C64   A    
C81   C82   T    
C47   C50   S    
Cr1   O12   S    
C60   H25   S    
C77   C79   A    
C12   O22   A    
C59   H27   S    
Cr6   O17   S    
C12   C67   S    
C58   H26   S    
C17   C24   T    
C29   H54   S    
C27   C31   S    
C51   C52   T    
C47   C48   S    
C20   C24   S    
C118  C119  S    
Cr5   O16   S    
C79   C80   A    
Cr3   O3    S    
C10   C11   T    
C3    H15   S    
C108  H80   S    
C36   C97   S    
C103  C104  S    
C80   C81   S    
C99   H57   S    
Cr1   O1    S    
C45   C52   S    
C25   C26   T    
C96   H46   S    
Cr6   O11   S    
C44   C49   S    
C33   C37   S    
C104  C105  S    
C32   H62   S    
C97   H60   S    
Cr2   O26   S    
C110  H92   S    
C2    C89   A    
C75   C76   A    
C27   H53   S    
C5    C9    A    
C110  C111  S    
C1    O12   A    
C108  H81   S    
C116  H110  S    
Cr4   O6    S    
C14   H8    S    
C91   C92   S    
C34   C69   S    
C7    C13   A    
C16   C20   S    
C114  H100  S    
Cr6   O19   S    
Cr2   O20   S    
C113  C114  S    
Cr5   O9    S    
C57   C58   A    
C112  H103  S    
C69   C74   A    
Cr5   O19   S    
C61   H87   S    
C92   H40   S    
C111  H89   S    
C120  H115  S    
C85   O9    A    
C63   H29   S    
C35   H14   S    
C115  H112  S    
C19   H9    S    
C44   C51   S    
C118  H120  S    
C106  C107  S    
C32   C94   S    
C27   H16   S    
C65   C66   T    
C55   C57   A    
C104  H75   S    
Cr4   O7    S    
C41   C44   S    
C98   H59   S    
C94   H52   S    
C58   C59   A    
Cr1   O24   S    
C15   H2    S    
C85   O10   A    
C3    C4    A    
C93   H39   S    
C95   C96   S    
C86   O11   A    
C14   H1    S    
C9    C10   S    
C53   C56   S    
C95   H50   S    
C111  H88   S    
C83   C90   S    
C54   H28   S    
C54   C55   A    
Cr3   O23   S    
C119  H118  S    
C87   O14   A    
C46   H17   S    
C53   C59   A    
C27   C32   S    
C18   C22   S    
C45   O2    A    
C14   C19   S    
C28   C31   S    
C16   H4    S    
C112  H104  S    
C15   H3    S    
C101  C102  S    
Cr3   O4    S    
C62   H95   S    
C4    C67   A    
C43   C50   T    
C107  H84   S    
C48   H21   S    
C100  H70   S    
C34   O25   A    
Cr4   O19   S    
Cr5   O8    S    
C113  H101  S    
C117  H108  S    
C31   C38   S    
C62   C68   A    
C7    C115  S    
C76   H97   S    
C17   C84   S    
Cr4   O13   S    
C32   C33   S    
C75   H30   S    
C117  H106  S    
Cr3   O22   S    
C2    C3    A    
C119  C120  S    
Cr1   O25   S    
C73   H31   S    
C100  C101  S    
C64   C65   S    
C6    C13   A    
C88   O17   A    
C61   C68   A    
C109  H94   S    
C107  C108  S    
C38   C39   T    
C22   H6    S    
C21   H45   S    
Cr4   O14   S    
C105  H74   S    
C48   C49   S    
Cr6   O18   S    
C118  H119  S    
C96   H48   S    
C88   O16   A    
C91   H42   S    
C23   O1    A    
C1    O20   A    
C42   C47   S    
C70   H33   S    
C41   H71   S    
C102  H64   S    
C92   C93   S    
C113  H102  S    
C109  H93   S    
C7    C8    A    
C67   C78   A    
C1    C39   S    
C19   C118  S    
C63   C64   A    
C21   H7    S    
C34   O26   A    
C42   H19   S    
C40   C44   S    
C49   H20   S    
C71   C72   A    
C20   C21   S    
C30   C37   T    
C71   H35   S    
C105  H73   S    
C4    C106  S    
C23   O23   A    
C13   C85   S    
C36   H13   S    
C68   C87   S    
C5    H44   S    
C31   C36   S    
C60   C61   A    
C89   H113  S    
C55   H96   S    
C62   C63   A    
C101  H68   S    
C98   H58   S    
C72   C82   S    
C15   C16   S    
C106  H85   S    
C115  C116  S    
C108  H82   S    
C40   C100  S    
