data_mof_unit_54077.cif
_audit_creation_date              2012-12-10T18:57:43-0500
_audit_creation_method            fapswitch 2.2
_symmetry_space_group_name_H-M    P1
_symmetry_Int_Tables_number       1
_space_group_crystal_system       triclinic
_cell_length_a                    10.929609
_cell_length_b                    10.843114
_cell_length_c                    9.563718
_cell_angle_alpha                 89.894115
_cell_angle_beta                  89.802101
_cell_angle_gamma                 90.308876
_cell_volume                      1133.38054436

loop_
_atom_site_label
_atom_site_type_symbol
_atom_type_description
_atom_site_fract_x
_atom_site_fract_y
_atom_site_fract_z
_atom_type_partial_charge
C1    C     C_R   0.498321 0.262560 0.499876 0.828683
C2    C     C_R   0.487384 0.129775 0.496854 -0.156627
C3    C     C_R   0.505006 0.066452 0.370513 -0.315267
C4    C     C_R   0.501490 0.937353 0.367066 0.449964
C5    C     C_R   0.486713 0.871353 0.494168 -0.196478
C6    C     C_R   0.451545 0.936453 0.612991 0.058497
C7    C     C_3   0.492546 0.927975 0.760644 -0.457483
C8    C     C_3   0.493146 0.068167 0.762878 -0.448422
C9    C     C_R   0.557302 0.592256 0.073055 0.287797
C10   C     C_R   0.433549 0.415953 0.074824 -0.095072
C11   C     C_R   0.433558 0.415931 0.926049 -0.077704
C12   C     C_R   0.265378 0.498376 0.500252 0.838105
C13   C     C_R   0.557186 0.592360 0.925892 0.247482
C14   C     C_3   0.689597 0.625760 0.919470 -0.522941
C15   C     C_3   0.689647 0.625636 0.078095 -0.480401
C16   C     C_R   0.498237 0.737819 0.499139 0.828727
C17   C     C_R   0.734634 0.501568 0.499939 0.851980
C18   C     C_2   0.933477 0.492022 0.385856 -0.154885
C19   C     C_2   0.866681 0.508694 0.501895 -0.317085
C20   C     C_2   0.067344 0.498983 0.385466 -0.160460
C21   C     C_2   0.133330 0.491679 0.502936 -0.315474
C22   C     C_R   0.451106 0.063165 0.614583 0.118566
Cu1   Cu    Cu3+1 0.499990 0.499980 0.640670 0.935837
Cu2   Cu    Cu3+1 0.500010 0.500020 0.359330 0.942557
H1    H     H_    0.889348 0.474106 0.286480 0.156023
H2    H     H_    0.586272 0.108801 0.773681 0.204778
H3    H     H_    0.381603 0.346375 0.130803 0.138877
H4    H     H_    0.381548 0.346426 0.870776 0.134888
H5    H     H_    0.747027 0.551474 0.874186 0.220085
H6    H     H_    0.705160 0.718760 0.873703 0.189564
H7    H     H_    0.746729 0.551051 0.122610 0.203736
H8    H     H_    0.705259 0.718523 0.123775 0.228261
H9    H     H_    0.907576 0.530579 0.601782 0.142691
H10   H     H_    0.112278 0.507785 0.284387 0.166023
H11   H     H_    0.091756 0.477205 0.604555 0.146345
H12   H     H_    0.528923 0.116189 0.275884 0.173073
H13   H     H_    0.419409 0.886252 0.825950 0.191584
H14   H     H_    0.584995 0.887007 0.771472 0.197607
H15   H     H_    0.422577 0.107189 0.833854 0.180853
N1    N     N_R   0.500780 0.500930 0.147930 -0.196783
N2    N     N_R   0.500780 0.500890 0.852020 -0.183428
O1    O     O_R   0.500000 0.319640 0.618810 -0.584268
O2    O     O_R   0.500010 0.319680 0.381230 -0.591480
O3    O     O_R   0.321940 0.499980 0.618760 -0.586279
O4    O     O_R   0.321950 0.500020 0.381180 -0.593533
O5    O     O_R   0.499990 0.680320 0.618770 -0.586365
O6    O     O_R   0.500000 0.680360 0.381190 -0.546027
O7    O     O_R   0.678050 0.499980 0.618820 -0.587680
O8    O     O_R   0.678060 0.500020 0.381240 -0.578366
O9    O     O_3   0.530792 0.876064 0.244683 -0.605483
C23   C     C_3   0.438865 0.893191 0.142750 0.048558
H16   H     H_    0.475812 0.854686 0.044510 0.162835
H17   H     H_    0.419949 0.992362 0.122492 0.128550
C24   C     C_3   0.320120 0.822815 0.178575 -0.353302
H18   H     H_    0.340255 0.723694 0.195250 0.249713
H19   H     H_    0.279220 0.860418 0.275989 0.204651
C25   C     C_3   0.226615 0.833358 0.061189 -0.937092
H20   H     H_    0.206998 0.931750 0.038241 0.257205
H21   H     H_    0.140156 0.786904 0.093302 0.261686
H22   H     H_    0.261320 0.787715 0.965191 0.252606

loop_
_geom_bond_atom_site_label_1
_geom_bond_atom_site_label_2
_ccdc_geom_bond_type
C10   H3    S    
C2    C22   A    
C8    C22   S    
Cu1   Cu2   S    
C15   H7    S    
C6    C7    S    
C21   H11   S    
C8    H15   S    
C8    H2    S    
C23   H17   S    
Cu1   N2    S    
C17   O7    A    
C23   C24   S    
C20   H10   S    
C13   N2    A    
O9    C23   S    
C7    H13   S    
C15   H8    S    
C12   O3    A    
Cu1   O5    S    
C13   C14   S    
Cu1   O1    S    
C25   H20   S    
C18   H1    S    
C3    H12   S    
C14   H6    S    
Cu2   O4    S    
C11   H4    S    
C16   O6    A    
C17   C19   S    
C7    H14   S    
C11   N2    A    
C18   C20   S    
C9    C15   S    
C5    C6    A    
C24   H19   S    
C25   H21   S    
C10   C11   A    
C14   H5    S    
C16   O5    A    
C23   H16   S    
C6    C22   A    
C1    O1    A    
C7    C8    S    
C20   C21   D    
C10   N1    A    
C1    C2    S    
C19   H9    S    
C17   O8    A    
Cu2   O8    S    
C12   O4    A    
Cu2   O2    S    
C9    C13   A    
C14   C15   S    
C18   C19   D    
C25   H22   S    
C2    C3    A    
Cu1   O7    S    
Cu2   N1    S    
C24   H18   S    
Cu2   O6    S    
C12   C21   S    
C1    O2    A    
C9    N1    A    
Cu1   O3    S    
C3    C4    A    
C4    O9    S    
C4    C5    A    
C5    C16   S    
C24   C25   S    
