data_mof_unit_5982.cif
_audit_creation_date              2012-10-26T20:12:44-0400
_audit_creation_method            fapswitch 2.2
_symmetry_space_group_name_H-M    P1
_symmetry_Int_Tables_number       1
_space_group_crystal_system       triclinic
_cell_length_a                    15.125998
_cell_length_b                    13.941023
_cell_length_c                    10.784044
_cell_angle_alpha                 89.946718
_cell_angle_beta                  90.84287
_cell_angle_gamma                 89.945881
_cell_volume                      2273.80361128

loop_
_atom_site_label
_atom_site_type_symbol
_atom_type_description
_atom_site_fract_x
_atom_site_fract_y
_atom_site_fract_z
_atom_type_partial_charge
C1    C     C_R   0.330006 0.500063 0.499536 0.520539
C2    C     C_R   0.439989 0.790621 0.428469 0.229556
C3    C     C_R   0.449987 0.209503 0.414680 0.233012
C4    C     C_R   0.560010 0.790387 0.571575 0.231434
C5    C     C_R   0.500003 0.054708 0.500033 -0.006210
C6    C     C_R   0.500004 0.945194 0.500036 -0.005500
C7    C     C_R   0.500053 0.500048 0.262982 0.525795
C8    C     C_R   0.499944 0.499949 0.737028 0.524982
C9    C     C_R   0.658150 0.544906 0.132161 -0.096253
C10   C     C_R   0.341788 0.455290 0.867910 -0.097102
C11   C     C_R   0.658224 0.544056 0.873910 -0.094469
C12   C     C_R   0.669986 0.499989 0.500104 0.520727
C13   C     C_R   0.341815 0.455803 0.126162 -0.093335
C14   C     C_R   0.735392 0.566251 0.068967 -0.122786
C15   C     C_R   0.264561 0.433909 0.931146 -0.122017
C16   C     C_R   0.735432 0.565800 0.940084 -0.125107
C17   C     C_R   0.264584 0.434136 0.060029 -0.125764
C18   C     C_R   0.578758 0.522684 0.936209 0.007201
C19   C     C_R   0.421257 0.477246 0.063835 0.007124
C20   C     C_R   0.578745 0.522984 0.066829 0.005034
C21   C     C_R   0.421242 0.477039 0.933214 0.003603
C22   C     C_R   0.499987 0.499818 0.870853 -0.016686
C23   C     C_R   0.048535 0.500543 0.497955 0.033613
C24   C     C_R   0.500015 0.500156 0.129175 -0.016445
C25   C     C_R   0.095515 0.582301 0.536388 -0.124434
C26   C     C_R   0.905466 0.418725 0.537741 -0.124067
C27   C     C_R   0.904052 0.581974 0.459518 -0.126702
C28   C     C_R   0.094852 0.418760 0.459608 -0.126378
C29   C     C_R   0.187405 0.582359 0.536099 -0.132709
C30   C     C_R   0.813589 0.418388 0.537613 -0.129498
C31   C     C_R   0.812178 0.582025 0.460854 -0.142106
C32   C     C_R   0.186736 0.418442 0.460765 -0.139061
C33   C     C_R   0.233497 0.500269 0.498833 0.009487
C34   C     C_R   0.951403 0.500414 0.498327 0.033785
C35   C     C_R   0.766472 0.500120 0.499573 0.009773
C36   C     C_R   0.549131 0.108135 0.588211 -0.146079
C37   C     C_R   0.438001 0.891785 0.429513 -0.146419
C38   C     C_R   0.450868 0.108340 0.411846 -0.145385
C39   C     C_R   0.561999 0.891549 0.570561 -0.145626
C40   C     C_R   0.549993 0.209308 0.585351 0.231443
Cu1   Cu    Cu3+1 0.500000 0.596430 0.500000 0.992813
Cu2   Cu    Cu3+1 0.500000 0.403570 0.500000 0.994670
H1    H     H_    0.204466 0.417868 0.109057 0.111740
H2    H     H_    0.940559 0.355531 0.570086 0.101925
H3    H     H_    0.937994 0.645271 0.426763 0.102143
H4    H     H_    0.060054 0.355424 0.427499 0.102337
H5    H     H_    0.222335 0.646081 0.566692 0.126680
H6    H     H_    0.779526 0.354706 0.568788 0.127445
H7    H     H_    0.776943 0.645588 0.429962 0.123220
H8    H     H_    0.221085 0.354672 0.430436 0.124436
H9    H     H_    0.587103 0.073386 0.660824 0.087861
H10   H     H_    0.386911 0.926530 0.374966 0.086815
H11   H     H_    0.412898 0.073765 0.339239 0.088084
H12   H     H_    0.795578 0.581997 0.891097 0.113733
H13   H     H_    0.613076 0.926108 0.625140 0.087031
H14   H     H_    0.669314 0.237671 0.662491 0.192139
H15   H     H_    0.584101 0.241548 0.761876 0.210576
H16   H     H_    0.314660 0.758900 0.377022 0.200153
H17   H     H_    0.387606 0.761143 0.259763 0.207577
H18   H     H_    0.330628 0.238136 0.337495 0.190741
H19   H     H_    0.415835 0.242097 0.238132 0.212671
H20   H     H_    0.685342 0.758319 0.623173 0.199212
H21   H     H_    0.612324 0.760456 0.740356 0.208668
H22   H     H_    0.204406 0.417478 0.879859 0.114694
H23   H     H_    0.795502 0.582819 0.120294 0.112556
H24   H     H_    0.661595 0.545401 0.232362 0.121861
H25   H     H_    0.338290 0.454979 0.767704 0.124259
H26   H     H_    0.661759 0.543753 0.773820 0.140008
H27   H     H_    0.338312 0.455988 0.226253 0.138705
H28   H     H_    0.061269 0.645706 0.568245 0.102110
N1    N     N_R   0.500000 0.258690 0.500000 -0.158657
N2    N     N_R   0.500000 0.741310 0.500000 -0.159643
N3    N     N_3   0.603973 0.260491 0.672687 -0.557242
N4    N     N_3   0.378602 0.739301 0.351487 -0.553454
N5    N     N_3   0.395961 0.260869 0.327350 -0.564765
N6    N     N_3   0.621376 0.738828 0.648601 -0.561743
O1    O     O_R   0.371460 0.581430 0.500010 -0.480250
O2    O     O_R   0.628540 0.418570 0.499990 -0.483700
O3    O     O_R   0.628540 0.581430 0.499990 -0.490057
O4    O     O_R   0.371460 0.418570 0.500010 -0.494010
O5    O     O_R   0.499990 0.581440 0.319660 -0.482040
O6    O     O_R   0.500010 0.418560 0.680340 -0.477762
O7    O     O_R   0.500010 0.581440 0.680340 -0.482530
O8    O     O_R   0.499990 0.418560 0.319660 -0.477982

loop_
_geom_bond_atom_site_label_1
_geom_bond_atom_site_label_2
_ccdc_geom_bond_type
C12   O3    A    
C11   C18   A    
Cu2   O4    S    
C40   N1    A    
C8    O7    A    
C1    O1    A    
Cu1   Cu2   S    
Cu2   O6    S    
C26   H2    S    
C10   H25   S    
H19   N5    S    
C28   H4    S    
C30   C35   A    
C29   H5    S    
C8    O6    A    
C30   H6    S    
C19   C21   A    
C10   C15   A    
Cu1   O1    S    
C5    C6    S    
H21   N6    S    
C7    C24   S    
Cu1   O7    S    
C5    C36   A    
C29   C33   A    
C40   N3    S    
H15   N3    S    
C9    H24   S    
C26   C34   A    
C39   H13   S    
C20   C24   A    
C3    C38   A    
C12   O2    A    
C8    C22   S    
C15   H22   S    
C3    N5    S    
C18   C20   A    
C2    N4    S    
C27   H3    S    
C7    O8    A    
C27   C34   A    
C21   C22   A    
H20   N6    S    
C31   H7    S    
C2    N2    A    
C10   C21   A    
C25   C29   A    
C13   C19   A    
C27   C31   A    
C36   C40   A    
Cu2   O8    S    
C37   H10   S    
C3    N1    A    
C9    C14   A    
C17   H1    S    
C11   C16   A    
C9    C20   A    
C4    C39   A    
C28   C32   A    
C23   C34   S    
Cu1   O5    S    
C6    C37   A    
C23   C28   A    
C12   C35   S    
H17   N4    S    
C32   H8    S    
C36   H9    S    
Cu1   N2    S    
C7    O5    A    
Cu2   O2    S    
C31   C35   A    
C4    N2    A    
C11   H26   S    
H16   N4    S    
C15   C17   A    
H14   N3    S    
C18   C22   A    
Cu1   O3    S    
C26   C30   A    
H18   N5    S    
C13   C17   A    
C32   C33   A    
C19   C24   A    
C2    C37   A    
C38   H11   S    
C13   H27   S    
Cu2   N1    S    
C14   H23   S    
C14   C16   A    
C23   C25   A    
C16   H12   S    
C4    N6    S    
C1    C33   S    
C1    O4    A    
C6    C39   A    
C25   H28   S    
C5    C38   A    
