data_mof_unit_55598.cif
_audit_creation_date              2012-10-26T18:59:54-0400
_audit_creation_method            fapswitch 2.2
_symmetry_space_group_name_H-M    P1
_symmetry_Int_Tables_number       1
_space_group_crystal_system       triclinic
_cell_length_a                    9.532289
_cell_length_b                    10.816238
_cell_length_c                    17.07682
_cell_angle_alpha                 89.434291
_cell_angle_beta                  93.766208
_cell_angle_gamma                 89.992717
_cell_volume                      1756.79146021

loop_
_atom_site_label
_atom_site_type_symbol
_atom_type_description
_atom_site_fract_x
_atom_site_fract_y
_atom_site_fract_z
_atom_type_partial_charge
C1    C     C_R   0.499765 0.262282 0.498308 0.552057
C2    C     C_R   0.498275 0.129372 0.489756 0.011088
C3    C     C_R   0.370203 0.064724 0.481645 -0.162315
C4    C     C_R   0.517220 0.498784 0.650998 0.548690
C5    C     C_R   0.370169 0.935844 0.481535 -0.163185
C6    C     C_R   0.498218 0.870893 0.489602 0.005331
C7    C     C_R   0.623644 0.936560 0.485781 0.020563
C8    C     C_3   0.756966 0.928973 0.536697 -0.268077
C9    C     C_3   0.757004 0.069423 0.536804 -0.271927
C10   C     C_R   0.069567 0.595089 0.465596 0.156028
C11   C     C_R   0.079269 0.412990 0.540687 -0.012051
C12   C     C_R   0.656394 0.498182 0.780091 -0.159072
C13   C     C_R   0.930285 0.412988 0.540697 -0.006755
C14   C     C_R   0.922154 0.595148 0.465677 0.153950
C15   C     C_3   0.906035 0.634907 0.381741 -0.272777
C16   C     C_R   0.499708 0.737746 0.498197 0.548346
C17   C     C_3   0.065265 0.634329 0.381531 -0.280693
C18   C     C_R   0.482840 0.498380 0.349258 0.553913
C19   C     C_R   0.525703 0.499048 0.737095 0.006353
C20   C     C_R   0.401725 0.500441 0.777044 -0.159630
C21   C     C_R   0.407952 0.500391 0.858500 -0.100977
C22   C     C_R   0.539165 0.498780 0.901823 0.221639
C23   C     C_R   0.557241 0.414216 0.140764 0.158305
C24   C     C_R   0.662641 0.498134 0.861897 -0.111370
C25   C     C_1   0.672329 0.341069 0.266700 0.194533
C26   C     C_3   0.587726 0.219717 0.075807 -0.283844
C27   C     C_R   0.568796 0.417919 0.223453 -0.043062
C28   C     C_R   0.451573 0.485477 0.099042 0.233954
C29   C     C_R   0.473478 0.490590 0.263445 -0.027961
C30   C     C_R   0.365740 0.555098 0.221065 -0.179538
C31   C     C_R   0.354716 0.551895 0.139700 -0.144115
C32   C     C_R   0.623679 0.063764 0.485856 0.042937
Cu1   Cu    Cu3+1 0.640670 0.499980 0.500000 0.953654
Cu2   Cu    Cu3+1 0.359330 0.500020 0.500000 0.936809
H1    H     H_    0.270309 0.887792 0.479311 0.132296
H2    H     H_    0.105337 0.561997 0.342983 0.158023
H3    H     H_    0.110847 0.727936 0.373940 0.118164
H4    H     H_    0.764083 0.496878 0.894434 0.120939
H5    H     H_    0.753618 0.497240 0.750655 0.127519
H6    H     H_    0.291429 0.610314 0.250977 0.125800
H7    H     H_    0.309955 0.501339 0.887142 0.131736
H8    H     H_    0.272070 0.604123 0.107825 0.125271
H9    H     H_    0.299400 0.501416 0.745454 0.130155
H10   H     H_    0.270362 0.112876 0.479520 0.135685
H11   H     H_    0.749329 0.329182 0.124307 0.252115
H12   H     H_    0.741699 0.887101 0.595271 0.141684
H13   H     H_    0.567143 0.162842 0.128388 0.139118
H14   H     H_    0.662124 0.169164 0.040287 0.142049
H15   H     H_    0.487994 0.233736 0.039372 0.172821
H16   H     H_    0.844610 0.889019 0.505268 0.135759
H17   H     H_    0.741775 0.109271 0.595440 0.128234
H18   H     H_    0.844700 0.110371 0.505442 0.143761
H19   H     H_    0.138889 0.341251 0.572410 0.111655
H20   H     H_    0.878157 0.341349 0.572492 0.107954
H21   H     H_    0.855605 0.563451 0.342973 0.169716
H22   H     H_    0.859595 0.728954 0.374667 0.125511
N1    N     N_2   0.551696 0.496400 0.985045 -0.199238
N2    N     N_2   0.437141 0.490319 0.016121 -0.258442
N3    N     N_R   0.147870 0.500930 0.499500 -0.228600
N4    N     N_R   0.851960 0.500890 0.499500 -0.225342
N5    N     N_1   0.754886 0.279679 0.301272 -0.304651
N6    N     N_2   0.648233 0.337286 0.099358 -0.486387
O1    O     O_R   0.618810 0.319640 0.500000 -0.494717
O2    O     O_R   0.381230 0.319680 0.499990 -0.513916
O3    O     O_R   0.631790 0.498830 0.613930 -0.509250
O4    O     O_R   0.394210 0.498870 0.613920 -0.505490
O5    O     O_R   0.618770 0.680320 0.500010 -0.500157
O6    O     O_R   0.381190 0.680360 0.500000 -0.506369
O7    O     O_R   0.605790 0.501130 0.386080 -0.491117
O8    O     O_R   0.368210 0.501170 0.386070 -0.503094

loop_
_geom_bond_atom_site_label_1
_geom_bond_atom_site_label_2
_ccdc_geom_bond_type
C18   O8    A    
C24   H4    S    
C4    C19   S    
C6    C7    A    
C16   O6    A    
C31   H8    S    
C23   C27   A    
C27   C29   A    
C14   N4    A    
C21   H7    S    
C12   C24   A    
C19   C20   A    
C9    H17   S    
C26   H14   S    
Cu1   O1    S    
C15   H22   S    
Cu2   O4    S    
C22   N1    S    
Cu2   O2    S    
C2    C3    A    
C26   N6    S    
Cu1   O3    S    
C7    C8    S    
C16   O5    A    
C17   H3    S    
C21   C22   A    
C18   C29   S    
C4    O4    A    
C11   C13   A    
N1    N2    D    
C29   C30   A    
C9    H18   S    
C26   H13   S    
C18   O7    A    
C11   N3    A    
C5    C6    A    
C1    O1    A    
C12   C19   A    
Cu1   O7    S    
C17   H2    S    
C13   H20   S    
Cu1   Cu2   S    
Cu1   N4    S    
C28   N2    S    
C28   C31   A    
C30   C31   A    
C11   H19   S    
C8    H12   S    
C3    H10   S    
C26   H15   S    
C25   C27   S    
C23   C28   A    
C10   C17   S    
C6    C16   S    
C1    O2    A    
C8    H16   S    
H11   N6    S    
C30   H6    S    
C20   H9    S    
C20   C21   A    
Cu1   O5    S    
C2    C32   A    
C1    C2    S    
C10   C14   A    
C22   C24   A    
Cu2   O6    S    
C15   C17   S    
Cu2   O8    S    
C4    O3    A    
C25   N5    T    
C7    C32   A    
C23   N6    S    
C9    C32   S    
C14   C15   S    
Cu2   N3    S    
C10   N3    A    
C5    H1    S    
C12   H5    S    
C13   N4    A    
C8    C9    S    
C3    C5    A    
C15   H21   S    
