data_mof_unit_26188.cif
_audit_creation_date              2012-12-10T17:18:55-0500
_audit_creation_method            fapswitch 2.2
_symmetry_space_group_name_H-M    P1
_symmetry_Int_Tables_number       1
_space_group_crystal_system       triclinic
_cell_length_a                    10.293204
_cell_length_b                    10.779182
_cell_length_c                    13.588945
_cell_angle_alpha                 93.540547
_cell_angle_beta                  100.226586
_cell_angle_gamma                 96.701285
_cell_volume                      1468.37958231

loop_
_atom_site_label
_atom_site_type_symbol
_atom_type_description
_atom_site_fract_x
_atom_site_fract_y
_atom_site_fract_z
_atom_type_partial_charge
C1    C     C_R   0.054711 0.732684 0.496839 0.926205
C2    C     C_2   0.025583 0.070527 0.531732 -0.151050
C3    C     C_2   0.430461 0.524908 0.494116 0.206895
C4    C     C_2   0.567471 0.489459 0.488281 0.239872
C5    C     C_R   0.095483 0.520294 0.685777 0.875097
C6    C     C_R   0.906703 0.485755 0.314063 0.910148
C7    C     C_R   0.155720 0.553557 0.791934 -0.209364
C8    C     C_R   0.860011 0.482777 0.205703 -0.191418
C9    C     C_R   0.160920 0.636927 0.962507 -0.328333
C10   C     C_R   0.868901 0.420216 0.033532 -0.244999
C11   C     C_R   0.087946 0.597691 0.865707 0.470660
C12   C     C_R   0.947977 0.268007 0.509255 0.946665
C13   C     C_R   0.927252 0.429291 0.135438 0.448771
C14   C     C_R   0.292686 0.550575 0.817053 -0.260249
C15   C     C_R   0.742584 0.533251 0.173244 -0.256215
C16   C     C_R   0.360216 0.567397 0.915381 0.095287
C17   C     C_R   0.687301 0.531498 0.071733 0.087343
C18   C     C_R   0.297203 0.623813 0.986921 0.045713
C19   C     C_R   0.747870 0.466461 0.002280 0.042455
C20   C     C_R   0.490468 0.534534 0.942589 -0.120314
C21   C     C_R   0.563647 0.577087 0.039912 -0.074968
C22   C     C_3   0.147943 0.422053 0.134218 0.134959
C23   C     C_R   0.508932 0.659113 0.103778 0.487080
C24   C     C_3   0.267431 0.358346 0.176262 -0.836212
C25   C     C_3   0.926720 0.724616 0.829924 0.118597
C26   C     C_3   0.779843 0.733056 0.828315 -0.808752
C27   C     C_3   0.539939 0.757756 0.266321 0.055312
C28   C     C_3   0.652036 0.803828 0.354521 -0.796667
C29   C     C_3   0.413155 0.275049 0.814675 0.102701
C30   C     C_3   0.324134 0.208494 0.720333 -0.817802
C31   C     C_3   0.570805 0.376738 0.417126 -0.857810
C32   C     C_3   0.416996 0.657922 0.527922 -0.832535
C33   C     C_R   0.547808 0.454749 0.878287 0.428492
C34   C     C_R   0.372883 0.673629 0.078939 -0.348103
C35   C     C_R   0.679373 0.433603 0.905197 -0.223408
C36   C     C_2   0.090005 0.866824 0.504660 -0.377897
C37   C     C_2   0.922865 0.136693 0.524341 -0.376755
C38   C     C_2   0.004231 0.937799 0.535095 -0.160741
H1    H     H_    0.326811 0.730162 0.127954 0.135466
H2    H     H_    0.182223 0.907356 0.484103 0.147138
H3    H     H_    0.671322 0.621366 0.593934 0.147247
H4    H     H_    0.331676 0.355034 0.439766 0.156680
H5    H     H_    0.169822 0.523390 0.161095 0.138619
H6    H     H_    0.134621 0.410371 0.051054 0.143698
H7    H     H_    0.250841 0.257861 0.147841 0.253417
H8    H     H_    0.358173 0.404333 0.153023 0.199797
H9    H     H_    0.282411 0.365478 0.259242 0.255429
H10   H     H_    0.951033 0.751009 0.756730 0.144138
H11   H     H_    0.985001 0.793557 0.890952 0.126763
H12   H     H_    0.721944 0.377425 0.853198 0.180223
H13   H     H_    0.755920 0.717410 0.903478 0.261653
H14   H     H_    0.756472 0.827420 0.808505 0.197166
H15   H     H_    0.717330 0.661185 0.772284 0.256557
H16   H     H_    0.484189 0.670087 0.285304 0.134981
H17   H     H_    0.473676 0.832137 0.256032 0.154817
H18   H     H_    0.711595 0.889739 0.337303 0.264021
H19   H     H_    0.610127 0.826193 0.422290 0.192752
H20   H     H_    0.718070 0.730434 0.370326 0.280058
H21   H     H_    0.349729 0.289942 0.871798 0.142179
H22   H     H_    0.488631 0.213451 0.843306 0.140058
H23   H     H_    0.688300 0.563635 0.229001 0.218952
H24   H     H_    0.383920 0.192506 0.661343 0.250414
H25   H     H_    0.276182 0.116651 0.737476 0.202521
H26   H     H_    0.245312 0.266289 0.691843 0.269548
H27   H     H_    0.526080 0.290546 0.445466 0.199217
H28   H     H_    0.514866 0.389538 0.341593 0.201491
H29   H     H_    0.668985 0.357640 0.407138 0.298064
H30   H     H_    0.512062 0.719795 0.551602 0.175198
H31   H     H_    0.364665 0.701821 0.463324 0.241790
H32   H     H_    0.363852 0.659401 0.592043 0.262254
H33   H     H_    0.349178 0.541671 0.758199 0.239552
H34   H     H_    0.110706 0.675666 0.018669 0.153303
H35   H     H_    0.912428 0.368082 0.979760 0.151813
H36   H     H_    0.125759 0.112567 0.527978 0.192136
H37   H     H_    0.911777 0.897844 0.555794 0.186768
H38   H     H_    0.822860 0.093974 0.527705 0.148766
N1    N     N_2   0.322180 0.446120 0.460900 -0.196372
N2    N     N_2   0.677820 0.553880 0.539100 -0.190303
O1    O     O_R   0.935190 0.693030 0.507870 -0.622247
O2    O     O_3   0.951927 0.600445 0.844923 -0.601169
O3    O     O_3   0.595081 0.737478 0.179331 -0.609239
O4    O     O_3   0.476008 0.389958 0.790851 -0.624207
O5    O     O_R   0.064810 0.306970 0.492130 -0.606859
O6    O     O_R   0.142080 0.658430 0.482770 -0.622515
O7    O     O_R   0.857920 0.341570 0.517230 -0.615927
O8    O     O_R   0.969700 0.527180 0.651960 -0.564284
O9    O     O_R   0.030300 0.472820 0.348040 -0.553858
O10   O     O_R   0.176600 0.492580 0.626860 -0.618167
O11   O     O_R   0.823400 0.507420 0.373140 -0.640920
O12   O     O_3   0.034640 0.366003 0.167700 -0.598166
Zn1   Zn    Zn3+2 0.861850 0.523100 0.516760 0.931375
Zn2   Zn    Zn3+2 0.138150 0.476900 0.483240 0.939553

loop_
_geom_bond_atom_site_label_1
_geom_bond_atom_site_label_2
_ccdc_geom_bond_type
C31   H28   S    
N1    Zn2   S    
C8    C13   A    
C30   H26   S    
C13   O12   S    
C25   O2    S    
C14   H33   S    
C9    H34   S    
C28   H18   S    
C27   H16   S    
C28   H19   S    
C1    O6    A    
C31   H29   S    
O5    Zn2   S    
C12   O7    A    
C24   H7    S    
O8    Zn1   S    
C10   H35   S    
C27   H17   S    
C31   H27   S    
C12   C37   S    
C17   C19   A    
C5    O10   A    
C7    C14   A    
C22   H6    S    
O10   Zn2   S    
O11   Zn1   S    
C33   O4    S    
O1    Zn1   S    
C2    H36   S    
C32   H30   S    
O9    Zn2   S    
C15   H23   S    
C38   H37   S    
C21   C23   A    
O7    Zn1   S    
C34   H1    S    
C29   H21   S    
C27   O3    S    
H3    N2    S    
C5    C7    S    
C6    C8    S    
C25   C26   S    
C17   C21   A    
C6    O9    A    
C12   O5    A    
C7    C11   A    
C4    N2    D    
C29   C30   S    
C26   H14   S    
C18   C34   A    
C2    C38   S    
C22   H5    S    
C29   H22   S    
C36   H2    S    
C10   C19   A    
C16   C20   A    
C23   C34   A    
C35   H12   S    
C22   O12   S    
C9    C11   A    
C25   H10   S    
C5    O8    A    
C37   H38   S    
C8    C15   A    
C30   H24   S    
C1    O1    A    
C14   C16   A    
C20   C33   A    
C3    C4    S    
C3    N1    D    
C26   H15   S    
C15   C17   A    
C23   O3    S    
C24   H9    S    
C10   C13   A    
C32   H32   S    
C32   H31   S    
C28   H20   S    
N2    Zn1   S    
C6    O11   A    
C24   H8    S    
C36   C38   D    
C29   O4    S    
C19   C35   A    
C26   H13   S    
C2    C37   D    
C33   C35   A    
C22   C24   S    
C3    C32   S    
C25   H11   S    
C4    C31   S    
C11   O2    S    
C9    C18   A    
C20   C21   A    
H4    N1    S    
C16   C18   A    
C27   C28   S    
O6    Zn2   S    
C30   H25   S    
C1    C36   S    
