data_mof_unit_6947.cif
_audit_creation_date              2012-12-10T18:57:49-0500
_audit_creation_method            fapswitch 2.2
_symmetry_space_group_name_H-M    P1
_symmetry_Int_Tables_number       1
_space_group_crystal_system       triclinic
_cell_length_a                    10.642549
_cell_length_b                    9.873761
_cell_length_c                    8.917416
_cell_angle_alpha                 90.050927
_cell_angle_beta                  89.928104
_cell_angle_gamma                 90.145829
_cell_volume                      937.055636255

loop_
_atom_site_label
_atom_site_type_symbol
_atom_type_description
_atom_site_fract_x
_atom_site_fract_y
_atom_site_fract_z
_atom_type_partial_charge
C1    C     C_R   0.260603 0.499792 0.500356 0.916956
C2    C     C_R   0.064776 0.530444 0.635775 0.151788
C3    C     C_R   0.871990 0.500816 0.498837 -0.123242
C4    C     C_R   0.128009 0.499184 0.501163 -0.123242
C5    C     C_R   0.580576 0.072118 0.589783 -0.060136
C6    C     C_R   0.419424 0.927882 0.410217 -0.060136
C7    C     C_R   0.419422 0.071551 0.410215 -0.062074
C8    C     C_R   0.580578 0.928449 0.589785 -0.062074
C9    C     C_3   0.142812 0.435930 0.225612 -0.889913
C10   C     C_3   0.857188 0.564070 0.774388 -0.889914
C11   C     C_3   0.864518 0.440904 0.219405 -0.872520
C12   C     C_R   0.739397 0.500208 0.499644 0.916956
C13   C     C_3   0.135482 0.559096 0.780595 -0.872520
C14   C     C_R   0.499165 0.499968 0.218686 0.911421
C15   C     C_R   0.500835 0.500032 0.781314 0.911422
C16   C     C_1   0.499684 0.499950 0.065373 -0.193057
C17   C     C_1   0.500316 0.500050 0.934627 -0.193057
C18   C     C_R   0.066261 0.468064 0.365825 0.139805
C19   C     C_R   0.933739 0.531936 0.634175 0.139805
C20   C     C_R   0.935224 0.469556 0.364225 0.151788
H1    H     H_    0.645089 0.126565 0.661700 0.132298
H2    H     H_    0.913715 0.587186 0.874966 0.243031
H3    H     H_    0.761285 0.448386 0.229095 0.229916
H4    H     H_    0.892834 0.515664 0.132914 0.234994
H5    H     H_    0.885683 0.336750 0.179905 0.245632
H6    H     H_    0.238714 0.551614 0.770905 0.229916
H7    H     H_    0.114317 0.663250 0.820095 0.245633
H8    H     H_    0.107166 0.484336 0.867086 0.234994
H9    H     H_    0.354910 0.873434 0.338300 0.132298
H10   H     H_    0.354908 0.125542 0.338307 0.127752
H11   H     H_    0.645092 0.874457 0.661693 0.127752
H12   H     H_    0.202504 0.345817 0.245926 0.244224
H13   H     H_    0.086285 0.412814 0.125034 0.243031
H14   H     H_    0.203957 0.523594 0.197338 0.227240
H15   H     H_    0.797496 0.654183 0.754074 0.244224
H16   H     H_    0.796043 0.476406 0.802662 0.227240
N1    N     N_R   0.500000 0.857200 0.500000 -0.081670
N2    N     N_R   0.500000 0.142800 0.500000 -0.081670
O1    O     O_R   0.316770 0.614620 0.499990 -0.618113
O2    O     O_R   0.683230 0.385380 0.500010 -0.618113
O3    O     O_R   0.683230 0.614620 0.500010 -0.619617
O4    O     O_R   0.316770 0.385380 0.499990 -0.619617
O5    O     O_R   0.500010 0.614640 0.285340 -0.614008
O6    O     O_R   0.499990 0.385360 0.714660 -0.614009
O7    O     O_R   0.499990 0.614640 0.714660 -0.618245
O8    O     O_R   0.500010 0.385360 0.285340 -0.618245
Zn1   Zn    Zn3+2 0.500000 0.653120 0.500000 0.947539
Zn2   Zn    Zn3+2 0.500000 0.346880 0.500000 0.947539

loop_
_geom_bond_atom_site_label_1
_geom_bond_atom_site_label_2
_ccdc_geom_bond_type
C12   O2    A    
C5    C8    A    
C2    C4    A    
C13   H8    S    
C3    C19   A    
C6    C7    A    
N1    Zn1   S    
C9    C18   S    
N2    Zn2   S    
C10   C19   S    
C1    C4    S    
C4    C18   A    
C14   O5    A    
O3    Zn1   S    
C6    N1    A    
C3    C20   A    
C14   O8    A    
C7    H10   S    
O4    Zn2   S    
C5    N2    A    
C10   H2    S    
C9    H13   S    
C10   H15   S    
C11   H3    S    
C11   H4    S    
C7    N2    A    
C15   O6    A    
C18   C20   A    
O7    Zn1   S    
C9    H14   S    
C11   C20   S    
C14   C16   S    
C13   H6    S    
C8    N1    A    
C1    O1    A    
O8    Zn2   S    
C1    O4    A    
C6    H9    S    
C5    H1    S    
C12   O3    A    
O1    Zn1   S    
C15   C17   S    
C2    C13   S    
C11   H5    S    
O2    Zn2   S    
C13   H7    S    
C10   H16   S    
C3    C12   S    
C9    H12   S    
C2    C19   A    
C8    H11   S    
O5    Zn1   S    
O6    Zn2   S    
C16   C17   T    
C15   O7    A    
