data_mof_unit_57381.cif
_audit_creation_date              2012-10-26T18:28:54-0400
_audit_creation_method            fapswitch 2.2
_symmetry_space_group_name_H-M    P1
_symmetry_Int_Tables_number       1
_space_group_crystal_system       triclinic
_cell_length_a                    11.664418
_cell_length_b                    12.995768
_cell_length_c                    15.828749
_cell_angle_alpha                 92.389507
_cell_angle_beta                  73.512935
_cell_angle_gamma                 99.855422
_cell_volume                      2266.77989332

loop_
_atom_site_label
_atom_site_type_symbol
_atom_type_description
_atom_site_fract_x
_atom_site_fract_y
_atom_site_fract_z
_atom_type_partial_charge
C1    C     C_R   0.520865 0.700831 0.501049 0.531500
C2    C     C_R   0.349712 0.015307 0.487795 -0.138225
C3    C     C_R   0.639330 0.876440 0.510556 -0.148791
C4    C     C_R   0.360221 0.123457 0.489054 -0.135434
C5    C     C_R   0.436204 0.860658 0.494127 -0.128643
C6    C     C_R   0.563284 0.139102 0.505810 -0.127183
C7    C     C_R   0.445910 0.968704 0.495393 0.047433
C8    C     C_R   0.553420 0.031070 0.504630 0.049571
C9    C     C_R   0.948674 0.614121 0.567624 0.220574
C10   C     C_R   0.050820 0.385843 0.435495 0.216777
C11   C     C_R   0.827720 0.600553 0.561060 0.029957
C12   C     C_R   0.479142 0.299136 0.498776 0.556078
C13   C     C_R   0.172089 0.400526 0.438179 0.057658
C14   C     C_R   0.854590 0.448524 0.474821 0.050250
C15   C     C_R   0.145233 0.551036 0.526281 0.036502
C16   C     C_R   0.426087 0.493614 0.668380 0.571524
C17   C     C_R   0.573990 0.508041 0.331805 0.548514
C18   C     C_R   0.975948 0.458234 0.477466 -0.030514
C19   C     C_R   0.023364 0.542099 0.523870 -0.019379
C20   C     C_R   0.380790 0.485581 0.765132 0.005685
C21   C     C_R   0.619436 0.526476 0.236087 -0.004113
C22   C     C_R   0.227417 0.425583 0.899900 -0.119719
C23   C     C_R   0.357712 0.460633 0.087361 -0.128888
C24   C     C_R   0.769111 0.604345 0.105416 -0.111880
C25   C     C_R   0.260334 0.441394 0.808528 0.247977
C26   C     C_R   0.735014 0.584218 0.195952 0.261704
C27   C     C_R   0.463720 0.517651 0.813942 -0.184308
C28   C     C_R   0.538838 0.494853 0.185708 -0.178246
C29   C     C_R   0.432025 0.502344 0.905645 0.019088
C30   C     C_R   0.566937 0.524415 0.096795 0.018435
C31   C     C_R   0.311389 0.455547 0.948140 0.005871
C32   C     C_R   0.685701 0.576845 0.056186 0.002274
C33   C     C_R   0.517341 0.528557 0.955758 0.047287
C34   C     C_R   0.637951 0.578983 0.917621 -0.135600
C35   C     C_R   0.480534 0.503383 0.047435 0.043476
C36   C     C_3   0.917908 0.746266 0.675918 -0.002633
C37   C     C_3   0.894883 0.845236 0.638553 -0.265110
C38   C     C_3   0.787808 0.887668 0.700707 -0.483359
C39   C     C_3   0.981396 0.209553 0.442476 -0.005400
C40   C     C_3   0.054726 0.128629 0.391166 -0.253317
C41   C     C_3   0.035139 0.029975 0.446028 -0.494732
C42   C     C_3   0.789003 0.712754 0.287985 0.038582
C43   C     C_3   0.862186 0.808461 0.232739 -0.286656
C44   C     C_3   0.839722 0.909328 0.282874 -0.480701
C45   C     C_R   0.275411 0.437013 0.038459 -0.128865
C46   C     C_3   0.081710 0.452420 0.778553 0.017379
C47   C     C_3   0.988984 0.395485 0.733760 -0.247636
C48   C     C_3   0.874449 0.444956 0.756434 -0.489386
C49   C     C_R   0.719773 0.602986 0.967153 -0.143118
C50   C     C_R   0.467085 0.185689 0.497906 0.006080
C51   C     C_R   0.532663 0.814187 0.501727 -0.004724
C52   C     C_R   0.649384 0.984449 0.512545 -0.142039
Cu1   Cu    Cu3+1 0.386820 0.492450 0.493500 0.945031
Cu2   Cu    Cu3+1 0.613180 0.507550 0.506500 0.931342
H1    H     H_    0.182601 0.403134 0.071791 0.121932
H2    H     H_    0.672491 0.603331 0.849726 0.090794
H3    H     H_    0.183137 0.612981 0.563163 0.175147
H4    H     H_    0.817042 0.385486 0.438686 0.172202
H5    H     H_    0.960500 0.770130 0.729734 0.147305
H6    H     H_    0.832694 0.692587 0.708159 0.097977
H7    H     H_    0.977472 0.905821 0.627780 0.163996
H8    H     H_    0.876878 0.828625 0.573789 0.156263
H9    H     H_    0.703398 0.829637 0.709410 0.150672
H10   H     H_    0.775575 0.960448 0.672418 0.147225
H11   H     H_    0.804434 0.905595 0.765870 0.149836
H12   H     H_    0.810647 0.642831 0.935337 0.096248
H13   H     H_    0.883413 0.177873 0.455140 0.138005
H14   H     H_    0.999049 0.221508 0.508416 0.111549
H15   H     H_    0.027276 0.107861 0.330066 0.173724
H16   H     H_    0.152765 0.162306 0.372078 0.156373
H17   H     H_    0.066426 0.048641 0.505781 0.142019
H18   H     H_    0.087567 0.972130 0.406410 0.150988
H19   H     H_    0.937801 0.994653 0.466419 0.136053
H20   H     H_    0.814860 0.713988 0.350455 0.173700
H21   H     H_    0.690363 0.717971 0.307053 0.117599
H22   H     H_    0.960408 0.803885 0.215663 0.176055
H23   H     H_    0.230115 0.345947 0.404973 0.130892
H24   H     H_    0.835851 0.810013 0.170715 0.155637
H25   H     H_    0.742283 0.916460 0.299178 0.163075
H26   H     H_    0.894140 0.977383 0.241604 0.151194
H27   H     H_    0.866834 0.910310 0.344696 0.147423
H28   H     H_    0.112415 0.533680 0.752065 0.141483
H29   H     H_    0.036013 0.455211 0.850460 0.116008
H30   H     H_    0.029853 0.397389 0.661264 0.173815
H31   H     H_    0.963880 0.312391 0.755495 0.171253
H32   H     H_    0.825869 0.433827 0.827584 0.156372
H33   H     H_    0.813330 0.407656 0.717339 0.154033
H34   H     H_    0.768411 0.655561 0.590111 0.126726
H35   H     H_    0.897740 0.529732 0.741172 0.156526
H36   H     H_    0.645998 0.186662 0.512842 0.113594
H37   H     H_    0.353432 0.813032 0.487258 0.132892
H38   H     H_    0.284939 0.158277 0.482984 0.125367
H39   H     H_    0.714780 0.841693 0.516020 0.116406
H40   H     H_    0.731648 0.031330 0.520540 0.088507
H41   H     H_    0.266778 0.968210 0.480893 0.111034
H42   H     H_    0.453967 0.447035 0.218198 0.124752
H43   H     H_    0.554155 0.551546 0.777721 0.121295
H44   H     H_    0.137074 0.385761 0.932951 0.110172
H45   H     H_    0.859581 0.645473 0.074338 0.114940
H46   H     H_    0.320721 0.445918 0.157034 0.115757
N1    N     N_R   0.216750 0.481110 0.483710 -0.275637
N2    N     N_R   0.783250 0.518890 0.516290 -0.271315
O1    O     O_R   0.419950 0.645670 0.495380 -0.513557
O2    O     O_3   0.006691 0.301602 0.390822 -0.589110
O3    O     O_3   0.816920 0.619285 0.243493 -0.554232
O4    O     O_3   0.181532 0.398679 0.760418 -0.551135
O5    O     O_R   0.580050 0.354330 0.504620 -0.514575
O6    O     O_R   0.611110 0.658410 0.506370 -0.529516
O7    O     O_R   0.388890 0.341590 0.493630 -0.508656
O8    O     O_R   0.350820 0.490050 0.621260 -0.452882
O9    O     O_R   0.649180 0.509950 0.378740 -0.456886
O10   O     O_R   0.541970 0.502800 0.632250 -0.517082
O11   O     O_R   0.458030 0.497200 0.367750 -0.513789
O12   O     O_3   0.001162 0.697971 0.610120 -0.604395

loop_
_geom_bond_atom_site_label_1
_geom_bond_atom_site_label_2
_ccdc_geom_bond_type
Cu1   O8    S    
C21   C26   A    
C34   H2    S    
C22   H44   S    
C27   C29   A    
C24   H45   S    
C39   H14   S    
C14   C18   A    
C2    C7    A    
C36   H5    S    
C36   O12   S    
C37   H8    S    
C17   O11   A    
C7    C8    A    
Cu1   Cu2   S    
C43   H24   S    
C15   C19   A    
C42   H21   S    
C40   H16   S    
C30   C35   A    
C23   C45   A    
C9    O12   S    
C47   H31   S    
C36   C37   S    
C24   C26   A    
C14   N2    A    
C20   C25   A    
C29   C33   A    
C18   C19   A    
C46   H28   S    
C9    C19   A    
Cu1   N1    S    
C22   C25   A    
C52   H40   S    
C39   O2    S    
C1    O1    A    
C41   H17   S    
C23   H46   S    
Cu1   O1    S    
C15   H3    S    
C17   O9    A    
C26   O3    S    
C12   O7    A    
Cu1   O11   S    
C25   O4    S    
C38   H10   S    
C14   H4    S    
C13   H23   S    
C42   H20   S    
C22   C31   A    
C16   O8    A    
C44   H26   S    
C44   H27   S    
C40   H15   S    
C39   C40   S    
C5    C7    A    
C3    C51   A    
C6    C8    A    
C6    H36   S    
C6    C50   A    
C4    C50   A    
C49   H12   S    
C2    C4    A    
C43   C44   S    
C24   C32   A    
C37   C38   S    
C9    C11   A    
C12   C50   S    
C47   C48   S    
C38   H11   S    
C11   H34   S    
C16   C20   S    
C33   C34   A    
C48   H33   S    
Cu2   O10   S    
C3    H39   S    
C47   H30   S    
C15   N1    A    
C1    C51   S    
C5    H37   S    
C41   H18   S    
Cu2   O5    S    
C40   C41   S    
C21   C28   A    
C23   C35   A    
C48   H35   S    
C48   H32   S    
C42   C43   S    
C13   N1    A    
C16   O10   A    
C38   H9    S    
Cu1   O7    S    
C43   H22   S    
C8    C52   A    
C46   C47   S    
C27   H43   S    
C34   C49   A    
C39   H13   S    
Cu2   N2    S    
C44   H25   S    
C36   H6    S    
C10   C13   A    
C2    H41   S    
C12   O5    A    
C37   H7    S    
C3    C52   A    
C20   C27   A    
Cu2   O6    S    
C28   H42   S    
C10   O2    S    
C29   C31   A    
C30   C32   A    
C10   C18   A    
C46   O4    S    
C28   C30   A    
C33   C35   A    
Cu2   O9    S    
C11   N2    A    
C42   O3    S    
C17   C21   S    
C32   C49   A    
C1    O6    A    
C41   H19   S    
C46   H29   S    
C45   H1    S    
C31   C45   A    
C5    C51   A    
C4    H38   S    
