data_mof_unit_68252.cif
_audit_creation_date              2012-12-10T20:45:33-0500
_audit_creation_method            fapswitch 2.2
_symmetry_space_group_name_H-M    P1
_symmetry_Int_Tables_number       1
_space_group_crystal_system       triclinic
_cell_length_a                    10.934824
_cell_length_b                    10.748012
_cell_length_c                    10.284382
_cell_angle_alpha                 88.629899
_cell_angle_beta                  91.347379
_cell_angle_gamma                 92.213855
_cell_volume                      1207.1426895

loop_
_atom_site_label
_atom_site_type_symbol
_atom_type_description
_atom_site_fract_x
_atom_site_fract_y
_atom_site_fract_z
_atom_type_partial_charge
C1    C     C_R   0.499542 0.261062 0.500714 0.893317
C2    C     C_R   0.175152 0.864995 0.129032 0.345192
C3    C     C_R   0.937801 0.594685 0.423784 0.248584
C4    C     C_R   0.873326 0.509391 0.504377 -0.177388
C5    C     C_R   0.936854 0.440357 0.599191 -0.018610
C6    C     C_R   0.064031 0.438251 0.597226 0.194395
C7    C     C_R   0.128452 0.505563 0.498550 -0.156353
C8    C     C_R   0.065464 0.588815 0.413577 -0.008771
C9    C     C_R   0.875331 0.538548 0.792739 -0.192051
C10   C     C_R   0.843949 0.538559 0.920627 0.143814
C11   C     C_R   0.828163 0.424335 0.987244 0.090777
C12   C     C_R   0.261311 0.501904 0.498905 0.916041
C13   C     C_R   0.827883 0.310837 0.922421 0.217785
C14   C     C_R   0.851219 0.312086 0.789630 0.161417
C15   C     C_R   0.882586 0.426775 0.727385 -0.001104
C16   C     C_R   0.396800 0.055983 0.537757 0.011555
C17   C     C_R   0.499963 0.127587 0.498446 -0.151623
C18   C     C_R   0.597579 0.067357 0.441250 0.230955
C19   C     C_R   0.594714 0.938724 0.434764 -0.125872
C20   C     C_R   0.502643 0.869632 0.496106 -0.103077
C21   C     C_R   0.407504 0.928836 0.550374 -0.028820
C22   C     C_3   0.369056 0.925503 0.687874 0.415351
C23   C     C_R   0.502351 0.737968 0.498927 0.906443
C24   C     C_3   0.330320 0.057830 0.663050 0.091158
C25   C     C_R   0.519302 0.394218 0.072705 0.151183
C26   C     C_R   0.489805 0.606473 0.064397 0.214929
C27   C     C_R   0.485348 0.604472 0.924775 -0.081405
C28   C     C_R   0.523583 0.395996 0.932998 0.082911
C29   C     C_3   0.456332 0.275363 0.922580 -0.458057
C30   C     C_3   0.440816 0.276293 0.067943 0.150342
C31   C     C_R   0.739061 0.503720 0.501340 0.919237
C32   C     C_R   0.157673 0.898939 0.257547 0.317325
C33   C     C_R   0.136539 0.806462 0.354044 -0.246444
C34   C     C_R   0.128542 0.679369 0.322252 0.040326
C35   C     C_R   0.153464 0.646614 0.193510 0.202202
C36   C     C_R   0.175620 0.739295 0.098396 -0.260250
H1    H     H_    0.667894 0.893000 0.389222 0.217603
H2    H     H_    0.368892 0.126431 0.731873 0.148226
H3    H     H_    0.471066 0.688703 0.870096 0.228343
H4    H     H_    0.369710 0.282788 0.868483 0.224823
H5    H     H_    0.516865 0.203085 0.887686 0.256356
H6    H     H_    0.345224 0.288471 0.096228 0.187389
H7    H     H_    0.115445 0.833946 0.451316 0.239408
H8    H     H_    0.191572 0.713245 0.999467 0.225923
H9    H     H_    0.897320 0.626771 0.743580 0.199265
N1    N     N_R   0.499160 0.499140 0.142800 -0.152594
N2    N     N_R   0.499160 0.499180 0.857150 -0.122917
O1    O     O_R   0.500020 0.316790 0.614690 -0.631216
O2    O     O_R   0.500000 0.316760 0.385350 -0.572148
O3    O     O_R   0.316770 0.500030 0.614670 -0.575235
O4    O     O_R   0.316750 0.499990 0.385330 -0.605781
O5    O     O_R   0.500000 0.683240 0.614650 -0.590539
O6    O     O_R   0.499980 0.683210 0.385310 -0.595584
O7    O     O_R   0.683250 0.500010 0.614670 -0.627664
O8    O     O_R   0.683230 0.499970 0.385330 -0.553817
Zn1   Zn    Zn3+2 0.500010 0.500020 0.653130 1.007391
Zn2   Zn    Zn3+2 0.499990 0.499980 0.346870 1.054061
Br1   Br    Br    0.196697 0.988464 0.993133 -0.298231
I1    I     I_    0.835970 0.421821 0.184032 -0.147625
Br2   Br    Br    0.809278 0.153583 0.016322 -0.246011
I2    I     I_    0.853031 0.139924 0.695171 -0.084093
I3    I     I_    0.757131 0.155451 0.368868 -0.077456
Br3   Br    Br    0.247060 0.792637 0.724191 -0.455195
Br4   Br    Br    0.510708 0.928307 0.806746 -0.439231
Br5   Br    Br    0.156743 0.067775 0.627525 -0.326043
I4    I     I_    0.491154 0.789929 0.130508 -0.137141
Br6   Br    Br    0.150142 0.071366 0.298470 -0.315387
Br7   Br    Br    0.507856 0.130111 0.146616 -0.343999
I5    I     I_    0.157612 0.461214 0.131588 -0.248194
Br8   Br    Br    0.851403 0.730694 0.343748 -0.451066
I6    I     I_    0.150692 0.354439 0.767028 -0.219243
I7    I     I_    0.833509 0.716931 0.001302 -0.107793

loop_
_geom_bond_atom_site_label_1
_geom_bond_atom_site_label_2
_ccdc_geom_bond_type
C12   O3    A    
C2    Br1   S    
C28   N2    A    
C9    H9    S    
C29   C30   S    
O4    Zn2   S    
O3    Zn1   S    
C9    C10   A    
C24   H2    S    
C19   C20   A    
C20   C23   S    
C31   O8    A    
C32   C33   A    
C12   O4    A    
C17   C18   A    
C26   C27   A    
C7    C8    A    
C1    O1    A    
C13   Br2   S    
C8    C34   S    
C21   C22   S    
C25   C28   A    
C2    C32   A    
C11   C13   A    
C23   O5    A    
C6    C7    A    
C24   Br5   S    
C30   H6    S    
C32   Br6   S    
C11   I1    S    
C29   H4    S    
C23   O6    A    
C28   C29   S    
N2    Zn1   S    
C33   C34   A    
C16   C21   A    
C22   C24   S    
C2    C36   A    
O8    Zn2   S    
N1    Zn2   S    
C9    C15   A    
C5    C6    A    
O7    Zn1   S    
C7    C12   S    
C5    C15   S    
C4    C31   S    
C36   H8    S    
C10   C11   A    
C26   N1    A    
C22   Br4   S    
C3    C4    A    
C26   I4    S    
C31   O7    A    
C33   H7    S    
C3    Br8   S    
O2    Zn2   S    
C20   C21   A    
C35   I5    S    
C16   C24   S    
C34   C35   A    
C3    C8    A    
C27   N2    A    
C25   C30   S    
O1    Zn1   S    
O6    Zn2   S    
C14   C15   A    
C18   C19   A    
C18   I3    S    
C19   H1    S    
C29   H5    S    
C22   Br3   S    
C13   C14   A    
C14   I2    S    
C1    O2    A    
C25   N1    A    
C1    C17   S    
C30   Br7   S    
O5    Zn1   S    
C16   C17   A    
C27   H3    S    
C4    C5    A    
C6    I6    S    
C35   C36   A    
C10   I7    S    
