data_mof_unit_8414.cif
_audit_creation_date              2012-12-10T18:46:17-0500
_audit_creation_method            fapswitch 2.2
_symmetry_space_group_name_H-M    P1
_symmetry_Int_Tables_number       1
_space_group_crystal_system       triclinic
_cell_length_a                    9.891077
_cell_length_b                    10.64958
_cell_length_c                    13.137041
_cell_angle_alpha                 90.720067
_cell_angle_beta                  70.113588
_cell_angle_gamma                 90.557971
_cell_volume                      1301.15852586

loop_
_atom_site_label
_atom_site_type_symbol
_atom_type_description
_atom_site_fract_x
_atom_site_fract_y
_atom_site_fract_z
_atom_type_partial_charge
C1    C     C_R   0.500192 0.739849 0.500911 0.862622
C2    C     C_R   0.436585 0.495508 0.982677 0.081574
C3    C     C_R   0.458101 0.450963 0.876925 0.087923
C4    C     C_R   0.544587 0.472126 0.028198 0.069872
C5    C     C_R   0.661005 0.390965 0.974503 0.165681
C6    C     C_R   0.670550 0.336205 0.875636 -0.258367
C7    C     C_R   0.570060 0.365203 0.827589 -0.200281
C8    C     C_R   0.538992 0.525602 0.126761 -0.276237
C9    C     C_R   0.746010 0.406345 0.126444 -0.200515
C10   C     C_R   0.368478 0.495281 0.821881 -0.118473
C11   C     C_R   0.627257 0.936042 0.446294 -0.202434
C12   C     C_R   0.420071 0.495659 0.704017 0.849475
C13   C     C_R   0.626544 0.064770 0.445440 -0.192766
C14   C     C_R   0.499464 0.127769 0.501732 0.010888
C15   C     C_R   0.373991 0.064178 0.560785 -0.197741
C16   C     C_R   0.374117 0.935281 0.560465 -0.212172
C17   C     C_R   0.500598 0.872311 0.502736 -0.004659
C18   C     C_R   0.950270 0.409605 0.445509 -0.121607
C19   C     C_R   0.093524 0.408625 0.445184 0.054434
C20   C     C_R   0.048000 0.590436 0.555086 -0.111653
C21   C     C_R   0.904451 0.590329 0.555108 -0.062275
C22   C     C_R   0.499489 0.260167 0.500352 0.859058
C23   C     C_R   0.580025 0.499945 0.296040 0.873222
C24   C     C_R   0.763558 0.362084 0.022599 -0.203564
C25   C     C_R   0.629682 0.484147 0.179628 -0.051515
C26   C     C_R   0.241267 0.558917 0.878461 -0.195139
C27   C     C_R   0.209120 0.587851 0.987355 -0.143026
C28   C     C_R   0.307371 0.560449 0.038553 -0.204710
H1    H     H_    0.817315 0.373812 0.167351 0.150308
H2    H     H_    0.723851 0.114970 0.400013 0.141673
H3    H     H_    0.276900 0.114048 0.606466 0.140636
H4    H     H_    0.276723 0.884930 0.605411 0.139363
H5    H     H_    0.913376 0.337794 0.401817 0.130266
H6    H     H_    0.082831 0.662860 0.599278 0.127312
H7    H     H_    0.831258 0.662753 0.599357 0.134941
H8    H     H_    0.756105 0.271152 0.835133 0.147567
H9    H     H_    0.852143 0.299700 0.982606 0.137904
H10   H     H_    0.458282 0.593452 0.168433 0.140381
H11   H     H_    0.170091 0.591358 0.837392 0.153568
H12   H     H_    0.277397 0.588945 0.122241 0.124079
H13   H     H_    0.110881 0.637183 0.031003 0.144391
H14   H     H_    0.579870 0.318533 0.751761 0.167294
H15   H     H_    0.724948 0.886384 0.401468 0.147545
N1    N     N_R   0.142790 0.500030 0.500030 -0.093815
N2    N     N_R   0.857180 0.499940 0.500010 -0.081623
O1    O     O_R   0.385370 0.683250 0.500010 -0.626366
O2    O     O_R   0.614700 0.683220 0.500010 -0.620663
O3    O     O_R   0.328400 0.499990 0.653620 -0.615819
O4    O     O_R   0.557730 0.499960 0.653620 -0.604390
O5    O     O_R   0.385300 0.316780 0.499990 -0.606320
O6    O     O_R   0.614630 0.316750 0.499990 -0.634024
O7    O     O_R   0.442270 0.500040 0.346380 -0.611551
O8    O     O_R   0.671600 0.500010 0.346380 -0.617529
Zn1   Zn    Zn3+2 0.346870 0.500020 0.500000 0.941629
Zn2   Zn    Zn3+2 0.653130 0.499980 0.500000 0.936653
C29   C     C_R   0.185016 0.305844 0.384096 0.157855
C30   C     C_R   0.270497 0.322734 0.275553 -0.113069
C31   C     C_R   0.346938 0.222009 0.213905 -0.149157
C32   C     C_R   0.333724 0.102544 0.259116 -0.123447
C33   C     C_R   0.242537 0.083496 0.365429 -0.127842
C34   C     C_R   0.167806 0.184628 0.427729 -0.159800
H16   H     H_    0.275791 0.413459 0.238596 0.129293
H17   H     H_    0.414237 0.235944 0.130558 0.147375
H18   H     H_    0.391950 0.024337 0.211177 0.130248
H19   H     H_    0.229375 0.990275 0.399444 0.142232
H20   H     H_    0.095878 0.168495 0.509568 0.115288

loop_
_geom_bond_atom_site_label_1
_geom_bond_atom_site_label_2
_ccdc_geom_bond_type
C19   C29   S    
C23   O7    A    
C9    C24   A    
C11   H15   S    
C6    C7    A    
C21   H7    S    
C2    C3    A    
C16   H4    S    
C27   H13   S    
C1    C17   S    
C12   O3    A    
C14   C15   A    
C9    H1    S    
C19   N1    A    
C4    C8    A    
C20   H6    S    
O1    Zn1   S    
C15   H3    S    
C23   C25   S    
C12   O4    A    
C32   H18   S    
C9    C25   A    
C32   C33   A    
C3    C10   A    
C13   C14   A    
C29   C30   A    
O3    Zn1   S    
C8    C25   A    
C11   C13   A    
C14   C22   S    
C10   C26   A    
C30   C31   A    
O5    Zn1   S    
C5    C24   A    
C10   C12   S    
C8    H10   S    
C33   C34   A    
C2    C4    A    
C23   O8    A    
C1    O2    A    
C20   N1    A    
C6    H8    S    
C33   H19   S    
C24   H9    S    
C3    C7    A    
C21   N2    A    
O8    Zn2   S    
C26   C27   A    
C5    C6    A    
C26   H11   S    
C18   H5    S    
C1    O1    A    
C28   H12   S    
C13   H2    S    
C15   C16   A    
C18   N2    A    
N1    Zn1   S    
C22   O5    A    
C30   H16   S    
C20   C21   A    
N2    Zn2   S    
O2    Zn2   S    
C18   C19   A    
C7    H14   S    
C31   H17   S    
C29   C34   A    
C22   O6    A    
C2    C28   A    
O6    Zn2   S    
C31   C32   A    
O4    Zn2   S    
C4    C5    A    
C34   H20   S    
C11   C17   A    
O7    Zn1   S    
C16   C17   A    
C27   C28   A    
