data_mof_unit_58012.cif
_audit_creation_date              2012-12-10T19:30:31-0500
_audit_creation_method            fapswitch 2.2
_symmetry_space_group_name_H-M    P1
_symmetry_Int_Tables_number       1
_space_group_crystal_system       triclinic
_cell_length_a                    14.951439
_cell_length_b                    15.704864
_cell_length_c                    16.598752
_cell_angle_alpha                 89.921341
_cell_angle_beta                  85.228098
_cell_angle_gamma                 90.726859
_cell_volume                      3883.72432155

loop_
_atom_site_label
_atom_site_type_symbol
_atom_type_description
_atom_site_fract_x
_atom_site_fract_y
_atom_site_fract_z
_atom_type_partial_charge
C1    C     C_R   0.500485 0.662341 0.500168 0.907472
C2    C     C_R   0.499387 0.337596 0.500859 0.910193
C3    C     C_3   0.438477 0.022649 0.455232 -0.263514
C4    C     C_3   0.556679 0.976391 0.563975 -0.244768
C5    C     C_3   0.525506 0.971533 0.436193 0.363617
C6    C     C_3   0.470297 0.027829 0.583039 0.388081
C7    C     C_1   0.501200 0.750788 0.504207 -0.191046
C8    C     C_1   0.497713 0.248938 0.504048 -0.192190
C9    C     C_3   0.415488 0.967705 0.532023 0.400961
C10   C     C_3   0.579695 0.031099 0.487735 0.388744
C11   C     C_3   0.501866 0.916260 0.512205 -0.103558
C12   C     C_3   0.493743 0.083048 0.507070 -0.103245
C13   C     C_1   0.501707 0.825768 0.508374 0.069101
C14   C     C_1   0.495683 0.173765 0.506301 0.066396
C15   C     C_3   0.032952 0.577071 0.475201 -0.236058
C16   C     C_3   0.964866 0.427521 0.536582 -0.214255
C17   C     C_3   0.978592 0.511139 0.429140 0.382416
C18   C     C_3   0.020558 0.492846 0.581899 0.396406
C19   C     C_3   0.964288 0.565326 0.549671 0.433350
C20   C     C_3   0.033404 0.437356 0.461036 0.383814
C21   C     C_3   0.909193 0.500979 0.503535 -0.176886
C22   C     C_3   0.090060 0.503028 0.506718 -0.236153
C23   C     C_R   0.487785 0.504833 0.653783 0.854604
C24   C     C_R   0.512343 0.501820 0.345861 0.861279
C25   C     C_1   0.809826 0.500830 0.501017 0.171706
C26   C     C_1   0.189937 0.500838 0.502378 0.109793
C27   C     C_R   0.480958 0.536203 0.736507 -0.028599
C28   C     C_R   0.519944 0.520029 0.259478 -0.041605
C29   C     C_R   0.552802 0.583956 0.763048 -0.205886
C30   C     C_R   0.442527 0.519977 0.217473 -0.208605
C31   C     C_R   0.545131 0.621790 0.838550 -0.160362
C32   C     C_R   0.446613 0.549542 0.138568 -0.148504
C33   C     C_R   0.466456 0.610108 0.889561 0.205497
C34   C     C_R   0.528263 0.580427 0.100749 0.204388
C35   C     C_R   0.392758 0.566617 0.861583 -0.168992
C36   C     C_R   0.606249 0.577661 0.141750 -0.182122
C37   C     C_R   0.399822 0.529944 0.785048 -0.205313
C38   C     C_R   0.602222 0.547778 0.220829 -0.189525
C39   C     C_2   0.465620 0.627738 0.976026 -0.245360
C40   C     C_2   0.536363 0.604788 0.015312 -0.230344
H1    H     H_    0.614664 0.593195 0.725032 0.161187
H2    H     H_    0.378453 0.498181 0.245927 0.158488
H3    H     H_    0.662845 0.548740 0.252307 0.164416
H4    H     H_    0.342696 0.495799 0.764348 0.145853
H5    H     H_    0.600215 0.591232 0.981967 0.151382
H6    H     H_    0.401512 0.641007 0.008884 0.147575
H7    H     H_    0.331592 0.557152 0.900524 0.122410
H8    H     H_    0.670187 0.598954 0.112599 0.127364
H9    H     H_    0.386087 0.546053 0.107259 0.124707
H10   H     H_    0.601869 0.657338 0.858276 0.129687
N1    N     N_1   0.731990 0.500000 0.499970 -0.100270
N2    N     N_1   0.268010 0.500000 0.500030 -0.102062
O1    O     O_R   0.425540 0.623220 0.500000 -0.608650
O2    O     O_R   0.574460 0.376780 0.500000 -0.597372
O3    O     O_R   0.574480 0.623220 0.499990 -0.612146
O4    O     O_R   0.425520 0.376780 0.500010 -0.610354
O5    O     O_R   0.416730 0.500010 0.615810 -0.624780
O6    O     O_R   0.583270 0.499990 0.384190 -0.611153
O7    O     O_R   0.565670 0.500010 0.615790 -0.616995
O8    O     O_R   0.434330 0.499990 0.384210 -0.610702
Zn1   Zn    Zn3+2 0.400550 0.500000 0.500010 0.960519
Zn2   Zn    Zn3+2 0.599450 0.500000 0.499990 0.979155
C41   C     C_R   0.059663 0.665478 0.445007 0.152030
C42   C     C_R   0.995366 0.716460 0.411846 -0.112209
C43   C     C_R   0.017566 0.799066 0.385010 -0.181046
C44   C     C_R   0.103841 0.831949 0.391843 -0.120316
C45   C     C_R   0.168060 0.782090 0.425315 -0.145717
C46   C     C_R   0.146178 0.699338 0.452014 -0.168443
H11   H     H_    0.927896 0.692247 0.406959 0.160122
H12   H     H_    0.967708 0.837649 0.359177 0.135191
H13   H     H_    0.120840 0.896097 0.371491 0.134043
H14   H     H_    0.234815 0.807670 0.430945 0.145501
H15   H     H_    0.196632 0.663260 0.479241 0.144281
C47   C     C_R   0.926021 0.348732 0.579576 0.171798
C48   C     C_R   0.969344 0.269947 0.571383 -0.196415
C49   C     C_R   0.932686 0.198007 0.612057 -0.159744
C50   C     C_R   0.853567 0.204248 0.662429 -0.113321
C51   C     C_R   0.811517 0.282728 0.673146 -0.141662
C52   C     C_R   0.848015 0.354848 0.632650 -0.083548
H16   H     H_    0.031762 0.263979 0.534251 0.164058
H17   H     H_    0.965671 0.137369 0.604845 0.145317
H18   H     H_    0.825516 0.148472 0.693822 0.125427
H19   H     H_    0.750895 0.287809 0.713195 0.131320
H20   H     H_    0.815455 0.415412 0.643191 0.136787
O9    O     O_3   0.073181 0.370745 0.413927 -0.654232
C53   C     C_3   0.006980 0.322609 0.377181 0.086020
H21   H     H_    0.983610 0.357296 0.324921 0.165483
H22   H     H_    0.946991 0.308359 0.419254 0.151762
C54   C     C_3   0.047846 0.238633 0.346925 -0.346214
H23   H     H_    0.102751 0.252227 0.299187 0.216610
H24   H     H_    0.076667 0.205069 0.397569 0.228741
C55   C     C_3   0.978090 0.180592 0.312215 -0.969948
H25   H     H_    0.923235 0.164803 0.359303 0.271329
H26   H     H_    0.010283 0.120491 0.290762 0.261270
H27   H     H_    0.949412 0.212128 0.260423 0.265820
O10   O     O_3   0.923468 0.632376 0.595301 -0.642614
C56   C     C_3   0.987123 0.676638 0.638578 0.138947
H28   H     H_    0.058313 0.665360 0.615787 0.128905
H29   H     H_    0.978729 0.655710 0.702775 0.170537
C57   C     C_3   0.969563 0.772189 0.634202 -0.348023
H30   H     H_    0.973348 0.792758 0.569966 0.243515
H31   H     H_    0.901094 0.785531 0.662035 0.222255
C58   C     C_3   0.037875 0.823753 0.677832 -0.980362
H32   H     H_    0.033623 0.806214 0.742898 0.263683
H33   H     H_    0.023786 0.892710 0.672499 0.266545
H34   H     H_    0.106890 0.811889 0.650389 0.269851
O11   O     O_3   0.555100 0.933781 0.361612 -0.650515
C59   C     C_3   0.576368 0.996817 0.301940 0.116431
H35   H     H_    0.647264 0.017383 0.303804 0.149381
H36   H     H_    0.533834 0.054366 0.309553 0.153226
C60   C     C_3   0.564659 0.958568 0.218816 -0.333255
H37   H     H_    0.610278 0.903591 0.208507 0.226399
H38   H     H_    0.494453 0.935167 0.216636 0.230706
C61   C     C_3   0.585418 0.024002 0.151595 -0.968265
H39   H     H_    0.538960 0.078556 0.159658 0.271113
H40   H     H_    0.576762 0.994040 0.092141 0.267715
H41   H     H_    0.655740 0.047620 0.151881 0.262983
O12   O     O_3   0.441608 0.065066 0.658065 -0.655261
C62   C     C_3   0.418401 0.001274 0.716555 0.123330
H42   H     H_    0.462820 0.944911 0.710353 0.155303
H43   H     H_    0.348386 0.979149 0.711341 0.173406
C63   C     C_3   0.424878 0.038995 0.800658 -0.350946
H44   H     H_    0.494266 0.063365 0.805959 0.230784
H45   H     H_    0.377935 0.093160 0.809408 0.227149
C64   C     C_3   0.401810 0.972651 0.866648 -0.963185
H46   H     H_    0.332254 0.948045 0.863166 0.263717
H47   H     H_    0.406786 0.002164 0.926888 0.267289
H48   H     H_    0.449370 0.918829 0.860100 0.271871
C65   C     C_R   0.375242 0.043419 0.391619 0.143821
C66   C     C_R   0.348598 0.978483 0.340099 -0.156183
C67   C     C_R   0.288816 0.995443 0.281872 -0.179954
C68   C     C_R   0.255043 0.077323 0.274455 -0.112092
C69   C     C_R   0.280897 0.142202 0.325415 -0.149212
C70   C     C_R   0.340278 0.125406 0.383997 -0.155618
H49   H     H_    0.373281 0.914408 0.345787 0.161923
H50   H     H_    0.268395 0.944977 0.242749 0.136151
H51   H     H_    0.208577 0.090436 0.229496 0.127891
H52   H     H_    0.254606 0.205595 0.319925 0.137973
H53   H     H_    0.356729 0.176329 0.423811 0.144371
C71   C     C_R   0.621509 0.955945 0.626182 0.154082
C72   C     C_R   0.647894 0.020517 0.678084 -0.129539
C73   C     C_R   0.705122 0.002437 0.738152 -0.193882
C74   C     C_R   0.737583 0.920140 0.746184 -0.100226
C75   C     C_R   0.712657 0.855780 0.694265 -0.145435
C76   C     C_R   0.655147 0.873490 0.634362 -0.168864
H54   H     H_    0.623674 0.084757 0.672385 0.166906
H55   H     H_    0.724155 0.052208 0.778619 0.129067
H56   H     H_    0.782028 0.906233 0.792602 0.126726
H57   H     H_    0.737657 0.791952 0.700552 0.134021
H58   H     H_    0.638155 0.822679 0.594598 0.142422
O13   O     O_3   0.663032 0.071409 0.464455 -0.642526
C77   C     C_3   0.732904 0.011347 0.453358 0.111105
H59   H     H_    0.756705 0.009882 0.388296 0.142665
H60   H     H_    0.712826 0.944896 0.471310 0.143387
C78   C     C_3   0.811730 0.039981 0.500386 -0.323240
H61   H     H_    0.833666 0.105199 0.480851 0.232528
H62   H     H_    0.790384 0.042043 0.565885 0.236488
C79   C     C_3   0.890901 0.979800 0.486804 -0.982156
H63   H     H_    0.870482 0.914090 0.505992 0.271379
H64   H     H_    0.946145 0.001303 0.522919 0.264221
H65   H     H_    0.916148 0.979613 0.421962 0.262014
O14   O     O_3   0.336437 0.925254 0.565017 -0.661302
C80   C     C_3   0.256800 0.964247 0.544205 0.076117
H66   H     H_    0.200010 0.922998 0.568600 0.169094
H67   H     H_    0.251961 0.964355 0.478248 0.154759
C81   C     C_3   0.242313 0.053328 0.581047 -0.333304
H68   H     H_    0.237680 0.048824 0.647983 0.222829
H69   H     H_    0.298727 0.096972 0.561192 0.239013
C82   C     C_3   0.155899 0.091833 0.555569 -0.990525
H70   H     H_    0.159283 0.099082 0.488807 0.275246
H71   H     H_    0.146331 0.155582 0.583593 0.268809
H72   H     H_    0.097650 0.050318 0.575793 0.257241
O15   O     O_3   0.952562 0.520938 0.349709 -0.658468
C83   C     C_3   0.028523 0.533137 0.293706 0.110141
H73   H     H_    0.051972 0.470860 0.269406 0.150083
H74   H     H_    0.086477 0.564583 0.319921 0.151196
C84   C     C_3   0.001858 0.587759 0.223553 -0.332321
H75   H     H_    0.947435 0.554868 0.193476 0.223735
H76   H     H_    0.976093 0.649761 0.247109 0.227972
C85   C     C_3   0.081475 0.604238 0.161587 -0.982720
H77   H     H_    0.135779 0.639096 0.190004 0.269827
H78   H     H_    0.059713 0.643530 0.111279 0.265994
H79   H     H_    0.107878 0.543128 0.136472 0.261699
O16   O     O_3   0.028368 0.485502 0.666176 -0.647087
C86   C     C_3   0.115930 0.464549 0.684377 0.081828
H80   H     H_    0.118871 0.473985 0.750418 0.161154
H81   H     H_    0.167024 0.509258 0.655596 0.128660
C87   C     C_3   0.137349 0.370846 0.665629 -0.353561
H82   H     H_    0.085821 0.329312 0.698633 0.238838
H83   H     H_    0.136113 0.358539 0.599986 0.228852
C88   C     C_3   0.229794 0.347363 0.690571 -0.948901
H84   H     H_    0.282490 0.386475 0.656433 0.287948
H85   H     H_    0.242660 0.279184 0.676890 0.271235
H86   H     H_    0.233388 0.357647 0.756419 0.253814

loop_
_geom_bond_atom_site_label_1
_geom_bond_atom_site_label_2
_ccdc_geom_bond_type
O6    Zn2   S    
C81   H69   S    
C16   C21   S    
O4    Zn1   S    
C78   H62   S    
C3    C65   S    
C82   H70   S    
C66   H49   S    
C35   H7    S    
C6    C9    S    
C25   N1    T    
C61   H39   S    
C58   H34   S    
C60   H38   S    
C77   H60   S    
O15   C83   S    
O16   C86   S    
C23   O7    A    
C33   C39   S    
O8    Zn1   S    
C87   C88   S    
C34   C40   S    
C80   H67   S    
C27   C37   A    
C5    C11   S    
N2    Zn1   S    
C6    C12   S    
C52   H20   S    
C53   H22   S    
C86   H81   S    
C27   C29   A    
C5    C10   S    
C74   C75   A    
O3    Zn2   S    
C17   C20   S    
C59   H35   S    
C87   H83   S    
C45   H14   S    
C1    O1    A    
O12   C62   S    
C57   H30   S    
C3    C12   S    
C79   H65   S    
C83   H73   S    
O1    Zn1   S    
C51   H19   S    
C15   C22   S    
C80   H66   S    
C17   O15   S    
C68   C69   A    
C84   H76   S    
C64   H48   S    
O11   C59   S    
C31   C33   A    
C23   C27   S    
C54   H24   S    
C48   H16   S    
C76   H58   S    
C85   H79   S    
C24   O8    A    
C29   H1    S    
C44   C45   A    
O13   C77   S    
C69   H52   S    
C1    C7    S    
C20   O9    S    
C78   C79   S    
C79   H64   S    
C82   H71   S    
C74   H56   S    
N1    Zn2   S    
C55   H26   S    
C56   H29   S    
C85   H78   S    
C56   H28   S    
C63   H44   S    
C62   H43   S    
C40   H5    S    
C78   H61   S    
C47   C48   A    
C41   C42   A    
C45   C46   A    
C80   C81   S    
C49   C50   A    
C4    C6    S    
C67   H50   S    
C2    O2    A    
C70   H53   S    
C51   C52   A    
C18   C19   S    
C86   C87   S    
O2    Zn2   S    
C46   H15   S    
C50   C51   A    
C55   H27   S    
C17   C21   S    
C88   H84   S    
C87   H82   S    
C54   C55   S    
C32   C34   A    
C79   H63   S    
C71   C76   A    
C15   C19   S    
C48   C49   A    
C88   H85   S    
C75   H57   S    
C3    C9    S    
C26   N2    T    
C10   O13   S    
C4    C71   S    
C69   C70   A    
C44   H13   S    
C77   C78   S    
C28   C38   A    
C16   C20   S    
C84   C85   S    
O10   C56   S    
C57   H31   S    
C58   H33   S    
C42   H11   S    
C71   C72   A    
C4    C11   S    
O5    Zn1   S    
C9    C11   S    
C83   C84   S    
O9    C53   S    
C10   C12   S    
C72   H54   S    
C39   H6    S    
C16   C18   S    
C12   C14   S    
C84   H75   S    
C47   C52   A    
C81   H68   S    
C82   H72   S    
C16   C47   S    
C31   H10   S    
C4    C10   S    
C67   C68   A    
C39   C40   D    
C56   C57   S    
C85   H77   S    
C53   H21   S    
C65   C66   A    
C5    O11   S    
C62   C63   S    
C23   O5    A    
C21   C25   S    
C41   C46   A    
O7    Zn2   S    
C8    C14   T    
C60   H37   S    
C35   C37   A    
C18   C22   S    
C73   H55   S    
C2    C8    S    
C24   C28   S    
C20   C22   S    
C75   C76   A    
C3    C5    S    
C53   C54   S    
C49   H17   S    
C61   H40   S    
C62   H42   S    
C15   C17   S    
O14   C80   S    
C59   C60   S    
C42   C43   A    
C63   C64   S    
C28   C30   A    
C66   C67   A    
C68   H51   S    
C88   H86   S    
C38   H3    S    
C29   C31   A    
C2    O4    A    
C72   C73   A    
C30   C32   A    
C11   C13   S    
C86   H80   S    
C64   H46   S    
C50   H18   S    
C37   H4    S    
C36   C38   A    
C55   H25   S    
C33   C35   A    
C59   H36   S    
C18   O16   S    
C36   H8    S    
C60   C61   S    
C34   C36   A    
C57   C58   S    
C1    O3    A    
C9    O14   S    
C83   H74   S    
C32   H9    S    
C61   H41   S    
C65   C70   A    
C7    C13   T    
C77   H59   S    
C81   C82   S    
C24   O6    A    
C43   C44   A    
C22   C26   S    
C58   H32   S    
C64   H47   S    
C15   C41   S    
C73   C74   A    
C30   H2    S    
C54   H23   S    
C63   H45   S    
C6    O12   S    
C19   O10   S    
C43   H12   S    
C19   C21   S    
