data_mof_unit_45292.cif
_audit_creation_date              2012-12-11T15:27:05-0500
_audit_creation_method            fapswitch 2.2
_symmetry_space_group_name_H-M    P1
_symmetry_Int_Tables_number       1
_space_group_crystal_system       triclinic
_cell_length_a                    8.490827
_cell_length_b                    15.138281
_cell_length_c                    19.083731
_cell_angle_alpha                 96.700931
_cell_angle_beta                  94.420525
_cell_angle_gamma                 97.673211
_cell_volume                      2403.6637165

loop_
_atom_site_label
_atom_site_type_symbol
_atom_type_description
_atom_site_fract_x
_atom_site_fract_y
_atom_site_fract_z
_atom_type_partial_charge
Ba1   Ba    Ba6+2 0.161750 0.544670 0.467760 1.810939
Ba2   Ba    Ba6+2 0.648430 0.455320 0.532180 1.826122
C1    C     C_3   0.345925 0.767051 0.210734 0.179830
C2    C     C_R   0.884311 0.790199 0.516299 0.030857
C3    C     C_R   0.068251 0.231930 0.517835 0.135939
C4    C     C_3   0.871596 0.776361 0.278244 0.403717
C5    C     C_R   0.163664 0.171074 0.541376 -0.007167
C6    C     C_R   0.103876 0.078624 0.535844 -0.134867
C7    C     C_R   0.946730 0.043841 0.501438 -0.056614
C8    C     C_R   0.857076 0.107651 0.471282 -0.159175
C9    C     C_R   0.875203 0.948836 0.494249 0.032093
C10   C     C_R   0.711070 0.923254 0.466672 -0.074394
C11   C     C_R   0.627611 0.989168 0.440497 0.331932
C12   C     C_3   0.387946 0.740891 0.284158 0.331905
C13   C     C_R   0.708540 0.074141 0.432651 0.374661
C14   C     C_R   0.959091 0.877516 0.513338 0.018146
C15   C     C_R   0.724210 0.768273 0.491219 -0.338782
C16   C     C_3   0.928082 0.871748 0.262138 0.580124
C17   C     C_R   0.919534 0.202708 0.479522 0.008912
C18   C     C_R   0.598947 0.547843 0.300287 0.179426
C19   C     C_R   0.454042 0.493522 0.275249 -0.014601
C20   C     C_R   0.405692 0.481217 0.201152 -0.156432
C21   C     C_R   0.512004 0.516023 0.153114 0.054261
C22   C     C_R   0.666042 0.557688 0.179766 -0.155672
C23   C     C_3   0.511711 0.747764 0.666345 0.517633
C24   C     C_R   0.711473 0.571577 0.252611 -0.059523
C25   C     C_R   0.466250 0.583544 0.040671 -0.101994
C26   C     C_R   0.402775 0.579214 0.969800 -0.049354
C27   C     C_R   0.335133 0.494509 0.931056 0.055829
C28   C     C_3   0.730879 0.339184 0.315323 0.503872
C29   C     C_R   0.336634 0.416436 0.965890 -0.056618
C30   C     C_R   0.414099 0.422202 0.034741 -0.061839
C31   C     C_R   0.467112 0.506502 0.074625 0.128574
C32   C     C_R   0.128714 0.446091 0.824952 -0.005101
C33   C     C_R   0.087776 0.429950 0.751377 0.095529
C34   C     C_3   0.448283 0.833256 0.699101 -0.266689
C35   C     C_R   0.350842 0.501082 0.732224 0.016111
C36   C     C_R   0.394475 0.513582 0.805530 -0.025434
C37   C     C_R   0.284692 0.484749 0.852897 0.053488
C38   C     C_R   0.201216 0.454236 0.705413 -0.171085
C39   C     C_3   0.696331 0.312869 0.234436 -0.208963
C40   C     C_3   0.000543 0.662870 0.692354 0.581737
C41   C     C_3   0.969884 0.690590 0.771511 0.458464
C42   C     C_3   0.225505 0.260386 0.347185 0.567230
C43   C     C_3   0.164193 0.171168 0.296622 0.524208
C44   C     C_2   0.845777 0.325567 0.196521 0.658971
C45   C     C_3   0.794418 0.211423 0.673415 0.283245
C46   C     C_2   0.609735 0.218509 0.215612 0.576968
C47   C     C_2   0.065050 0.781070 0.800271 0.754094
C48   C     C_2   0.027982 0.118949 0.325556 0.592181
C49   C     C_2   0.477260 0.833925 0.190835 0.529864
C50   C     C_2   0.684039 0.765349 0.657177 0.591291
C51   C     C_2   0.513004 0.861471 0.775279 0.626096
C52   C     C_2   0.886350 0.064958 0.698693 0.506441
C53   C     C_2   0.449571 0.307083 0.750092 0.657247
C54   C     C_2   0.301349 0.055168 0.748481 0.441449
C55   C     C_2   0.204926 0.023799 0.573434 0.505082
C56   C     C_3   0.744967 0.113442 0.688748 0.581206
C57   C     C_2   0.406157 0.666220 0.940633 0.479260
C58   C     C_2   0.244696 0.433002 0.174784 0.545483
C59   C     C_2   0.265533 0.326448 0.930893 0.535499
C60   C     C_2   0.447167 0.339337 0.063227 0.465492
C61   C     C_2   0.083097 0.910670 0.306048 0.505801
C62   C     C_3   0.345992 0.219017 0.722265 0.520612
C63   C     C_3   0.326118 0.153119 0.781342 0.602103
C64   C     C_R   0.637884 0.831161 0.463494 0.031875
H1    H     H_    0.292461 0.687004 0.293507 0.115238
H2    H     H_    0.893389 0.213422 0.638701 -0.113423
H3    H     H_    0.849121 0.778676 0.335197 -0.157540
H4    H     H_    0.665477 0.700863 0.493483 0.096073
H5    H     H_    0.084734 0.883787 0.523534 0.109398
H6    H     H_    0.511774 0.548362 0.825820 0.073687
H7    H     H_    0.513558 0.648208 0.070373 0.146522
H8    H     H_    0.758163 0.750944 0.244694 0.020460
H9    H     H_    0.038049 0.430340 0.860157 0.136666
H10   H     H_    0.751614 0.578819 0.143582 0.116563
H11   H     H_    0.167040 0.445436 0.648982 0.118425
H12   H     H_    0.618442 0.359741 0.215194 0.009999
H13   H     H_    0.615163 0.344330 0.337590 0.020819
H14   H     H_    0.919408 0.390542 0.204224 0.046858
H15   H     H_    0.655963 0.162827 0.236743 0.113084
H16   H     H_    0.220533 0.665363 0.721180 0.296461
H17   H     H_    0.194129 0.789096 0.805660 -0.096148
H18   H     H_    0.988723 0.641757 0.861763 0.324459
H19   H     H_    0.753425 0.635980 0.784431 0.323807
H20   H     H_    0.283636 0.184785 0.419190 0.250639
H21   H     H_    0.254011 0.703914 0.119375 0.332515
H22   H     H_    0.204813 0.205758 0.203145 0.361387
H23   H     H_    0.901437 0.611337 0.668093 0.078392
H24   H     H_    0.050167 0.087838 0.372746 -0.087397
H25   H     H_    0.385949 0.152999 0.288348 0.325796
H26   H     H_    0.503886 0.900222 0.221190 0.061502
H27   H     H_    0.731642 0.710526 0.630043 -0.104872
H28   H     H_    0.453094 0.767626 0.570185 0.260716
H29   H     H_    0.488661 0.816515 0.814670 0.049951
H30   H     H_    0.791975 0.927351 0.327099 0.268769
H31   H     H_    0.690040 0.070934 0.588103 0.279337
H32   H     H_    0.970872 0.086587 0.744244 0.081107
H33   H     H_    0.743776 0.138438 0.791920 0.348751
H34   H     H_    0.122021 0.292775 0.363775 -0.059961
H35   H     H_    0.131298 0.181436 0.679148 0.240420
H36   H     H_    0.490587 0.351256 0.712835 -0.031234
H37   H     H_    0.184427 0.133506 0.856633 0.338044
H38   H     H_    0.446357 0.124583 0.866043 0.324303
H39   H     H_    0.381545 0.031712 0.711405 0.118844
H40   H     H_    0.419073 0.027531 0.421622 0.351970
H41   H     H_    0.185145 0.339265 0.495418 0.317049
H42   H     H_    0.163200 0.992013 0.617616 0.030546
H43   H     H_    0.580719 0.080789 0.345289 0.321254
H44   H     H_    0.480055 0.725852 0.968662 0.055032
H45   H     H_    0.504091 0.714782 0.285324 -0.097202
H46   H     H_    0.195455 0.374777 0.197971 0.011950
H47   H     H_    0.341397 0.274839 0.922929 0.089778
H48   H     H_    0.351401 0.284754 0.065144 0.057946
H49   H     H_    0.687356 0.637448 0.377209 0.259887
H50   H     H_    0.186106 0.936762 0.280529 0.054474
H51   H     H_    0.972006 0.930194 0.178597 0.350145
H52   H     H_    0.795398 0.456923 0.369050 0.326987
H53   H     H_    0.478479 0.889233 0.667265 0.133872
H54   H     H_    0.316246 0.820113 0.696773 0.082928
H55   H     H_    0.235941 0.799241 0.211992 0.059508
H56   H     H_    0.692643 0.232640 0.643433 0.094970
O1    O     O_2   0.164990 0.721870 0.541490 -0.405983
O2    O     O_2   0.761872 0.434903 0.749846 -0.481253
O3    O     O_3   0.836486 0.271392 0.736437 -0.581248
O4    O     O_3   0.893010 0.608480 0.539150 -0.493468
O5    O     O_3   0.426680 0.454510 0.415380 -0.412670
O6    O     O_2   0.638220 0.542340 0.670930 -0.510857
O7    O     O_3   0.489829 0.681833 0.712576 -0.648023
O8    O     O_2   0.488947 0.175864 0.533594 -0.431949
O9    O     O_3   0.419024 0.178469 0.664375 -0.656068
O10   O     O_3   0.389100 0.667490 0.413860 -0.472559
O11   O     O_2   0.304454 0.822523 0.462323 -0.381238
O12   O     O_3   0.321282 0.315092 0.308600 -0.671426
O13   O     O_3   0.016381 0.737744 0.654824 -0.645068
O14   O     O_3   0.395465 0.816018 0.335639 -0.607394
O15   O     O_2   0.172070 0.457600 0.329050 -0.453664
O16   O     O_3   0.964370 0.622050 0.377340 -0.456523
O17   O     O_2   0.036728 0.555630 0.251008 -0.430154
O18   O     O_2   0.881976 0.265696 0.154840 -0.484762
O19   O     O_2   0.488877 0.203313 0.174720 -0.571100
O20   O     O_3   0.139074 0.624320 0.689076 -0.759383
O21   O     O_2   0.998466 0.845494 0.818655 -0.457117
O22   O     O_3   0.017740 0.625854 0.812879 -0.762689
O23   O     O_3   0.987312 0.720973 0.262010 -0.615395
O24   O     O_3   0.806901 0.695848 0.776521 -0.734281
O25   O     O_3   0.320119 0.245505 0.407194 -0.728313
O26   O     O_3   0.317561 0.689215 0.161255 -0.711610
O27   O     O_3   0.110508 0.190841 0.229304 -0.655297
O28   O     O_2   0.894062 0.107514 0.294976 -0.513815
O29   O     O_3   0.282857 0.114825 0.289898 -0.762619
O30   O     O_2   0.553204 0.815298 0.140722 -0.528909
O31   O     O_2   0.767194 0.836884 0.678578 -0.501592
O32   O     O_3   0.430901 0.718419 0.599664 -0.693152
O33   O     O_2   0.593245 0.934801 0.793395 -0.485620
O34   O     O_2   0.645300 0.278070 0.458480 -0.388727
O35   O     O_3   0.809448 0.926141 0.276257 -0.706690
O36   O     O_3   0.638872 0.065660 0.632671 -0.630909
O37   O     O_2   0.902540 0.999230 0.658147 -0.554738
O38   O     O_3   0.666134 0.113430 0.750399 -0.636659
O39   O     O_3   0.194998 0.239255 0.699894 -0.789611
O40   O     O_2   0.488305 0.330867 0.813056 -0.578996
O41   O     O_3   0.193564 0.171590 0.817717 -0.707512
O42   O     O_3   0.462756 0.166934 0.830339 -0.671855
O43   O     O_2   0.197322 0.000339 0.765693 -0.557459
O44   O     O_3   0.465600 0.970778 0.421187 -0.645150
O45   O     O_3   0.917280 0.391520 0.460790 -0.450285
O46   O     O_3   0.120804 0.322174 0.534152 -0.713127
O47   O     O_2   0.332724 0.009385 0.552970 -0.509568
O48   O     O_3   0.642923 0.123004 0.384451 -0.691436
O49   O     O_2   0.324351 0.673805 0.886937 -0.590981
O50   O     O_2   0.163843 0.458987 0.127757 -0.537340
O51   O     O_2   0.121234 0.306984 0.918276 -0.518973
O52   O     O_2   0.584530 0.329802 0.080211 -0.524481
O53   O     O_3   0.629881 0.575469 0.371738 -0.722041
O54   O     O_2   0.093770 0.914468 0.370474 -0.584792
O55   O     O_3   0.951989 0.867435 0.189826 -0.694106
O56   O     O_3   0.421200 0.332510 0.586090 -0.464635
O57   O     O_3   0.832577 0.421354 0.328428 -0.745140
O58   O     O_3   0.803796 0.272905 0.345054 -0.603291
O59   O     O_3   0.383620 0.545480 0.584560 -0.389222
O60   O     O_3   0.845920 0.377940 0.622610 -0.486464
P1    P     P_3+3 0.990670 0.707470 0.561860 1.075027
P2    P     P_3+3 0.340140 0.430100 0.338890 1.047159
P3    P     P_3+3 0.922285 0.615254 0.285419 1.023363
P4    P     P_3+3 0.819620 0.292520 0.438080 1.111740
P5    P     P_3+3 0.883570 0.380855 0.714604 1.049234
P6    P     P_3+3 0.433612 0.784190 0.420143 1.062922
P7    P     P_3+3 0.465291 0.568185 0.673976 1.055446
P8    P     P_3+3 0.370801 0.215946 0.581659 1.047488

loop_
_geom_bond_atom_site_label_1
_geom_bond_atom_site_label_2
_ccdc_geom_bond_type
C19   P2    S    
C35   P7    S    
C64   P6    S    
C51   H29   S    
H22   O27   S    
C29   C59   S    
O13   P1    S    
H16   O20   S    
Ba1   O10   S    
C23   O7    S    
H20   O25   S    
O10   P6    S    
Ba2   P4    S    
Ba1   P1    S    
C61   O54   D    
O15   P2    D    
C25   C31   A    
C10   C11   A    
C53   H36   S    
C15   C64   A    
C12   O14   S    
H40   O44   S    
C19   C20   A    
C26   C27   A    
C22   C24   A    
O6    P7    D    
C35   C38   A    
C8    C13   A    
C17   P4    S    
C20   C58   S    
C36   C37   A    
O56   P8    S    
C24   P3    S    
C16   C61   S    
C26   C57   S    
C18   O53   S    
Ba1   O45   S    
C12   H1    S    
C54   C63   S    
C60   O52   D    
C47   O21   D    
C42   O25   S    
C46   H15   S    
C63   O42   S    
C32   C33   A    
Ba2   O60   S    
C3    O46   S    
C34   H53   S    
H49   O53   S    
C34   C51   S    
O11   P6    D    
C52   O37   D    
O59   P7    S    
C48   H24   S    
C16   O55   S    
C6    C7    A    
C21   C31   S    
O7    P7    S    
C54   O43   D    
C40   O20   S    
O1    P1    D    
C39   C44   S    
C5    P8    S    
C45   O3    S    
C7    C8    A    
C4    H3    S    
H28   O32   S    
C32   H9    S    
Ba2   O5    S    
H30   O35   S    
C15   H4    S    
H33   O38   S    
O14   P6    S    
O5    P2    S    
C27   C37   S    
O4    P1    S    
C14   H5    S    
C57   O49   D    
Ba1   P2    S    
H51   O55   S    
C4    H8    S    
C55   O47   D    
C42   O12   S    
C12   H45   S    
C4    C16   S    
C36   H6    S    
H25   O29   S    
H21   O26   S    
C32   C37   A    
C58   O50   D    
C5    C6    A    
O16   P3    S    
C59   O51   D    
Ba1   O4    S    
C56   O36   S    
C39   H12   S    
C3    C5    A    
C4    O23   S    
Ba1   O59   S    
C22   H10   S    
C45   H56   S    
C50   O31   D    
O45   P4    S    
C10   C64   A    
C13   O48   S    
O23   P3    S    
C40   O13   S    
C43   O29   S    
Ba2   O59   S    
C2    C14   A    
Ba1   O1    S    
C35   C36   A    
C58   H46   S    
C49   H26   S    
C9    C14   A    
C48   O28   D    
C29   C30   A    
C62   O9    S    
C8    C17   A    
C28   O57   S    
C53   C62   S    
C63   O41   S    
C41   O22   S    
C50   H27   S    
C28   C39   S    
C28   O58   S    
H19   O24   S    
C7    C9    A    
C1    C12   S    
O58   P4    S    
C61   H50   S    
Ba2   O4    S    
C49   O30   D    
C51   O33   D    
C11   C13   A    
C59   H47   S    
C40   C41   S    
C2    C15   A    
C45   H2    S    
Ba1   O15   S    
H43   O48   S    
C44   O18   D    
C52   C56   S    
O9    P8    S    
H41   O46   S    
Ba2   O34   S    
C21   C22   A    
C23   O32   S    
C38   H11   S    
C41   C47   S    
C42   C43   S    
Ba1   O5    S    
C53   O40   D    
O12   P2    S    
C62   O39   S    
H38   O42   S    
O2    P5    D    
C9    C10   A    
C60   H48   S    
C3    C17   A    
O34   P4    D    
H37   O41   S    
O3    P5    S    
C40   H23   S    
H31   O36   S    
C47   H17   S    
H35   O39   S    
C33   C38   A    
C23   C50   S    
C30   C60   S    
C27   C29   A    
C16   O35   S    
O17   P3    D    
H52   O57   S    
C45   C56   S    
C44   H14   S    
C42   H34   S    
C28   H13   S    
C11   O44   S    
C18   C24   A    
C43   C48   S    
Ba1   Ba2   S    
C62   C63   S    
C39   C46   S    
C1    C49   S    
C46   O19   D    
C43   O27   S    
O60   P5    S    
C2    P1    S    
C30   C31   A    
C34   H54   S    
C54   H39   S    
C23   C34   S    
C1    H55   S    
C1    O26   S    
C55   H42   S    
C18   C19   A    
C33   P5    S    
C25   C26   A    
C41   O24   S    
H18   O22   S    
C20   C21   A    
C52   H32   S    
C56   O38   S    
C57   H44   S    
Ba2   O56   S    
C25   H7    S    
Ba2   O45   S    
C6    C55   S    
Ba1   O16   S    
O8    P8    D    
Ba2   O6    S    
