data_mof_unit_30486.cif
_audit_creation_date              2012-12-11T17:02:19-0500
_audit_creation_method            fapswitch 2.2
_symmetry_space_group_name_H-M    P1
_symmetry_Int_Tables_number       1
_space_group_crystal_system       triclinic
_cell_length_a                    21.626353
_cell_length_b                    7.128771
_cell_length_c                    14.838984
_cell_angle_alpha                 89.934954
_cell_angle_beta                  106.210426
_cell_angle_gamma                 89.940042
_cell_volume                      2196.75946444

loop_
_atom_site_label
_atom_site_type_symbol
_atom_type_description
_atom_site_fract_x
_atom_site_fract_y
_atom_site_fract_z
_atom_type_partial_charge
O1    O     O_R   0.585850 0.505770 0.002130 -0.531282
O2    O     O_R   0.414150 0.005770 0.997870 -0.530048
O3    O     O_R   0.467530 0.173560 0.861970 -0.530528
O4    O     O_R   0.532470 0.673560 0.138030 -0.530442
C1    C     C_R   0.455464 0.344273 0.825346 0.811535
C2    C     C_R   0.544929 0.844050 0.174705 0.809480
O5    O     O_R   0.588690 0.175900 0.993250 -0.509309
O6    O     O_R   0.411310 0.675900 0.006750 -0.507174
O7    O     O_R   0.536170 0.007950 0.130090 -0.519047
O8    O     O_R   0.463830 0.507950 0.869910 -0.521341
C3    C     C_R   0.615136 0.344584 0.998382 0.782122
C4    C     C_R   0.384922 0.844714 0.001928 0.791046
O9    O     O_3   0.482630 0.339970 0.044740 -0.353621
O10   O     O_3   0.517370 0.839970 0.955260 -0.357402
V1    V     V_3+5 0.503220 0.064200 0.991700 1.704009
V2    V     V_3+5 0.496780 0.564200 0.008300 1.702284
C5    C     C_R   0.291112 0.015151 0.033951 0.069151
C6    C     C_R   0.708968 0.515929 0.967369 0.062994
C7    C     C_R   0.316134 0.854578 0.002060 -0.137079
C8    C     C_R   0.684004 0.354597 0.998709 -0.127950
C9    C     C_R   0.271351 0.721241 0.953389 -0.126404
C10   C     C_R   0.728873 0.220751 0.047259 -0.122680
H1    H     H_    0.287012 0.616166 0.913019 0.200129
H2    H     H_    0.713302 0.115221 0.087629 0.190144
C11   C     C_R   0.205221 0.737508 0.946619 0.375960
C12   C     C_R   0.794985 0.236843 0.053784 0.392933
C13   C     C_R   0.183082 0.879133 0.995682 -0.119068
C14   C     C_R   0.817047 0.379578 0.005158 -0.095803
C15   C     C_R   0.225096 0.028280 0.029087 -0.036887
C16   C     C_R   0.774994 0.529385 0.972449 -0.090368
C17   C     C_3   0.218896 0.215998 0.981830 0.179717
C18   C     C_3   0.780950 0.715954 0.020618 0.188297
C19   C     C_3   0.291022 0.208138 0.994085 0.416142
C20   C     C_3   0.708735 0.708356 0.007563 0.422109
H3    H     H_    0.203519 0.327539 0.023222 0.150734
H4    H     H_    0.796582 0.828638 0.980055 0.166442
C21   C     C_R   0.926487 0.886542 0.723478 -0.173243
C22   C     C_R   0.073908 0.384937 0.276673 -0.161844
C23   C     C_R   0.571621 0.845609 0.277462 -0.161359
C24   C     C_R   0.428445 0.348290 0.722861 -0.174901
C25   C     C_R   0.941600 0.907663 0.568229 0.465692
C26   C     C_R   0.061472 0.432721 0.431955 0.461076
C27   C     C_R   0.966687 0.897335 0.665332 -0.194039
C28   C     C_R   0.037067 0.442091 0.334760 -0.190473
C29   C     C_R   0.859569 0.884978 0.685052 0.302966
C30   C     C_R   0.137571 0.325508 0.315581 0.312959
C31   C     C_R   0.832687 0.863494 0.586318 -0.041198
C32   C     C_R   0.168271 0.358973 0.412444 -0.036950
C33   C     C_R   0.873880 0.886286 0.526116 -0.058464
C34   C     C_R   0.128204 0.392718 0.473316 -0.054363
C35   C     C_R   0.765854 0.824006 0.545835 0.058261
C36   C     C_R   0.236931 0.356567 0.450886 0.051109
C37   C     C_R   0.737300 0.853629 0.448800 0.017447
C38   C     C_R   0.264391 0.362046 0.549495 0.015876
C39   C     C_R   0.778526 0.869976 0.391140 -0.030976
C40   C     C_R   0.222998 0.354142 0.607104 -0.028206
C41   C     C_R   0.845102 0.883565 0.427209 0.210620
C42   C     C_R   0.156842 0.378486 0.571897 0.217570
C43   C     C_R   0.728645 0.734939 0.597500 -0.084919
C44   C     C_R   0.279358 0.357906 0.393921 -0.090452
C45   C     C_R   0.662848 0.701376 0.559419 0.217198
C46   C     C_R   0.344923 0.317874 0.430850 0.215155
C47   C     C_R   0.632504 0.755410 0.466218 0.019491
C48   C     C_R   0.371627 0.313008 0.528697 0.008270
C49   C     C_R   0.668972 0.839947 0.410653 -0.006823
C50   C     C_R   0.332759 0.360608 0.588003 -0.003225
C51   C     C_R   0.566453 0.720596 0.426775 -0.149591
C52   C     C_R   0.436975 0.268668 0.568293 -0.157488
C53   C     C_R   0.536880 0.758887 0.332715 0.324538
C54   C     C_R   0.464269 0.276012 0.665039 0.321364
C55   C     C_R   0.635434 0.903903 0.318789 0.258101
C56   C     C_R   0.364278 0.405377 0.683009 0.258641
H5    H     H_    0.018304 0.907930 0.696402 0.196416
H6    H     H_    0.987332 0.483354 0.303903 0.193919
H7    H     H_    0.760083 0.856188 0.315949 0.204858
H8    H     H_    0.241557 0.326523 0.681394 0.201322
H9    H     H_    0.751358 0.678183 0.666264 0.174241
H10   H     H_    0.262511 0.390571 0.320225 0.184225
H11   H     H_    0.537771 0.655934 0.467551 0.186083
H12   H     H_    0.466919 0.224269 0.524650 0.197663
O11   O     O_R   0.036080 0.231270 0.130120 -0.511719
O12   O     O_R   0.963920 0.731270 0.869880 -0.539764
O13   O     O_R   0.911300 0.558970 0.006750 -0.531205
O14   O     O_R   0.088700 0.058970 0.993250 -0.521769
C57   C     C_R   0.885386 0.390181 0.003603 0.777818
C58   C     C_R   0.114654 0.890050 0.996673 0.800195
O15   O     O_R   0.032450 0.561140 0.138040 -0.545378
O16   O     O_R   0.967550 0.061140 0.861960 -0.530852
O17   O     O_R   0.085870 0.728910 0.002130 -0.537007
O18   O     O_R   0.914130 0.228910 0.997870 -0.524679
C59   C     C_R   0.045517 0.392438 0.174785 0.785282
C60   C     C_R   0.955005 0.893011 0.825221 0.798655
O19   O     O_3   0.017320 0.394650 0.955270 -0.369595
O20   O     O_3   0.982680 0.894650 0.044730 -0.361139
V3    V     V_3+5 0.996780 0.670490 0.008300 1.632337
V4    V     V_3+5 0.003220 0.170490 0.991700 1.671062
N1    N     N_3   0.626796 0.610618 0.615255 -0.605972
H13   H     H_    0.597042 0.712092 0.632444 0.271782
H14   H     H_    0.657340 0.562635 0.678836 0.275990
N2    N     N_3   0.384766 0.287426 0.369138 -0.600293
H15   H     H_    0.416911 0.399500 0.378026 0.278507
H16   H     H_    0.357196 0.289602 0.298972 0.297645
Cl1   Cl    Cl    0.999803 0.955793 0.508261 -0.610796
Cl2   Cl    Cl    0.003919 0.477564 0.493286 -0.619368
Cl3   Cl    Cl    0.812284 0.951539 0.760598 -0.657050
Cl4   Cl    Cl    0.171331 0.175646 0.245994 -0.673593
Cl5   Cl    Cl    0.149395 0.622991 0.854673 -0.563455
Cl6   Cl    Cl    0.850988 0.119495 0.144719 -0.558862
Cl7   Cl    Cl    0.169508 0.197591 0.861807 -0.581073
Cl8   Cl    Cl    0.829769 0.694418 0.140867 -0.585186
Cl9   Cl    Cl    0.336960 0.362771 0.081866 -0.605284
Cl10  Cl    Cl    0.663124 0.863662 0.919449 -0.569985
N3    N     N_3   0.310613 0.214538 0.906762 -0.608892
H17   H     H_    0.292175 0.100024 0.863672 0.248445
H18   H     H_    0.290764 0.332891 0.868633 0.282957
N4    N     N_3   0.688506 0.713724 0.094434 -0.616447
H19   H     H_    0.707216 0.599573 0.137875 0.250390
H20   H     H_    0.707135 0.833059 0.132580 0.273218
N5    N     N_3   0.880840 0.890518 0.359357 -0.525346
H21   H     H_    0.913947 0.780129 0.370841 0.313742
H22   H     H_    0.902917 0.021371 0.361872 0.319312
N6    N     N_3   0.121172 0.380315 0.639889 -0.525885
H23   H     H_    0.086218 0.275086 0.624549 0.313966
H24   H     H_    0.101283 0.513240 0.641916 0.320583
Cl11  Cl    Cl    0.666446 0.083930 0.261198 -0.684389
Cl12  Cl    Cl    0.330453 0.569336 0.745538 -0.688945
Cl13  Cl    Cl    0.454739 0.703383 0.286042 -0.619817
Cl14  Cl    Cl    0.545340 0.207161 0.710936 -0.583484

loop_
_geom_bond_atom_site_label_1
_geom_bond_atom_site_label_2
_ccdc_geom_bond_type
C52   H12   S    
O16   V4    S    
C27   H5    S    
C40   H8    S    
O15   C59   A    
C13   C15   A    
C5    C15   A    
O1    C3    A    
O2    C4    A    
C43   H9    S    
C2    O7    A    
C47   C49   A    
N1    H13   S    
C33   C41   A    
C31   C33   A    
O5    C3    A    
C44   H10   S    
C18   Cl8   S    
C18   H4    S    
C7    C9    A    
O14   C58   A    
C20   N4    S    
O12   C60   A    
N4    H19   S    
C44   C46   A    
O14   V4    S    
C29   C31   A    
C45   C47   A    
C46   C48   A    
C36   C44   A    
C50   C56   A    
O16   C60   A    
C36   C38   A    
O15   V3    S    
C17   C19   S    
C6    C16   A    
C40   C42   A    
C37   C49   A    
C6    C8    A    
C41   N5    S    
C39   H7    S    
C32   C34   A    
O6    V2    S    
C25   C27   A    
C5    C19   S    
C25   C33   A    
O4    V2    S    
N1    H14   S    
C29   Cl3   S    
C38   C40   A    
C37   C39   A    
C23   C53   A    
C57   O18   A    
C47   C51   A    
C3    C8    S    
C43   C45   A    
C42   N6    S    
C34   C42   A    
C20   Cl10  S    
C51   H11   S    
O4    C2    A    
C12   Cl6   S    
O11   V4    S    
C31   C35   A    
O5    V1    S    
C49   C55   A    
C22   C59   S    
C25   Cl1   S    
C56   Cl12  S    
C51   C53   A    
C18   C20   S    
O17   V3    S    
C13   C58   S    
O20   V4    S    
C22   C28   A    
O6    C4    A    
O13   V3    S    
N2    H16   S    
C17   Cl7   S    
O1    V2    S    
C28   H6    S    
O2    V1    S    
C6    C20   S    
N5    H22   S    
C24   C54   A    
C26   C34   A    
C46   N2    S    
O13   C57   A    
C8    C10   A    
O19   V4    S    
C9    H1    S    
C10   H2    S    
C21   C27   A    
C1    C24   S    
C35   C43   A    
C21   C29   A    
C48   C52   A    
O3    V1    S    
C11   Cl5   S    
N3    H17   S    
C54   Cl14  S    
C9    C11   A    
O12   V3    S    
C24   C56   A    
C21   C60   S    
O10   V1    S    
C12   C14   A    
C45   N1    S    
O3    C1    A    
C58   O17   A    
C26   Cl2   S    
N5    H21   S    
O18   V4    S    
C38   C50   A    
C11   C13   A    
C19   N3    S    
C19   Cl9   S    
C39   C41   A    
O7    V1    S    
C26   C28   A    
C1    O8    A    
C15   C17   S    
O8    V2    S    
C16   C18   S    
O19   V3    S    
C30   Cl4   S    
C4    C7    S    
C14   C16   A    
N2    H15   S    
C5    C7    A    
N4    H20   S    
C17   H3    S    
O20   V3    S    
C22   C30   A    
O11   C59   A    
C30   C32   A    
C32   C36   A    
C53   Cl13  S    
C52   C54   A    
C10   C12   A    
O9    V2    S    
C14   C57   S    
C23   C55   A    
C2    C23   S    
C55   Cl11  S    
C35   C37   A    
N6    H23   S    
N6    H24   S    
C48   C50   A    
N3    H18   S    
