data_mof_unit_17809.cif
_audit_creation_date              2012-12-11T16:13:52-0500
_audit_creation_method            fapswitch 2.2
_symmetry_space_group_name_H-M    P1
_symmetry_Int_Tables_number       1
_space_group_crystal_system       monoclinic
_cell_length_a                    26.251334
_cell_length_b                    7.353295
_cell_length_c                    23.673916
_cell_angle_alpha                 90.0
_cell_angle_beta                  101.417243
_cell_angle_gamma                 90.0
_cell_volume                      4479.43591075

loop_
_atom_site_label
_atom_site_type_symbol
_atom_type_description
_atom_site_fract_x
_atom_site_fract_y
_atom_site_fract_z
_atom_type_partial_charge
O1    O     O_R   0.192370 0.384760 0.193350 -0.526353
O2    O     O_R   0.807630 0.615240 0.806650 -0.526353
O3    O     O_R   0.307630 0.884760 0.306650 -0.526353
O4    O     O_R   0.692370 0.115240 0.693350 -0.526353
O5    O     O_R   0.296630 0.711620 0.196480 -0.513714
O6    O     O_R   0.703370 0.288380 0.803520 -0.513714
O7    O     O_R   0.203370 0.211620 0.303520 -0.513714
O8    O     O_R   0.796630 0.788380 0.696480 -0.513714
C1    C     C_R   0.311729 0.546704 0.183235 0.745734
C2    C     C_R   0.688271 0.453296 0.816765 0.745734
C3    C     C_R   0.188271 0.046704 0.316765 0.745734
C4    C     C_R   0.811729 0.953296 0.683235 0.745733
O9    O     O_R   0.192080 0.714290 0.186600 -0.531241
O10   O     O_R   0.807920 0.285710 0.813400 -0.531241
O11   O     O_R   0.307920 0.214290 0.313400 -0.531241
O12   O     O_R   0.692080 0.785710 0.686600 -0.531241
O13   O     O_R   0.202340 0.887460 0.296690 -0.541892
O14   O     O_R   0.797660 0.112540 0.703310 -0.541892
O15   O     O_R   0.297660 0.387460 0.203310 -0.541892
O16   O     O_R   0.702340 0.612540 0.796690 -0.541892
C5    C     C_R   0.173971 0.546295 0.171584 0.697036
C6    C     C_R   0.826029 0.453705 0.828416 0.697036
C7    C     C_R   0.326029 0.046295 0.328416 0.697036
C8    C     C_R   0.673971 0.953705 0.671584 0.697036
O17   O     O_3   0.253490 0.552180 0.286130 -0.380466
O18   O     O_3   0.746510 0.447820 0.713870 -0.380466
O19   O     O_3   0.246510 0.052180 0.213870 -0.380466
O20   O     O_3   0.753490 0.947820 0.786130 -0.380466
V1    V     V_3+5 0.249350 0.825920 0.243300 1.466205
V2    V     V_3+5 0.750650 0.174080 0.756700 1.466206
V3    V     V_3+5 0.250650 0.325920 0.256700 1.466205
V4    V     V_3+5 0.749350 0.674080 0.743300 1.466205
C9    C     C_3   0.538072 0.926660 0.477683 0.156119
C10   C     C_3   0.461927 0.073340 0.522316 0.156119
C11   C     C_3   0.961928 0.426660 0.022316 0.156120
C12   C     C_3   0.038072 0.573340 0.977683 0.156120
C13   C     C_3   0.510688 0.107943 0.458523 0.177753
C14   C     C_3   0.489312 0.892057 0.541477 0.177753
C15   C     C_3   0.989312 0.607943 0.041477 0.177754
C16   C     C_3   0.010688 0.392057 0.958523 0.177753
C17   C     C_1   0.371696 0.038878 0.374244 -0.140165
C18   C     C_1   0.628304 0.961122 0.625756 -0.140164
C19   C     C_1   0.128304 0.538878 0.125756 -0.140164
C20   C     C_1   0.871696 0.461122 0.874244 -0.140165
C21   C     C_3   0.485106 0.834271 0.477812 0.386233
C22   C     C_3   0.514894 0.165729 0.522188 0.386233
C23   C     C_3   0.014894 0.334271 0.022188 0.386233
C24   C     C_3   0.985105 0.665729 0.977812 0.386233
C25   C     C_3   0.457341 0.017582 0.458372 -0.163264
C26   C     C_3   0.542659 0.982418 0.541628 -0.163264
C27   C     C_3   0.042659 0.517582 0.041627 -0.163264
C28   C     C_3   0.957341 0.482418 0.958372 -0.163264
C29   C     C_1   0.410182 0.031529 0.412273 0.115208
C30   C     C_1   0.589818 0.968471 0.587726 0.115207
C31   C     C_1   0.089818 0.531529 0.087726 0.115207
C32   C     C_1   0.910182 0.468471 0.912273 0.115207
C33   C     C_R   0.857854 0.118841 0.614543 -0.285340
C34   C     C_R   0.142146 0.881159 0.385457 -0.285340
C35   C     C_R   0.642146 0.618841 0.885457 -0.285341
C36   C     C_R   0.357854 0.381159 0.114543 -0.285341
H1    H     H_    0.835243 0.236782 0.619737 0.169193
H2    H     H_    0.164757 0.763218 0.380263 0.169193
H3    H     H_    0.664756 0.736782 0.880262 0.169194
H4    H     H_    0.335243 0.263218 0.119737 0.169194
C37   C     C_R   0.892220 0.125061 0.576144 0.400672
C38   C     C_R   0.107780 0.874938 0.423856 0.400672
C39   C     C_R   0.607780 0.625062 0.923856 0.400671
C40   C     C_R   0.392220 0.374938 0.076144 0.400671
C41   C     C_R   0.924577 0.975826 0.571217 -0.179620
C42   C     C_R   0.075423 0.024173 0.428783 -0.179620
C43   C     C_R   0.575423 0.475826 0.928783 -0.179619
C44   C     C_R   0.424577 0.524173 0.071217 -0.179619
C45   C     C_R   0.916791 0.812823 0.599627 0.331303
C46   C     C_R   0.083209 0.187177 0.400373 0.331303
C47   C     C_R   0.583209 0.312823 0.900373 0.331302
C48   C     C_R   0.416791 0.687177 0.099627 0.331303
C49   C     C_R   0.874783 0.797876 0.628691 0.231059
C50   C     C_R   0.125217 0.202124 0.371309 0.231059
C51   C     C_R   0.625217 0.297876 0.871309 0.231058
C52   C     C_R   0.374783 0.702124 0.128691 0.231058
C53   C     C_R   0.849129 0.957228 0.642450 -0.191473
C54   C     C_R   0.150871 0.042772 0.357550 -0.191473
C55   C     C_R   0.650871 0.457228 0.857550 -0.191472
C56   C     C_R   0.349129 0.542772 0.142450 -0.191473
N1    N     N_R   0.968167 0.855192 0.495417 -0.171171
N2    N     N_R   0.031833 0.144808 0.504583 -0.171171
N3    N     N_R   0.531833 0.355192 0.004583 -0.171171
N4    N     N_R   0.468167 0.644808 0.995417 -0.171171
N5    N     N_R   0.003291 0.867003 0.461880 -0.170562
N6    N     N_R   0.996709 0.132997 0.538120 -0.170562
N7    N     N_R   0.496709 0.367003 0.038120 -0.170561
N8    N     N_R   0.503291 0.632997 0.961880 -0.170561
C57   C     C_R   0.035797 0.012220 0.465698 0.612477
C58   C     C_R   0.964203 0.987780 0.534302 0.612477
C59   C     C_R   0.464203 0.512220 0.034302 0.612476
C60   C     C_R   0.535797 0.487780 0.965698 0.612476
N9    N     N_2   0.519620 0.223172 0.411796 -0.442327
H5    H     H_    0.507631 0.164719 0.371808 0.257868
C61   C     C_3   0.570128 0.308588 0.419303 -0.393803
H6    H     H_    0.573319 0.383232 0.379398 0.179209
H7    H     H_    0.601595 0.205771 0.428059 0.161334
H8    H     H_    0.575239 0.408137 0.455074 0.272940
N10   N     N_2   0.480380 0.776827 0.588204 -0.442327
H9    H     H_    0.492369 0.835280 0.628192 0.257868
C62   C     C_3   0.429872 0.691412 0.580697 -0.393803
H10   H     H_    0.426681 0.616768 0.620602 0.179209
H11   H     H_    0.424761 0.591863 0.544926 0.272940
H12   H     H_    0.398404 0.794228 0.571940 0.161334
N11   N     N_2   0.980380 0.723172 0.088204 -0.442326
H13   H     H_    0.992369 0.664719 0.128192 0.257868
C63   C     C_3   0.929872 0.808587 0.080697 -0.393803
H14   H     H_    0.926681 0.883232 0.120602 0.179209
H15   H     H_    0.898404 0.705772 0.071940 0.161334
H16   H     H_    0.924761 0.908137 0.044926 0.272940
N12   N     N_2   0.019620 0.276828 0.911796 -0.442326
H17   H     H_    0.007631 0.335280 0.871808 0.257868
C64   C     C_3   0.070128 0.191412 0.919303 -0.393803
H18   H     H_    0.073319 0.116768 0.879398 0.179209
H19   H     H_    0.075239 0.091863 0.955074 0.272940
H20   H     H_    0.101595 0.294228 0.928059 0.161334
N13   N     N_2   0.580794 0.844805 0.456307 -0.476621
H21   H     H_    0.616148 0.905641 0.471896 0.256358
C65   C     C_3   0.571949 0.807469 0.395174 -0.468473
H22   H     H_    0.603643 0.719270 0.386004 0.193097
H23   H     H_    0.572052 0.935326 0.370417 0.184623
H24   H     H_    0.534536 0.735805 0.380498 0.246933
N14   N     N_2   0.419206 0.155195 0.543693 -0.476621
H25   H     H_    0.383852 0.094358 0.528104 0.256358
C66   C     C_3   0.428051 0.192531 0.604825 -0.468473
H26   H     H_    0.396356 0.280730 0.613996 0.193097
H27   H     H_    0.465464 0.264195 0.619502 0.246933
H28   H     H_    0.427948 0.064674 0.629583 0.184623
N15   N     N_2   0.919206 0.344805 0.043693 -0.476621
H29   H     H_    0.883852 0.405641 0.028104 0.256358
C67   C     C_3   0.928051 0.307469 0.104825 -0.468472
H30   H     H_    0.896357 0.219270 0.113996 0.193097
H31   H     H_    0.927948 0.435326 0.129583 0.184623
H32   H     H_    0.965464 0.235805 0.119502 0.246932
N16   N     N_2   0.080794 0.655195 0.956307 -0.476621
H33   H     H_    0.116148 0.594359 0.971896 0.256358
C68   C     C_3   0.071948 0.692531 0.895174 -0.468472
H34   H     H_    0.103643 0.780730 0.886004 0.193097
H35   H     H_    0.034536 0.764195 0.880498 0.246932
H36   H     H_    0.072052 0.564674 0.870417 0.184623
Cl1   Cl    Cl    0.536412 0.378923 0.554284 -0.595944
Cl2   Cl    Cl    0.463588 0.621077 0.445716 -0.595944
Cl3   Cl    Cl    0.963588 0.878923 0.945716 -0.595944
Cl4   Cl    Cl    0.036412 0.121077 0.054284 -0.595944
Cl5   Cl    Cl    0.889876 0.313285 0.529911 -0.547219
Cl6   Cl    Cl    0.110124 0.686715 0.470089 -0.547219
Cl7   Cl    Cl    0.610124 0.813285 0.970089 -0.547220
Cl8   Cl    Cl    0.389876 0.186715 0.029911 -0.547220
Cl9   Cl    Cl    0.960923 0.630603 0.601357 -0.506595
Cl10  Cl    Cl    0.039077 0.369397 0.398643 -0.506595
Cl11  Cl    Cl    0.539077 0.130603 0.898643 -0.506595
Cl12  Cl    Cl    0.460923 0.869397 0.101357 -0.506595
N17   N     N_2   0.853521 0.623795 0.636506 -0.486722
H37   H     H_    0.879307 0.516838 0.642511 0.302791
C69   C     C_3   0.805749 0.585492 0.595376 -0.418820
H38   H     H_    0.814489 0.544954 0.553247 0.234514
H39   H     H_    0.779733 0.706013 0.588085 0.170098
H40   H     H_    0.783773 0.476147 0.612111 0.183028
N18   N     N_2   0.146479 0.376205 0.363494 -0.486722
H41   H     H_    0.120693 0.483162 0.357489 0.302791
C70   C     C_3   0.194251 0.414508 0.404624 -0.418820
H42   H     H_    0.185511 0.455045 0.446752 0.234514
H43   H     H_    0.216226 0.523852 0.387889 0.183028
H44   H     H_    0.220267 0.293987 0.411915 0.170098
N19   N     N_2   0.646479 0.123795 0.863494 -0.486722
H45   H     H_    0.620693 0.016838 0.857489 0.302791
C71   C     C_3   0.694251 0.085491 0.904624 -0.418819
H46   H     H_    0.685511 0.044954 0.946752 0.234514
H47   H     H_    0.720267 0.206013 0.911915 0.170098
H48   H     H_    0.716226 0.976147 0.887889 0.183028
N20   N     N_2   0.353521 0.876205 0.136506 -0.486722
H49   H     H_    0.379307 0.983162 0.142511 0.302791
C72   C     C_3   0.305749 0.914509 0.095376 -0.418820
H50   H     H_    0.314489 0.955046 0.053247 0.234514
H51   H     H_    0.283774 0.023853 0.112111 0.183028
H52   H     H_    0.279733 0.793987 0.088085 0.170098

loop_
_geom_bond_atom_site_label_1
_geom_bond_atom_site_label_2
_ccdc_geom_bond_type
O17   V3    S    
C16   C23   S    
C15   C27   S    
C71   H46   S    
O1    C5    A    
C70   H42   S    
N3    N7    A    
C13   C25   S    
O19   V1    S    
C9    C21   S    
N19   H45   S    
O3    C7    A    
N18   H41   S    
N8    C60   A    
C44   C48   A    
C11   C23   S    
C11   N15   S    
C64   H19   S    
C13   N9    S    
N9    H5    S    
C67   H32   S    
C65   H22   S    
N20   C72   S    
C8    C18   S    
O7    C3    A    
C71   H47   S    
O5    C1    A    
N17   H37   S    
O9    V1    S    
N18   C70   S    
C35   C55   A    
C38   Cl6   S    
C34   C54   A    
O4    C8    A    
C37   C41   A    
C65   H23   S    
C16   N12   S    
N12   H17   S    
C24   Cl3   S    
C2    C55   S    
O1    V3    S    
O13   V1    S    
C46   Cl10  S    
O2    V4    S    
O3    V1    S    
C20   C32   T    
C14   C21   S    
C35   C39   A    
C5    C19   S    
C44   C59   S    
C34   C38   A    
C6    C20   S    
N4    N8    A    
C2    O16   A    
C10   N14   S    
C72   H51   S    
O2    C6    A    
C69   H39   S    
C41   C45   A    
C10   C22   S    
C49   C53   A    
N11   H13   S    
C27   C31   S    
C52   C56   A    
C66   H28   S    
O11   C7    A    
N4    C59   A    
O15   V3    S    
C50   N18   S    
O12   C8    A    
C9    N13   S    
N19   C71   S    
C70   H43   S    
O10   V2    S    
C62   H12   S    
C1    O15   A    
N6    C58   A    
C15   N11   S    
O5    V1    S    
C3    C54   S    
C71   H48   S    
C43   C47   A    
O7    V3    S    
C39   Cl7   S    
C21   Cl2   S    
O8    V4    S    
C67   H30   S    
C42   C57   S    
C63   H15   S    
C41   C58   S    
N9    C61   S    
C64   H20   S    
N1    N5    A    
O18   V4    S    
C65   H24   S    
C23   C27   S    
C43   C60   S    
N12   C64   S    
C9    C26   S    
C16   C28   S    
C48   Cl12  S    
C9    C13   S    
C40   C44   A    
C68   H35   S    
C11   C15   S    
N14   C66   S    
C42   C46   A    
C14   N10   S    
C40   Cl8   S    
N2    C57   A    
C62   H11   S    
N1    C58   A    
C50   C54   A    
C69   H38   S    
C21   C25   S    
O8    C4    A    
C72   H52   S    
N3    C60   A    
C69   H40   S    
O9    C5    A    
N10   C62   S    
C26   C30   S    
N16   C68   S    
O11   V3    S    
C17   C29   T    
N13   H21   S    
C12   C27   S    
C34   H2    S    
O14   V2    S    
C19   C31   T    
O6    V2    S    
C70   H44   S    
N2    N6    A    
N15   H29   S    
C33   C53   A    
C68   H36   S    
C45   Cl9   S    
N14   H25   S    
C11   C28   S    
C12   C16   S    
C66   H26   S    
O16   V4    S    
C67   H31   S    
C23   Cl4   S    
C3    O13   A    
C10   C25   S    
C63   H14   S    
C61   H7    S    
C10   C14   S    
C48   C52   A    
C52   N20   S    
C33   C37   A    
O6    C2    A    
N16   H33   S    
C33   H1    S    
C14   C26   S    
O12   V4    S    
C62   H10   S    
C22   C26   S    
C35   H3    S    
C7    C17   S    
C61   H6    S    
C36   H4    S    
O10   C6    A    
N11   C63   S    
N20   H49   S    
C68   H34   S    
C18   C30   T    
C51   C55   A    
C36   C56   A    
C51   N19   S    
C38   C42   A    
C25   C29   S    
O20   V2    S    
C4    C53   S    
C12   C24   S    
C63   H16   S    
C39   C43   A    
N5    C57   A    
C12   N16   S    
N13   C65   S    
C1    C56   S    
N7    C59   A    
C22   Cl1   S    
C47   Cl11  S    
C24   C28   S    
C61   H8    S    
C36   C40   A    
N17   C69   S    
C72   H50   S    
C46   C50   A    
C4    O14   A    
N10   H9    S    
N15   C67   S    
C37   Cl5   S    
C45   C49   A    
C13   C22   S    
C64   H18   S    
C47   C51   A    
O4    V2    S    
C28   C32   S    
C49   N17   S    
C15   C24   S    
C66   H27   S    
