data_mof_unit_40128.cif
_audit_creation_date              2012-12-11T16:11:13-0500
_audit_creation_method            fapswitch 2.2
_symmetry_space_group_name_H-M    P1
_symmetry_Int_Tables_number       1
_space_group_crystal_system       triclinic
_cell_length_a                    12.847235
_cell_length_b                    13.26711
_cell_length_c                    26.939224
_cell_angle_alpha                 97.203206
_cell_angle_beta                  90.221874
_cell_angle_gamma                 118.923504
_cell_volume                      3976.1988819

loop_
_atom_site_label
_atom_site_type_symbol
_atom_type_description
_atom_site_fract_x
_atom_site_fract_y
_atom_site_fract_z
_atom_type_partial_charge
C1    C     C_R   0.627915 0.894667 0.424331 0.543564
C2    C     C_1   0.139719 0.823839 0.179527 -0.054585
C3    C     C_1   0.159961 0.836974 0.231866 -0.015196
C4    C     C_R   0.602006 0.224023 0.443493 0.546481
C5    C     C_1   0.174456 0.844170 0.276546 -0.016461
C6    C     C_1   0.194522 0.851218 0.328537 -0.055593
C7    C     C_1   0.220594 0.859505 0.372328 -0.013016
C8    C     C_1   0.689365 0.798791 0.136210 -0.016243
C9    C     C_1   0.672941 0.808473 0.180038 -0.056958
C10   C     C_1   0.661846 0.817817 0.232111 -0.015916
C11   C     C_1   0.656126 0.827087 0.276848 -0.016556
C12   C     C_R   0.595419 0.353908 0.231010 0.010509
C13   C     C_1   0.650450 0.842293 0.329200 -0.056244
C14   C     C_1   0.643076 0.861671 0.373474 -0.014402
C15   C     C_1   0.694096 0.385843 0.874676 -0.024687
C16   C     C_R   0.268193 0.875571 0.422478 0.543594
C17   C     C_1   0.685185 0.360245 0.829862 -0.057099
C18   C     C_1   0.676754 0.340096 0.777125 0.007876
C19   C     C_1   0.668416 0.324978 0.732030 0.016187
C20   C     C_1   0.654317 0.303481 0.679311 -0.037860
C21   C     C_1   0.635666 0.276029 0.634592 -0.005142
C22   C     C_1   0.211410 0.862317 0.607638 0.000792
C23   C     C_R   0.586088 0.343096 0.282552 0.011143
C24   C     C_R   0.060890 0.753216 0.715931 0.138214
C25   C     C_R   0.050501 0.742005 0.766942 0.099184
C26   C     C_R   0.229744 0.932639 0.788733 0.040181
C27   C     C_R   0.239594 0.943044 0.737362 0.078976
C28   C     C_R   0.630724 0.898234 0.563841 0.542971
C29   C     C_R   0.156705 0.851894 0.701293 0.036203
C30   C     C_R   0.136712 0.830056 0.803094 -0.002730
C31   C     C_1   0.124807 0.814838 0.854945 -0.076910
C32   C     C_1   0.179126 0.855113 0.649310 -0.011909
C33   C     C_1   0.103701 0.796006 0.897094 -0.021256
C34   C     C_R   0.677916 0.338705 0.309435 0.025081
C35   C     C_1   0.657559 0.856049 0.605675 0.011296
C36   C     C_R   0.802462 0.872104 0.720801 0.117796
C37   C     C_R   0.812439 0.856767 0.770931 0.096723
C38   C     C_R   0.616330 0.682205 0.758677 0.095287
C39   C     C_R   0.606084 0.698944 0.708732 0.113884
C40   C     C_R   0.603070 0.227354 0.582899 0.545002
C41   C     C_R   0.697663 0.795605 0.690435 0.054740
C42   C     C_R   0.717799 0.763528 0.790217 0.009468
C43   C     C_1   0.723283 0.754895 0.842818 -0.073275
C44   C     C_1   0.677456 0.825457 0.643087 0.032828
C45   C     C_R   0.700373 0.368080 0.208234 0.034947
C46   C     C_1   0.731495 0.751594 0.886974 -0.023348
C47   C     C_R   0.065369 0.771866 0.084210 0.544550
C48   C     C_R   0.716074 0.438693 0.066612 0.544366
C49   C     C_R   0.720164 0.782348 0.086094 0.556713
C50   C     C_R   0.059567 0.765139 0.944235 0.538454
C51   C     C_R   0.709528 0.432373 0.926581 0.532606
C52   C     C_R   0.267236 0.879050 0.561710 0.543844
C53   C     C_R   0.748865 0.750757 0.939273 0.569054
C54   C     C_1   0.637517 0.277239 0.399562 -0.026970
C55   C     C_R   0.782232 0.351813 0.286962 0.004230
C56   C     C_1   0.704380 0.378632 0.155825 -0.071579
C57   C     C_R   0.798592 0.375604 0.236654 0.012838
C58   C     C_3   0.871555 0.332144 0.316507 -0.254934
C59   C     C_3   0.833889 0.202090 0.309972 -0.290554
C60   C     C_3   0.919152 0.179681 0.340384 -0.438419
C61   C     C_3   0.922559 0.409492 0.217326 -0.260180
C62   C     C_3   0.954280 0.453814 0.166513 -0.286586
C63   C     C_3   0.086684 0.499575 0.159074 -0.450014
C64   C     C_3   0.494886 0.353383 0.199986 -0.253299
C65   C     C_3   0.519485 0.478087 0.197828 -0.287683
C66   C     C_3   0.419855 0.478634 0.167047 -0.441533
C67   C     C_1   0.659518 0.310138 0.359572 -0.073698
C68   C     C_3   0.476651 0.331619 0.309076 -0.251950
C69   C     C_3   0.381214 0.203196 0.306801 -0.289558
C70   C     C_3   0.270310 0.191387 0.331840 -0.442621
C71   C     C_3   0.316978 0.031445 0.827892 -0.226212
C72   C     C_3   0.263444 0.107805 0.848846 -0.297137
C73   C     C_3   0.351543 0.210484 0.886676 -0.433977
C74   C     C_1   0.706302 0.397350 0.113354 -0.039776
C75   C     C_1   0.113373 0.805394 0.135189 -0.017003
Cr1   Cr    Cr6+3 0.416010 0.828400 0.490230 1.036975
Cr2   Cr    Cr6+3 0.676380 0.087280 0.505260 1.032259
Cr3   Cr    Cr6+3 0.407590 0.084280 0.504540 1.029526
Cr4   Cr    Cr6+3 0.914090 0.832340 0.018020 1.019438
Cr5   Cr    Cr6+3 0.923310 0.576840 0.003860 1.015630
Cr6   Cr    Cr6+3 0.654200 0.573160 0.004700 1.014685
H1    H     H_    0.011002 0.227350 0.328168 0.142527
H2    H     H_    0.556736 0.535319 0.790433 0.241343
H3    H     H_    0.488033 0.614715 0.807130 0.240663
H4    H     H_    0.491003 0.536715 0.674286 0.256930
H5    H     H_    0.427285 0.619220 0.693714 0.254487
H6    H     H_    0.142335 0.574978 0.188197 0.157421
H7    H     H_    0.110596 0.430056 0.161071 0.143817
H8    H     H_    0.106336 0.528594 0.121660 0.170215
H9    H     H_    0.903377 0.381188 0.135656 0.176929
H10   H     H_    0.935174 0.526554 0.164626 0.185061
H11   H     H_    0.988580 0.482180 0.245221 0.146402
H12   H     H_    0.919462 0.208075 0.380997 0.168740
H13   H     H_    0.938317 0.334046 0.216876 0.141570
H14   H     H_    0.412381 0.436630 0.127861 0.167324
H15   H     H_    0.333452 0.431568 0.183949 0.141707
H16   H     H_    0.439889 0.569757 0.166367 0.154712
H17   H     H_    0.527405 0.523419 0.236397 0.162288
H18   H     H_    0.604964 0.527676 0.180630 0.181612
H19   H     H_    0.483820 0.307110 0.161374 0.151382
H20   H     H_    0.406673 0.302373 0.214576 0.136409
H21   H     H_    0.293439 0.230601 0.371959 0.165741
H22   H     H_    0.230455 0.235245 0.312508 0.142307
H23   H     H_    0.889853 0.085141 0.334559 0.157883
H24   H     H_    0.203246 0.097842 0.329668 0.155763
H25   H     H_    0.355110 0.160495 0.267193 0.160899
H26   H     H_    0.417369 0.156241 0.326140 0.179582
H27   H     H_    0.502300 0.372891 0.348899 0.152327
H28   H     H_    0.438886 0.381374 0.293360 0.136257
H29   H     H_    0.974340 0.585558 0.682323 0.253437
H30   H     H_    0.891114 0.653298 0.685844 0.254215
H31   H     H_    0.902986 0.666152 0.805443 0.234266
H32   H     H_    0.985463 0.597358 0.800934 0.244085
H33   H     H_    0.378336 0.179198 0.918153 0.159103
H34   H     H_    0.742591 0.151627 0.322397 0.178821
H35   H     H_    0.431961 0.267512 0.868136 0.171567
H36   H     H_    0.309250 0.262370 0.902057 0.152666
H37   H     H_    0.239095 0.141728 0.817625 0.189025
H38   H     H_    0.181258 0.055326 0.867582 0.171315
H39   H     H_    0.340367 0.996126 0.858802 0.136147
H40   H     H_    0.402565 0.086073 0.811780 0.185028
H41   H     H_    0.387824 0.023005 0.699512 0.237203
H42   H     H_    0.297440 0.083330 0.700820 0.241792
H43   H     H_    0.911509 0.045271 0.722896 0.253097
H44   H     H_    0.974420 0.961566 0.704322 0.255034
H45   H     H_    0.832657 0.170063 0.269697 0.163120
H46   H     H_    0.964034 0.381317 0.305712 0.127381
H47   H     H_    0.878141 0.365680 0.356962 0.154081
H48   H     H_    0.954872 0.894011 0.817190 0.236767
H49   H     H_    0.892331 0.979558 0.831880 0.240058
N1    N     N_3   0.917520 0.939215 0.802196 -0.645817
N2    N     N_3   0.521436 0.584066 0.777096 -0.635938
N3    N     N_3   0.500849 0.620214 0.676818 -0.614887
N4    N     N_3   0.975377 0.663556 0.678634 -0.610072
N5    N     N_3   0.951943 0.640058 0.781377 -0.637969
N6    N     N_3   0.334650 0.046338 0.722096 -0.646589
N7    N     N_3   0.896833 0.968092 0.700986 -0.613045
O1    O     O_R   0.294740 0.800910 0.434410 -0.507311
O2    O     O_R   0.635480 0.460400 0.052590 -0.509976
O3    O     O_R   0.662650 0.681410 0.060750 -0.491194
O4    O     O_R   0.526010 0.837250 0.440870 -0.494462
O5    O     O_R   0.814500 0.852290 0.965490 -0.504696
O6    O     O_R   0.013160 0.821640 0.966980 -0.516678
O7    O     O_R   0.038850 0.666600 0.954370 -0.501862
O8    O     O_R   0.813260 0.476410 0.948680 -0.490823
O9    O     O_R   0.630060 0.454430 0.944230 -0.522878
O10   O     O_R   0.657630 0.675880 0.960300 -0.489585
O11   O     O_3   0.830530 0.660780 0.008860 -0.271456
O12   O     O_R   0.664100 0.185180 0.560770 -0.491900
O13   O     O_R   0.704290 0.994500 0.446090 -0.510986
O14   O     O_R   0.662870 0.181760 0.460430 -0.496644
O15   O     O_R   0.498970 0.199080 0.457120 -0.509212
O16   O     O_R   0.309350 0.975930 0.448180 -0.495775
O17   O     O_R   0.296060 0.804610 0.542650 -0.500880
O18   O     O_R   0.527240 0.840670 0.541200 -0.491941
O19   O     O_R   0.705610 0.998200 0.554330 -0.500775
O20   O     O_R   0.500290 0.202770 0.565360 -0.504674
O21   O     O_R   0.310570 0.979360 0.548520 -0.496581
O22   O     O_3   0.499990 0.999990 0.500010 -0.252110
O23   O     O_R   0.819910 0.858260 0.073860 -0.500879
O24   O     O_R   0.018180 0.827180 0.067430 -0.492124
O25   O     O_R   0.044260 0.672570 0.062730 -0.513563
O26   O     O_R   0.818270 0.481940 0.049130 -0.496256

loop_
_geom_bond_atom_site_label_1
_geom_bond_atom_site_label_2
_ccdc_geom_bond_type
Cr6   O9    S    
Cr6   O3    S    
C59   C60   S    
Cr1   O22   S    
C58   H47   S    
C63   H7    S    
C27   C29   A    
C19   C20   S    
Cr2   O14   S    
C69   H26   S    
Cr3   O15   S    
C39   C41   A    
C48   O26   A    
C59   H45   S    
C12   C23   A    
C45   C57   A    
C26   C27   A    
C73   H35   S    
C22   C32   T    
C71   H39   S    
C27   N6    S    
C66   H16   S    
C22   C52   S    
C36   C37   A    
C65   H17   S    
C38   C42   A    
C29   C32   S    
Cr2   O19   S    
C39   N3    S    
C30   C31   S    
C12   C64   S    
Cr4   O5    S    
C51   O8    A    
C52   O17   A    
C62   H9    S    
C53   O10   A    
C46   C53   S    
Cr6   O2    S    
C53   O5    A    
C37   C42   A    
C24   C29   A    
Cr3   O20   S    
C68   C69   S    
C47   O25   A    
C60   H1    S    
Cr3   O21   S    
Cr4   O6    S    
C45   C56   S    
C8    C9    T    
Cr5   O7    S    
C28   O18   A    
C31   C33   T    
C49   O23   A    
C15   C51   S    
C9    C10   S    
C61   H11   S    
C63   H6    S    
C60   H12   S    
Cr6   O11   S    
C58   H46   S    
C13   C14   T    
C26   C71   S    
C36   C41   A    
C61   C62   S    
Cr4   O24   S    
C50   O7    A    
C49   O3    A    
C52   O21   A    
C64   H20   S    
C4    O15   A    
C73   H36   S    
C48   C74   S    
H43   N7    S    
C56   C74   T    
C24   C25   A    
C65   H18   S    
Cr2   O12   S    
Cr4   O23   S    
C70   H22   S    
C18   C19   T    
C54   C67   T    
C51   O9    A    
H44   N7    S    
C58   C59   S    
H3    N2    S    
C73   H33   S    
C37   N1    S    
C38   N2    S    
C23   C68   S    
C34   C67   S    
Cr5   O26   S    
C62   C63   S    
C40   O20   A    
H5    N3    S    
C64   H19   S    
C23   C34   A    
Cr5   O25   S    
C62   H10   S    
C63   H8    S    
C17   C18   S    
C34   C55   A    
C1    O13   A    
H30   N4    S    
C35   C44   T    
H41   N6    S    
C6    C7    T    
Cr2   O22   S    
Cr5   O8    S    
C26   C30   A    
C55   C57   A    
C41   C44   S    
H29   N4    S    
C42   C43   S    
H31   N5    S    
C50   O6    A    
C66   H15   S    
C36   N7    S    
C24   N4    S    
C25   C30   A    
C15   C17   T    
C4    O14   A    
C7    C16   S    
C48   O2    A    
C4    C54   S    
C61   H13   S    
C71   H40   S    
C16   O1    A    
C72   C73   S    
C3    C5    T    
C70   H24   S    
Cr2   O13   S    
C69   H25   S    
C70   H21   S    
Cr3   O16   S    
C57   C61   S    
Cr4   O11   S    
C12   C45   A    
Cr1   O1    S    
Cr1   O18   S    
H42   N6    S    
C64   C65   S    
C2    C3    S    
C33   C50   S    
C47   C75   S    
H2    N2    S    
Cr1   O4    S    
C11   C13   S    
Cr6   O10   S    
C5    C6    S    
C21   C40   S    
C38   C39   A    
C72   H38   S    
Cr1   O17   S    
C40   O12   A    
H49   N1    S    
C68   H28   S    
C69   C70   S    
C25   N5    S    
C43   C46   T    
C1    O4    A    
C10   C11   T    
C47   O24   A    
Cr3   O22   S    
Cr5   O11   S    
C71   C72   S    
C20   C21   T    
C59   H34   S    
C65   C66   S    
H32   N5    S    
C55   C58   S    
C72   H37   S    
C16   O16   A    
C28   O19   A    
C1    C14   S    
C68   H27   S    
C60   H23   S    
C28   C35   S    
C8    C49   S    
C2    C75   T    
H4    N3    S    
C66   H14   S    
H48   N1    S    
