data_mof_unit_45070.cif
_audit_creation_date              2012-12-10T18:34:38-0500
_audit_creation_method            fapswitch 2.2
_symmetry_space_group_name_H-M    P1
_symmetry_Int_Tables_number       1
_space_group_crystal_system       triclinic
_cell_length_a                    12.934535
_cell_length_b                    15.11044
_cell_length_c                    13.957913
_cell_angle_alpha                 90.594741
_cell_angle_beta                  96.558921
_cell_angle_gamma                 91.996283
_cell_volume                      2708.24219291

loop_
_atom_site_label
_atom_site_type_symbol
_atom_type_description
_atom_site_fract_x
_atom_site_fract_y
_atom_site_fract_z
_atom_type_partial_charge
C1    C     C_R   0.498224 0.329795 0.499866 0.775396
C2    C     C_R   0.497998 0.669960 0.499969 0.778272
C3    C     C_R   0.502086 0.232918 0.500912 -0.087459
C4    C     C_R   0.499848 0.766876 0.500086 -0.087331
C5    C     C_R   0.561167 0.192251 0.435798 -0.277661
C6    C     C_R   0.561025 0.812000 0.575818 -0.257220
C7    C     C_R   0.568856 0.100268 0.431710 0.108330
C8    C     C_R   0.572067 0.904423 0.577653 0.112883
C9    C     C_R   0.521644 0.048721 0.499772 0.060058
C10   C     C_R   0.522299 0.951852 0.499559 0.059251
C11   C     C_R   0.551189 0.570894 0.115704 -0.290965
C12   C     C_R   0.411872 0.463996 0.880708 -0.285140
C13   C     C_R   0.554589 0.565029 0.216928 0.043445
C14   C     C_R   0.418413 0.460464 0.780395 0.050736
C15   C     C_R   0.439669 0.439000 0.199214 0.327211
C16   C     C_R   0.577033 0.545187 0.802423 0.339705
C17   C     C_R   0.435682 0.443617 0.098232 -0.268642
C18   C     C_R   0.572681 0.548108 0.902681 -0.275080
C19   C     C_R   0.491742 0.508589 0.053766 0.101145
C20   C     C_R   0.490853 0.507607 0.944603 0.099892
C21   C     C_R   0.301226 0.501793 0.481885 0.781873
C22   C     C_R   0.698885 0.498950 0.518145 0.806014
C23   C     C_R   0.810695 0.491240 0.527854 -0.070718
C24   C     C_R   0.189612 0.510095 0.472641 -0.045404
C25   C     C_R   0.050829 0.612296 0.469292 -0.224671
C26   C     C_R   0.950712 0.389880 0.535354 -0.221500
C27   C     C_R   0.153230 0.595139 0.459725 -0.229922
C28   C     C_R   0.848399 0.407208 0.545839 -0.242055
C29   C     C_R   0.122828 0.438712 0.492868 0.025058
C30   C     C_R   0.876548 0.561996 0.504269 0.017008
C31   C     C_R   0.018496 0.456761 0.506636 0.127387
C32   C     C_R   0.981693 0.544503 0.493472 0.128496
C33   C     C_R   0.463011 0.088887 0.564858 -0.228382
C34   C     C_R   0.459180 0.907070 0.425344 -0.225536
C35   C     C_R   0.451982 0.180304 0.566825 0.094491
C36   C     C_R   0.446295 0.815085 0.424537 0.085870
Cu1   Cu    Cu3+1 0.500000 0.499990 0.596430 0.915509
Cu2   Cu    Cu3+1 0.500000 0.500010 0.403570 0.915554
H1    H     H_    0.796640 0.353322 0.563570 0.143625
H2    H     H_    0.205807 0.649756 0.446139 0.128367
H3    H     H_    0.028475 0.680064 0.460044 0.148049
H4    H     H_    0.974546 0.322934 0.548574 0.150075
H5    H     H_    0.602430 0.232802 0.388032 0.148683
H6    H     H_    0.601284 0.774633 0.633608 0.135105
H7    H     H_    0.593841 0.625474 0.087321 0.128284
H8    H     H_    0.343821 0.433513 0.906667 0.130238
N1    N     N_R   0.500000 0.500020 0.258690 -0.186953
N2    N     N_R   0.500000 0.499980 0.741310 -0.189694
O1    O     O_R   0.500010 0.371450 0.581430 -0.580495
O2    O     O_R   0.499990 0.628550 0.418570 -0.582413
O3    O     O_R   0.500010 0.371460 0.418560 -0.595576
O4    O     O_R   0.499990 0.628540 0.581440 -0.592750
O5    O     O_R   0.349000 0.499980 0.568210 -0.584747
O6    O     O_R   0.651000 0.500020 0.431790 -0.569284
O7    O     O_R   0.349000 0.499990 0.405340 -0.604389
O8    O     O_R   0.651000 0.500010 0.594660 -0.604781
C37   C     C_3   0.833108 0.654230 0.490030 -0.424085
C38   C     C_3   0.810869 0.675507 0.382484 -0.323415
C39   C     C_3   0.753311 0.761557 0.367639 -0.875582
H9    H     H_    0.676531 0.755671 0.395608 0.264017
H10   H     H_    0.799960 0.817167 0.405523 0.260956
H11   H     H_    0.740282 0.776028 0.289462 0.233510
H12   H     H_    0.884375 0.681703 0.348827 0.211921
H13   H     H_    0.763053 0.620736 0.344562 0.229091
H14   H     H_    0.760086 0.659858 0.524224 0.183170
H15   H     H_    0.887061 0.705093 0.528324 0.184422
C40   C     C_3   0.163398 0.344907 0.497927 -0.438747
C41   C     C_3   0.122352 0.290301 0.407386 -0.338572
C42   C     C_3   0.167526 0.198217 0.410565 -0.865984
H16   H     H_    0.253782 0.203322 0.414023 0.250756
H17   H     H_    0.145586 0.161964 0.474492 0.251360
H18   H     H_    0.136478 0.160106 0.344451 0.244238
H19   H     H_    0.036101 0.283208 0.400344 0.222786
H20   H     H_    0.144944 0.324724 0.342453 0.216574
H21   H     H_    0.249307 0.345566 0.502666 0.182171
H22   H     H_    0.144196 0.311732 0.564577 0.188247
C43   C     C_3   0.372003 0.365437 0.235485 -0.378269
C44   C     C_3   0.422287 0.274522 0.233814 -0.327674
C45   C     C_3   0.400654 0.225381 0.136942 -0.872624
H23   H     H_    0.316418 0.224754 0.110129 0.252894
H24   H     H_    0.446739 0.255915 0.082841 0.250906
H25   H     H_    0.424521 0.155791 0.146044 0.238521
H26   H     H_    0.507805 0.282447 0.252566 0.227301
H27   H     H_    0.390720 0.232294 0.289208 0.213737
H28   H     H_    0.352466 0.378666 0.308229 0.221080
H29   H     H_    0.294567 0.362392 0.191502 0.157616
C46   C     C_3   0.666683 0.598696 0.768013 -0.383933
C47   C     C_3   0.769048 0.548307 0.776277 -0.317155
C48   C     C_3   0.827178 0.550450 0.877977 -0.866536
H30   H     H_    0.836143 0.619278 0.907202 0.248220
H31   H     H_    0.785710 0.507981 0.926702 0.254584
H32   H     H_    0.905948 0.524085 0.875698 0.242962
H33   H     H_    0.754071 0.478032 0.753030 0.239519
H34   H     H_    0.821106 0.579558 0.727166 0.207230
H35   H     H_    0.647596 0.621943 0.694189 0.207220
H36   H     H_    0.679345 0.661845 0.810140 0.150556
H37   H     H_    0.388055 0.394982 0.054642 0.142713
H38   H     H_    0.634716 0.582964 0.947719 0.140914
H39   H     H_    0.422995 0.047842 0.613392 0.138786
H40   H     H_    0.416462 0.944714 0.369100 0.134464
C49   C     C_3   0.382654 0.215833 0.637827 -0.406003
C50   C     C_3   0.438331 0.217140 0.741146 -0.310425
C51   C     C_3   0.361450 0.227788 0.815390 -0.881072
H41   H     H_    0.309629 0.167606 0.815366 0.251893
H42   H     H_    0.404708 0.237101 0.888417 0.245311
H43   H     H_    0.312789 0.285913 0.798944 0.245451
H44   H     H_    0.479481 0.154527 0.756247 0.210059
H45   H     H_    0.497267 0.272807 0.749561 0.235433
H46   H     H_    0.355729 0.282740 0.619591 0.194007
H47   H     H_    0.310628 0.172808 0.633752 0.192840
C52   C     C_3   0.370777 0.772684 0.344776 -0.395943
C53   C     C_3   0.418284 0.772076 0.249042 -0.323341
C54   C     C_3   0.348976 0.719074 0.171427 -0.830000
H48   H     H_    0.339597 0.649129 0.193665 0.265027
H49   H     H_    0.271144 0.748418 0.158619 0.245526
H50   H     H_    0.385197 0.720110 0.103034 0.240114
H51   H     H_    0.428536 0.841103 0.224039 0.201684
H52   H     H_    0.496131 0.742692 0.259346 0.224744
H53   H     H_    0.345964 0.704654 0.363039 0.208204
H54   H     H_    0.298222 0.810653 0.336284 0.178242
C55   C     C_3   0.623723 0.060211 0.351954 -0.405638
C56   C     C_3   0.729774 0.024451 0.389787 -0.350807
C57   C     C_3   0.789514 0.996503 0.306957 -0.863365
H55   H     H_    0.743748 0.945148 0.261087 0.255662
H56   H     H_    0.805901 0.054478 0.262056 0.253806
H57   H     H_    0.864753 0.968743 0.336442 0.240447
H58   H     H_    0.776960 0.076401 0.433723 0.216392
H59   H     H_    0.718595 0.965951 0.435296 0.223833
H60   H     H_    0.573880 0.006801 0.313532 0.190959
H61   H     H_    0.635700 0.111104 0.296833 0.196414
C58   C     C_3   0.633259 0.949494 0.665288 -0.406894
C59   C     C_3   0.736049 0.992861 0.641864 -0.352990
C60   C     C_3   0.800786 0.029316 0.732857 -0.857319
H62   H     H_    0.756897 0.079529 0.768648 0.254341
H63   H     H_    0.820979 0.974976 0.783870 0.251012
H64   H     H_    0.874026 0.061246 0.713449 0.239157
H65   H     H_    0.781920 0.943398 0.607037 0.213699
H66   H     H_    0.720141 0.048688 0.592124 0.226483
H67   H     H_    0.585328 0.999521 0.696272 0.191627
H68   H     H_    0.651235 0.900313 0.723050 0.191563
H69   H     H_    0.599456 0.614259 0.261966 0.129381
H70   H     H_    0.356510 0.427088 0.733612 0.133380

loop_
_geom_bond_atom_site_label_1
_geom_bond_atom_site_label_2
_ccdc_geom_bond_type
C30   C32   A    
C46   C47   S    
C4    C36   A    
C49   C50   S    
C19   C20   S    
C24   C27   A    
C15   N1    A    
C37   H15   S    
C16   N2    A    
C14   H70   S    
C57   H55   S    
C22   O6    A    
C43   C44   S    
C11   C19   A    
C53   H51   S    
C57   H56   S    
C59   H66   S    
C30   C37   S    
C52   H53   S    
C56   H58   S    
C42   H17   S    
C24   C29   A    
C58   H68   S    
C2    O2    A    
C17   C19   A    
C29   C40   S    
Cu1   O8    S    
C44   H26   S    
Cu2   O7    S    
C52   C53   S    
C41   C42   S    
C46   H35   S    
C60   H64   S    
C34   H40   S    
C50   H45   S    
C13   H69   S    
C48   H31   S    
C9    C10   S    
C55   H61   S    
C36   C52   S    
C18   C20   A    
C54   H50   S    
Cu1   O5    S    
C25   C32   A    
C5    H5    S    
C49   H46   S    
C43   H28   S    
C26   C31   A    
C6    H6    S    
C9    C33   A    
C42   H16   S    
C7    C55   S    
C53   C54   S    
C5    C7    A    
C38   H13   S    
C47   H34   S    
C39   H10   S    
C40   C41   S    
C10   C34   A    
C23   C30   A    
C4    C6    A    
C25   H3    S    
C13   N1    A    
Cu1   O4    S    
C44   C45   S    
C59   C60   S    
C57   H57   S    
C22   O8    A    
Cu2   O3    S    
C28   H1    S    
C3    C5    A    
C38   C39   S    
C52   H54   S    
C33   H39   S    
C42   H18   S    
C2    C4    S    
Cu1   Cu2   S    
C16   C46   S    
Cu1   O1    S    
C31   C32   A    
Cu2   O6    S    
C3    C35   A    
C27   H2    S    
C46   H36   S    
C12   C20   A    
C8    C58   S    
C55   C56   S    
C50   H44   S    
C51   H42   S    
C16   C18   A    
C23   C28   A    
C48   H32   S    
C1    O3    A    
Cu2   N1    S    
C2    O4    A    
C12   H8    S    
C12   C14   A    
C43   H29   S    
C60   H62   S    
C11   H7    S    
C40   H21   S    
C58   C59   S    
C48   H30   S    
C26   H4    S    
C21   O7    A    
C54   H48   S    
C38   H12   S    
C7    C9    A    
C47   H33   S    
C55   H60   S    
C39   H11   S    
Cu1   N2    S    
C26   C28   A    
C49   H47   S    
C37   H14   S    
C35   C49   S    
C45   H25   S    
C6    C8    A    
C15   C17   A    
Cu2   O2    S    
C25   C27   A    
C18   H38   S    
C45   H24   S    
C41   H19   S    
C29   C31   A    
C53   H52   S    
C11   C13   A    
C37   C38   S    
C15   C43   S    
C17   H37   S    
C21   O5    A    
C1    O1    A    
C33   C35   A    
C51   H43   S    
C34   C36   A    
C56   H59   S    
C50   C51   S    
C58   H67   S    
C45   H23   S    
C44   H27   S    
C39   H9    S    
C47   C48   S    
C8    C10   A    
C21   C24   S    
C51   H41   S    
C60   H63   S    
C14   N2    A    
C22   C23   S    
C40   H22   S    
C59   H65   S    
C1    C3    S    
C56   C57   S    
C41   H20   S    
C54   H49   S    
