data_mof_unit_39597.cif
_audit_creation_date              2012-12-11T20:14:13-0500
_audit_creation_method            fapswitch 2.2
_symmetry_space_group_name_H-M    P1
_symmetry_Int_Tables_number       1
_space_group_crystal_system       triclinic
_cell_length_a                    21.920933
_cell_length_b                    26.708581
_cell_length_c                    8.451406
_cell_angle_alpha                 89.837528
_cell_angle_beta                  102.902632
_cell_angle_gamma                 90.471609
_cell_volume                      4823.0030551

loop_
_atom_site_label
_atom_site_type_symbol
_atom_type_description
_atom_site_fract_x
_atom_site_fract_y
_atom_site_fract_z
_atom_type_partial_charge
Ba1   Ba    Ba6+2 0.999850 0.464270 0.844920 1.764470
Ba2   Ba    Ba6+2 0.999850 0.535730 0.344920 1.748933
Ba3   Ba    Ba6+2 0.499850 0.964270 0.844920 1.749112
Ba4   Ba    Ba6+2 0.499850 0.035730 0.344920 1.750217
C1    C     C_3   0.037658 0.228418 0.618245 0.690623
C2    C     C_3   0.986753 0.789780 0.192699 0.704779
C3    C     C_3   0.534978 0.727053 0.614911 0.974995
C4    C     C_3   0.482565 0.289720 0.096407 0.794942
C5    C     C_3   0.862628 0.357244 0.374563 -0.083605
C6    C     C_3   0.900795 0.667449 0.835114 0.088517
C7    C     C_3   0.362166 0.857141 0.373806 -0.068012
C8    C     C_3   0.404677 0.168539 0.834081 0.094382
C9    C     C_2   0.827225 0.314314 0.305753 -0.037201
C10   C     C_2   0.847371 0.698423 0.778675 -0.077643
C11   C     C_2   0.325567 0.814650 0.304735 -0.043754
C12   C     C_2   0.352348 0.200461 0.775472 -0.080307
C13   C     C_2   0.801251 0.312185 0.137128 -0.001720
C14   C     C_2   0.802827 0.688157 0.633987 0.039339
C15   C     C_2   0.300175 0.812664 0.135570 -0.000137
C16   C     C_2   0.307654 0.190432 0.630527 0.029484
C17   C     C_2   0.816705 0.350876 0.037351 -0.060373
C18   C     C_2   0.811149 0.645016 0.544205 -0.064504
C19   C     C_2   0.316034 0.851263 0.036296 -0.039463
C20   C     C_2   0.314100 0.146258 0.543719 -0.054560
C21   C     C_1   0.858713 0.388271 0.103608 0.120700
C22   C     C_1   0.860133 0.612610 0.601008 0.063684
C23   C     C_1   0.358545 0.888218 0.102951 0.109839
C24   C     C_1   0.361918 0.113017 0.601740 0.074191
C25   C     C_R   0.174387 0.691417 0.883432 -0.109933
C26   C     C_R   0.156095 0.298205 0.399964 -0.139230
C27   C     C_R   0.660456 0.199325 0.898299 -0.117664
C28   C     C_R   0.652491 0.796769 0.403571 -0.114862
C29   C     C_R   0.126010 0.654691 0.817446 0.045044
C30   C     C_R   0.111269 0.336749 0.330803 0.024173
C31   C     C_R   0.617579 0.159447 0.827506 0.047392
C32   C     C_R   0.610901 0.836991 0.330652 0.028367
C33   C     C_R   0.141629 0.612655 0.082039 0.110622
C34   C     C_R   0.137155 0.384922 0.585668 0.098788
C35   C     C_R   0.638322 0.114064 0.086048 0.123775
C36   C     C_R   0.636300 0.884850 0.586089 0.124408
C37   C     C_R   0.186796 0.646376 0.145940 -0.104781
C38   C     C_R   0.181954 0.351043 0.648168 -0.165767
C39   C     C_R   0.679964 0.149896 0.153698 -0.112925
C40   C     C_R   0.678260 0.849276 0.652492 -0.142014
C41   C     C_R   0.202844 0.689387 0.048747 0.025814
C42   C     C_R   0.192308 0.304716 0.557354 0.000374
C43   C     C_R   0.691751 0.195293 0.060763 0.004891
C44   C     C_R   0.687372 0.802360 0.562943 0.025288
C45   C     C_3   0.972890 0.280961 0.088760 1.319618
C46   C     C_3   0.002872 0.729304 0.653108 1.286418
C47   C     C_3   0.472504 0.780957 0.086880 1.328120
C48   C     C_3   0.499866 0.232130 0.604172 1.310341
C49   C     C_2   0.760892 0.269866 0.060449 -0.097478
C50   C     C_2   0.749509 0.722642 0.567855 -0.089899
C51   C     C_2   0.255177 0.773067 0.059754 -0.092427
C52   C     C_2   0.254964 0.225341 0.562885 -0.094894
C53   C     C_2   0.249330 0.727796 0.127092 -0.070018
C54   C     C_2   0.243271 0.269209 0.631331 -0.078336
C55   C     C_2   0.734091 0.235643 0.142477 -0.081212
C56   C     C_2   0.735966 0.765271 0.640484 -0.054042
C57   C     C_R   0.109417 0.616537 0.926963 -0.162064
C58   C     C_R   0.100270 0.378102 0.436240 -0.189175
C59   C     C_R   0.605779 0.118012 0.931435 -0.201496
C60   C     C_R   0.601524 0.879495 0.433616 -0.165822
C61   C     C_3   0.939500 0.230882 0.049965 -0.205766
C62   C     C_3   0.997752 0.785359 0.681545 -0.233109
C63   C     C_3   0.438746 0.731054 0.046604 -0.223693
C64   C     C_3   0.489692 0.288367 0.588758 -0.172351
C65   C     C_3   0.181591 0.469074 0.262798 0.825546
C66   C     C_3   0.188837 0.530988 0.761905 0.959158
C67   C     C_3   0.689870 0.969282 0.237474 0.841869
C68   C     C_3   0.689971 0.031187 0.751043 0.933362
C69   C     C_3   0.241139 0.438670 0.307887 0.282089
C70   C     C_3   0.235152 0.564232 0.698098 0.380915
C71   C     C_3   0.747049 0.943709 0.197071 0.333168
C72   C     C_3   0.741317 0.060971 0.695063 0.362755
C73   C     C_3   0.819963 0.529404 0.886285 0.372182
C74   C     C_3   0.812649 0.467616 0.434485 0.368844
C75   C     C_3   0.321980 0.030554 0.892073 0.385637
C76   C     C_3   0.313296 0.972064 0.389307 0.418178
C77   C     C_3   0.764466 0.564476 0.863927 0.523097
C78   C     C_3   0.758612 0.437502 0.474695 0.577493
C79   C     C_3   0.267077 0.066182 0.869832 0.552587
C80   C     C_3   0.250593 0.947341 0.317680 0.564784
C81   C     C_3   0.011806 0.281432 0.625510 0.498326
C82   C     C_3   0.975557 0.738399 0.112910 0.329405
C83   C     C_3   0.510588 0.780515 0.623522 0.492266
C84   C     C_3   0.492250 0.233440 0.139311 0.289889
C85   C     C_2   0.892630 0.381614 0.260713 -0.170953
C86   C     C_2   0.902621 0.622414 0.745010 -0.183942
C87   C     C_2   0.392468 0.881134 0.259760 -0.182177
C88   C     C_2   0.404770 0.122823 0.745533 -0.209993
H1    H     H_    0.027125 0.296108 0.750922 -0.016881
H2    H     H_    0.020742 0.717878 0.135426 0.033164
H3    H     H_    0.526566 0.794951 0.749067 -0.015589
H4    H     H_    0.530623 0.230125 0.248595 -0.000391
H5    H     H_    0.269843 0.453470 0.424650 0.002908
H6    H     H_    0.220228 0.603783 0.703827 -0.104632
H7    H     H_    0.778617 0.931493 0.312327 -0.026138
H8    H     H_    0.743654 0.099344 0.746663 -0.003439
H9    H     H_    0.227909 0.399578 0.329722 -0.043055
H10   H     H_    0.233316 0.554304 0.569284 -0.016675
H11   H     H_    0.731303 0.910041 0.121178 -0.040399
H12   H     H_    0.728029 0.065437 0.560805 -0.046487
H13   H     H_    0.829574 0.521123 0.766451 -0.041363
H14   H     H_    0.814521 0.460910 0.306269 -0.061649
H15   H     H_    0.333021 0.023550 0.773015 -0.033261
H16   H     H_    0.338530 0.977640 0.290559 -0.039092
H17   H     H_    0.861305 0.548078 0.964323 -0.052595
H18   H     H_    0.856664 0.454775 0.516055 -0.076771
H19   H     H_    0.362832 0.048327 0.975032 -0.060912
H20   H     H_    0.340883 0.947724 0.485337 -0.126696
H21   H     H_    0.775393 0.600478 0.811088 -0.107771
H22   H     H_    0.763222 0.397174 0.450412 -0.149133
H23   H     H_    0.278666 0.102128 0.817567 -0.139221
H24   H     H_    0.257796 0.911782 0.258344 -0.176752
H25   H     H_    0.753821 0.572101 0.983811 0.035191
H26   H     H_    0.758443 0.442116 0.605159 0.048827
H27   H     H_    0.256514 0.073771 0.989801 0.052401
H28   H     H_    0.225208 0.939389 0.415052 0.002363
H29   H     H_    0.031696 0.305588 0.542552 -0.056550
H30   H     H_    0.958654 0.745626 0.981491 0.035118
H31   H     H_    0.530700 0.804498 0.540362 -0.045887
H32   H     H_    0.510160 0.213948 0.043450 0.037243
H33   H     H_    0.089605 0.232327 0.642885 -0.037512
H34   H     H_    0.000225 0.784007 0.326260 -0.034787
H35   H     H_    0.586977 0.729982 0.637849 -0.415017
H36   H     H_    0.501676 0.312943 0.206655 -0.143049
H37   H     H_    0.892667 0.232271 0.079478 0.085671
H38   H     H_    0.042128 0.799621 0.759148 0.067366
H39   H     H_    0.391848 0.732562 0.075747 0.082070
H40   H     H_    0.529276 0.308503 0.668713 0.078603
H41   H     H_    0.742269 0.236837 0.273506 0.077578
H42   H     H_    0.762328 0.775008 0.760580 0.063011
H43   H     H_    0.278707 0.718434 0.244344 0.078372
H44   H     H_    0.272366 0.280891 0.745743 0.075671
H45   H     H_    0.797249 0.350460 0.907393 0.079801
H46   H     H_    0.778402 0.636706 0.430360 0.060256
H47   H     H_    0.295850 0.851449 0.906686 0.077933
H48   H     H_    0.280939 0.137946 0.430566 0.057096
H49   H     H_    0.186691 0.719034 0.802143 0.056315
H50   H     H_    0.161721 0.267093 0.323626 0.062512
H51   H     H_    0.664881 0.231684 0.824627 0.059140
H52   H     H_    0.656142 0.764685 0.329319 0.060230
H53   H     H_    0.225630 0.782655 0.943212 0.069738
H54   H     H_    0.225174 0.213614 0.449104 0.067559
H55   H     H_    0.753326 0.267383 0.929572 0.083333
H56   H     H_    0.721816 0.712285 0.449938 0.062394
H57   H     H_    0.819144 0.284588 0.386225 0.075085
H58   H     H_    0.845844 0.732951 0.843397 0.033510
H59   H     H_    0.310738 0.787914 0.385682 0.061450
H60   H     H_    0.351108 0.234862 0.840869 0.097415
H61   H     H_    0.213098 0.641563 0.269654 0.058942
H62   H     H_    0.211890 0.357899 0.766628 0.087832
H63   H     H_    0.706569 0.145184 0.277132 0.081137
H64   H     H_    0.706803 0.855120 0.773372 0.071638
H65   H     H_    0.942470 0.389827 0.290954 0.080411
H66   H     H_    0.943169 0.598648 0.783135 0.056481
H67   H     H_    0.442395 0.889031 0.289924 0.081492
H68   H     H_    0.444137 0.097988 0.785504 0.048488
H69   H     H_    0.073842 0.589126 0.876417 0.045618
H70   H     H_    0.064652 0.405149 0.386328 0.094562
H71   H     H_    0.573485 0.088744 0.877199 0.055520
H72   H     H_    0.569026 0.908368 0.380055 0.066059
H73   H     H_    0.933214 0.222267 0.918856 0.098592
H74   H     H_    0.959022 0.792534 0.743382 0.087737
H75   H     H_    0.432472 0.722706 0.915335 0.088894
H76   H     H_    0.445400 0.298450 0.623586 0.102945
H77   H     H_    0.966687 0.200739 0.122651 0.051964
H78   H     H_    0.988008 0.806592 0.566379 0.009893
H79   H     H_    0.465596 0.700651 0.118679 0.047849
H80   H     H_    0.487761 0.300770 0.463159 -0.017076
H81   H     H_    0.150507 0.452694 0.153449 0.028050
H82   H     H_    0.140905 0.543786 0.704560 -0.164717
H83   H     H_    0.647440 0.957851 0.146833 -0.011991
H84   H     H_    0.643812 0.044665 0.682380 -0.132794
O1    O     O_2   0.875320 0.428620 0.822840 -0.485370
O2    O     O_2   0.875320 0.571380 0.322840 -0.436043
O3    O     O_2   0.375320 0.928620 0.822840 -0.459230
O4    O     O_2   0.375320 0.071380 0.322840 -0.444038
O5    O     O_3   0.199494 0.480828 0.729152 -0.611503
O6    O     O_3   0.197558 0.518369 0.236060 -0.606177
O7    O     O_3   0.699806 0.980080 0.729804 -0.595165
O8    O     O_3   0.700052 0.021122 0.242719 -0.583504
O9    O     O_3   0.033014 0.278946 0.055167 -0.669968
O10   O     O_3   0.050297 0.720790 0.568035 -0.640009
O11   O     O_3   0.532810 0.778851 0.054293 -0.670107
O12   O     O_3   0.552872 0.220054 0.544448 -0.651810
O13   O     O_3   0.072510 0.524860 0.092920 -0.489475
O14   O     O_3   0.072510 0.475140 0.592920 -0.462021
O15   O     O_3   0.572510 0.024860 0.092920 -0.508012
O16   O     O_3   0.572510 0.975140 0.592920 -0.497912
O17   O     O_3   0.927380 0.474960 0.096800 -0.498885
O18   O     O_3   0.927380 0.525040 0.596800 -0.520187
O19   O     O_3   0.427380 0.974960 0.096800 -0.511452
O20   O     O_3   0.427380 0.025040 0.596800 -0.513386
O21   O     O_3   0.978260 0.384470 0.628120 -0.507228
O22   O     O_3   0.978260 0.615530 0.128120 -0.472740
O23   O     O_3   0.478260 0.884470 0.628120 -0.503356
O24   O     O_3   0.478260 0.115530 0.128120 -0.484757
O25   O     O_2   0.879696 0.341771 0.706260 -0.431411
O26   O     O_2   0.856261 0.633607 0.103059 -0.508135
O27   O     O_2   0.379124 0.842032 0.705133 -0.425735
O28   O     O_2   0.357959 0.137107 0.105623 -0.503476
O29   O     O_3   0.804734 0.485168 0.957876 -0.634966
O30   O     O_3   0.800598 0.518311 0.453700 -0.609592
O31   O     O_3   0.305079 0.985555 0.956414 -0.602127
O32   O     O_3   0.301777 0.017412 0.457955 -0.619403
O33   O     O_3   0.946001 0.280425 0.578101 -0.550780
O34   O     O_3   0.931081 0.710668 0.174158 -0.601655
O35   O     O_3   0.444771 0.780254 0.577583 -0.576098
O36   O     O_3   0.437598 0.211555 0.173668 -0.561153
O37   O     O_2   0.124210 0.428020 0.866900 -0.473695
O38   O     O_2   0.124210 0.571980 0.366900 -0.464626
O39   O     O_2   0.624210 0.928020 0.866900 -0.491181
O40   O     O_2   0.624210 0.071980 0.366900 -0.481298
O41   O     O_3   0.021040 0.384370 0.061630 -0.422246
O42   O     O_3   0.021040 0.615630 0.561630 -0.437722
O43   O     O_3   0.521040 0.884370 0.061630 -0.424122
O44   O     O_3   0.521040 0.115630 0.561630 -0.437710
O45   O     O_2   0.121469 0.340042 0.005422 -0.524426
O46   O     O_2   0.124097 0.655356 0.486718 -0.510244
O47   O     O_2   0.621511 0.840058 0.005670 -0.527055
O48   O     O_2   0.630717 0.150594 0.513851 -0.518744
P1    P     P_3+3 0.869190 0.445350 0.992760 0.994735
P2    P     P_3+3 0.869190 0.554650 0.492760 1.001579
P3    P     P_3+3 0.369190 0.945350 0.992760 1.013831
P4    P     P_3+3 0.369190 0.054650 0.492760 1.011454
P5    P     P_3+3 0.130420 0.444720 0.696970 1.095084
P6    P     P_3+3 0.130420 0.555280 0.196970 1.099167
P7    P     P_3+3 0.630420 0.944720 0.696970 1.069391
P8    P     P_3+3 0.630420 0.055280 0.196970 1.074127
P9    P     P_3+3 0.073260 0.335401 0.113728 1.004111
P10   P     P_3+3 0.081141 0.660380 0.607835 1.043870
P11   P     P_3+3 0.573134 0.835303 0.113433 1.003659
P12   P     P_3+3 0.580546 0.160617 0.611856 1.028892
P13   P     P_3+3 0.915474 0.655927 0.058700 0.972825
P14   P     P_3+3 0.916860 0.341773 0.571050 1.037210
P15   P     P_3+3 0.417648 0.157329 0.057901 0.988136
P16   P     P_3+3 0.416491 0.841826 0.570357 1.042168
O49   O     O_3   0.271614 0.439703 0.176471 -0.643088
C89   C     C_3   0.336222 0.450681 0.229036 0.290717
H85   H     H_    0.359776 0.436630 0.134593 0.076371
H86   H     H_    0.357897 0.430773 0.343746 0.003325
C90   C     C_3   0.347692 0.507402 0.245601 -0.168775
H87   H     H_    0.326361 0.525980 0.128723 0.205008
H88   H     H_    0.325532 0.522633 0.341135 0.114766
C91   C     C_3   0.417510 0.519803 0.290575 -0.532851
H89   H     H_    0.439605 0.502240 0.408512 0.145672
H90   H     H_    0.424218 0.560998 0.301814 0.136327
H91   H     H_    0.440899 0.506126 0.195338 0.146237
O50   O     O_3   0.296274 0.557412 0.793334 -0.631184
C92   C     C_3   0.337705 0.591683 0.743095 0.295787
H92   H     H_    0.322285 0.630949 0.753813 0.022589
H93   H     H_    0.340145 0.584600 0.614766 0.022175
C93   C     C_3   0.403208 0.586812 0.852257 -0.173453
H94   H     H_    0.433978 0.616596 0.819792 0.097621
H95   H     H_    0.400808 0.592367 0.981035 0.113542
C94   C     C_3   0.431991 0.535903 0.833793 -0.383482
H96   H     H_    0.403108 0.505372 0.869722 0.168440
H97   H     H_    0.479691 0.534295 0.913291 0.115651
H98   H     H_    0.435632 0.530154 0.706126 0.118663
O51   O     O_3   0.778039 0.977680 0.112414 -0.588721
C95   C     C_3   0.836462 0.959138 0.096791 0.309592
H99   H     H_    0.847859 0.978562 0.991538 0.141683
H100  H     H_    0.835186 0.918351 0.070283 0.001015
C96   C     C_3   0.888311 0.971865 0.245553 -0.226918
H101  H     H_    0.882254 0.010656 0.286536 0.138579
H102  H     H_    0.885719 0.945534 0.345284 0.094194
C97   C     C_3   0.952842 0.967484 0.207150 -0.501305
H103  H     H_    0.957703 0.930361 0.152843 0.161762
H104  H     H_    0.989658 0.971777 0.320283 0.144915
H105  H     H_    0.959565 0.997209 0.120315 0.138715
O52   O     O_3   0.799931 0.037512 0.752682 -0.629665
C98   C     C_3   0.829311 0.026598 0.623872 0.278394
H106  H     H_    0.847076 0.062005 0.580250 0.028366
H107  H     H_    0.796659 0.008134 0.520023 0.093751
C99   C     C_3   0.884732 0.991673 0.684595 -0.180666
H108  H     H_    0.917191 0.993785 0.600931 0.067258
H109  H     H_    0.911290 0.004376 0.805723 0.124336
C100  C     C_3   0.863650 0.937146 0.694655 -0.405907
H110  H     H_    0.823883 0.934125 0.755493 0.164238
H111  H     H_    0.903238 0.914637 0.763368 0.126226
H112  H     H_    0.848283 0.920933 0.571565 0.113609
F1    F     F_    0.712818 0.542874 0.762063 -0.704713
F2    F     F_    0.702217 0.454241 0.382413 -0.690543
F3    F     F_    0.215169 0.045133 0.767483 -0.707069
F4    F     F_    0.214890 0.978634 0.203215 -0.694678
O53   O     O_3   0.015546 0.209960 0.457976 -0.611592
C101  C     C_3   0.033068 0.159608 0.441036 0.295536
H113  H     H_    0.001710 0.144216 0.330061 0.057848
H114  H     H_    0.024375 0.135126 0.539600 0.076915
C102  C     C_3   0.100549 0.155405 0.419709 -0.303936
H115  H     H_    0.103808 0.172395 0.301776 0.122230
H116  H     H_    0.133483 0.175919 0.516435 0.113562
C103  C     C_3   0.121063 0.100753 0.426337 -0.426278
H117  H     H_    0.123341 0.085074 0.549163 0.196073
H118  H     H_    0.168196 0.098233 0.399021 0.176928
H119  H     H_    0.087480 0.077779 0.337309 0.130394
O54   O     O_3   0.036668 0.812400 0.137812 -0.665866
C104  C     C_3   0.064082 0.851573 0.242562 0.268092
H120  H     H_    0.100932 0.835987 0.342440 0.032794
H121  H     H_    0.029621 0.871526 0.298226 0.025560
C105  C     C_3   0.093266 0.889889 0.146381 -0.144486
H122  H     H_    0.056251 0.905912 0.047969 0.121747
H123  H     H_    0.114232 0.920849 0.228677 0.111472
C106  C     C_3   0.143631 0.866412 0.072017 -0.338573
H124  H     H_    0.179705 0.848661 0.168436 0.110688
H125  H     H_    0.166151 0.895685 0.010388 0.161685
H126  H     H_    0.122921 0.837595 0.981022 0.146380
O55   O     O_3   0.511531 0.708937 0.454728 -0.619830
C107  C     C_3   0.527078 0.658173 0.436528 0.304829
H127  H     H_    0.494588 0.643409 0.326371 0.041958
H128  H     H_    0.518169 0.633963 0.535492 0.064443
C108  C     C_3   0.593959 0.652462 0.412031 -0.294249
H129  H     H_    0.596918 0.669168 0.293475 0.117523
H130  H     H_    0.628086 0.672451 0.507547 0.150465
C109  C     C_3   0.612629 0.597386 0.417528 -0.421122
H131  H     H_    0.614851 0.581673 0.540347 0.197064
H132  H     H_    0.659495 0.593878 0.389138 0.179579
H133  H     H_    0.578061 0.575169 0.328489 0.133582
O56   O     O_3   0.513997 0.302257 0.972337 -0.635090
C110  C     C_3   0.578531 0.312108 0.033502 0.220698
H134  H     H_    0.604126 0.295558 0.947150 0.090794
H135  H     H_    0.598075 0.294589 0.153952 -0.008781
C111  C     C_3   0.590276 0.368681 0.041028 -0.185712
H136  H     H_    0.566567 0.385963 0.923792 0.135494
H137  H     H_    0.570397 0.385060 0.139114 0.134231
C112  C     C_3   0.660031 0.380899 0.072673 -0.409604
H138  H     H_    0.684922 0.364234 0.189618 0.151540
H139  H     H_    0.667086 0.422113 0.078060 0.204850
H140  H     H_    0.680076 0.366113 0.972732 0.103873
O57   O     O_3   0.016067 0.197663 0.732478 -0.664533
C113  C     C_3   0.064004 0.187413 0.871657 0.190539
H141  H     H_    0.041237 0.182909 0.975214 0.101137
H142  H     H_    0.098586 0.218593 0.905150 0.037337
C114  C     C_3   0.097135 0.138270 0.852017 -0.218643
H143  H     H_    0.062143 0.109609 0.795188 0.140466
H144  H     H_    0.131142 0.144539 0.774537 0.116098
C115  C     C_3   0.131673 0.117634 0.015042 -0.436626
H145  H     H_    0.168650 0.144213 0.076358 0.122849
H146  H     H_    0.152966 0.081224 0.997064 0.209669
H147  H     H_    0.097731 0.110655 0.091817 0.128797
O58   O     O_3   0.932859 0.819836 0.140988 -0.672776
C116  C     C_3   0.889598 0.814670 0.241806 0.219335
H148  H     H_    0.888659 0.850499 0.307618 0.046755
H149  H     H_    0.900744 0.784344 0.334327 0.106029
C117  C     C_3   0.824845 0.804047 0.134953 -0.165509
H150  H     H_    0.812130 0.833554 0.040883 0.112937
H151  H     H_    0.825569 0.767645 0.072837 0.130613
C118  C     C_3   0.775299 0.801158 0.234897 -0.490968
H152  H     H_    0.786341 0.770036 0.323166 0.154908
H153  H     H_    0.728965 0.793808 0.153309 0.153283
H154  H     H_    0.773417 0.836695 0.301297 0.123963
O59   O     O_3   0.513146 0.696756 0.729860 -0.693671
C119  C     C_3   0.561314 0.685570 0.867582 0.201062
H155  H     H_    0.539044 0.681345 0.972102 0.084426
H156  H     H_    0.596762 0.716160 0.900733 0.072787
C120  C     C_3   0.592842 0.635864 0.845569 -0.205710
H157  H     H_    0.556878 0.607816 0.789445 0.131424
H158  H     H_    0.626401 0.641609 0.766540 0.133967
C121  C     C_3   0.627706 0.614541 0.007247 -0.459549
H159  H     H_    0.664968 0.640821 0.069009 0.127604
H160  H     H_    0.648743 0.578197 0.987100 0.192871
H161  H     H_    0.594040 0.607299 0.084637 0.129083
O60   O     O_3   0.418139 0.299582 0.034910 -0.640177
C122  C     C_3   0.388880 0.314011 0.160665 0.250625
H162  H     H_    0.403615 0.352674 0.201429 0.016357
H163  H     H_    0.401011 0.288430 0.266626 0.098546
C123  C     C_3   0.318047 0.312244 0.098342 -0.162588
H164  H     H_    0.302920 0.344972 0.018078 0.132369
H165  H     H_    0.304311 0.277406 0.027794 0.116770
C124  C     C_3   0.284929 0.312204 0.238473 -0.454039
H166  H     H_    0.290659 0.275271 0.300279 0.146682
H167  H     H_    0.234422 0.319043 0.190476 0.158485
H168  H     H_    0.304805 0.341540 0.328308 0.132774
F5    F     F_    0.937373 0.316417 0.992557 -0.708237
F6    F     F_    0.946528 0.711817 0.561151 -0.730025
F7    F     F_    0.437349 0.816689 0.991061 -0.708813
F8    F     F_    0.447732 0.207502 0.514821 -0.712220
F9    F     F_    0.976411 0.291787 0.250378 -0.765515
F10   F     F_    0.015431 0.706557 0.804174 -0.826978
F11   F     F_    0.475762 0.791495 0.248554 -0.768970
F12   F     F_    0.507812 0.220017 0.766057 -0.800596
F13   F     F_    0.152157 0.468015 0.388812 -0.809898
F14   F     F_    0.199465 0.536730 0.927324 -0.755197
F15   F     F_    0.684209 0.953985 0.388733 -0.828100
F16   F     F_    0.695275 0.039943 0.913723 -0.752762

loop_
_geom_bond_atom_site_label_1
_geom_bond_atom_site_label_2
_ccdc_geom_bond_type
O9    P9    S    
O20   P4    S    
C13   C49   S    
C101  C102  S    
C17   H45   S    
C60   H72   S    
C45   F5    S    
O23   P16   S    
C24   P4    S    
O26   P13   D    
C11   H59   S    
C114  H143  S    
C104  H120  S    
C20   H48   S    
C32   P11   S    
C59   H71   S    
C41   C53   S    
Ba4   P8    S    
C51   H53   S    
Ba3   O39   S    
C93   C94   S    
C25   C29   S    
O52   C98   S    
C79   H27   S    
C5    C9    A    
C7    C11   A    
C105  C106  S    
C8    C12   A    
C66   C70   S    
C89   H86   S    
C81   H29   S    
C111  H136  S    
Ba1   P1    S    
C47   F11   S    
Ba1   O14   S    
C69   H9    S    
C80   F4    S    
C90   H87   S    
C71   H11   S    
Ba4   O15   S    
C65   H81   S    
O28   P15   D    
C91   H90   S    
C71   O51   S    
C89   C90   S    
C67   F15   S    
C110  H134  S    
O51   C95   S    
C115  H145  S    
C124  H168  S    
O41   P9    S    
O57   C113  S    
C119  C120  S    
C13   C17   A    
C25   C41   A    
C100  H112  S    
C15   C19   A    
C4    O56   S    
O22   P13   S    
O43   P11   S    
C74   C78   S    
C66   O5    S    
C61   H37   S    
O59   C119  S    
C12   C16   A    
C76   H20   S    
C111  C112  S    
C116  C117  S    
O42   P10   S    
C103  H117  S    
Ba2   O38   S    
C51   C53   D    
C97   H104  S    
C22   C86   A    
C78   H26   S    
C56   H42   S    
C114  C115  S    
O37   P5    D    
O54   C104  S    
Ba2   P2    S    
C104  C105  S    
C63   H75   S    
O46   P10   D    
C109  H133  S    
O12   P12   S    
Ba2   O14   S    
C94   H97   S    
C81   O33   S    
C85   H65   S    
C46   F10   S    
C72   H8    S    
O19   P3    S    
C74   H14   S    
Ba2   O17   S    
C63   H79   S    
O13   P6    S    
O24   P15   S    
O17   P1    S    
C113  C114  S    
C23   P3    S    
C75   O31   S    
C27   C31   S    
C21   P1    S    
C117  H150  S    
C122  C123  S    
C27   H51   S    
C28   H52   S    
O36   P15   S    
C43   C55   S    
C7    C87   A    
C29   C57   S    
C84   O36   S    
C90   C91   S    
C120  H157  S    
Ba2   O42   S    
C37   C41   S    
C53   H43   S    
C31   C59   S    
C110  H135  S    
C32   C60   S    
C39   C43   S    
C40   C44   S    
O50   C92   S    
C34   C58   D    
O16   P7    S    
Ba4   O40   S    
C77   H25   S    
C96   H102  S    
C118  H152  S    
C115  H147  S    
C84   H32   S    
C123  H164  S    
C118  H154  S    
C70   H6    S    
C28   C32   S    
C38   H62   S    
C92   H92   S    
C96   C97   S    
C121  H159  S    
C107  H127  S    
O49   C89   S    
C109  H132  S    
C81   H1    S    
O6    P6    S    
C103  H119  S    
C67   H83   S    
C95   H99   S    
C83   H3    S    
C23   C87   A    
C45   F9    S    
C1    C81   S    
C105  H123  S    
C80   H24   S    
C42   C54   S    
C112  H139  S    
C71   H7    S    
C34   P5    S    
C37   H61   S    
C26   C30   S    
C40   H64   S    
C79   H23   S    
C98   C99   S    
C74   H18   S    
C6    C10   A    
Ba3   P7    S    
C113  H141  S    
C7    P16   S    
C117  C118  S    
C4    C84   S    
C73   H17   S    
O30   P2    S    
C102  H115  S    
C47   F7    S    
C25   H49   S    
C119  H156  S    
O53   C101  S    
C47   C63   S    
O29   P1    S    
C66   H82   S    
C64   H76   S    
C95   H100  S    
C76   O32   S    
C77   F1    S    
Ba3   Ba4   S    
C46   O10   S    
O7    P7    S    
C79   F3    S    
C50   H56   S    
C17   C21   A    
C108  C109  S    
O45   P9    D    
C14   C18   A    
C83   O35   S    
C26   C42   A    
Ba1   O21   S    
C20   C24   A    
C92   C93   S    
C96   H101  S    
C100  H111  S    
C76   H16   S    
C2    C82   S    
C107  C108  S    
C9    C13   A    
C106  H126  S    
C35   P8    S    
Ba3   O16   S    
O32   P4    S    
C83   H31   S    
C95   C96   S    
C52   C54   D    
C120  C121  S    
C33   C37   D    
C68   H84   S    
C78   H22   S    
Ba2   P6    S    
O1    P1    D    
C36   C40   D    
C45   O9    S    
O58   C116  S    
C6    P13   S    
C1    H33   S    
O35   P16   S    
C111  H137  S    
Ba2   O2    S    
C3    H35   S    
C30   P9    S    
O10   P10   S    
Ba1   O13   S    
C72   H12   S    
C84   H4    S    
C28   C44   A    
Ba4   O16   S    
C98   H106  S    
C120  H158  S    
C76   C80   S    
O25   P14   D    
C11   C15   A    
C115  H146  S    
C102  C103  S    
C124  H167  S    
C61   H73   S    
C30   C58   S    
C101  H113  S    
C38   C42   S    
C64   H40   S    
O60   C122  S    
C3    C83   S    
Ba4   O44   S    
C99   C100  S    
C82   H30   S    
C65   C69   S    
C116  H149  S    
C87   H67   S    
C99   H108  S    
C16   C52   S    
C70   H10   S    
C103  H118  S    
O56   C110  S    
C108  H129  S    
C27   C43   A    
C48   F8    S    
C97   H105  S    
Ba4   O4    S    
C39   H63   S    
C114  H144  S    
C8    C88   A    
C104  H121  S    
C123  H165  S    
C106  H124  S    
O34   P13   S    
C2    H34   S    
C65   F13   S    
C5    C85   A    
O4    P4    D    
C61   H77   S    
C74   O30   S    
O21   P14   S    
C73   C77   S    
C80   H28   S    
C10   H58   S    
C117  H151  S    
C89   H85   S    
C75   H15   S    
C12   H60   S    
C36   P7    S    
C3    O59   S    
O31   P3    S    
C90   H88   S    
Ba1   O37   S    
C57   H69   S    
O38   P6    D    
Ba3   P3    S    
C91   H89   S    
C15   C51   S    
C67   O8    S    
C82   O34   S    
C68   O7    S    
C88   H68   S    
C70   O50   S    
C118  H153  S    
C18   H46   S    
C21   C85   A    
Ba3   O20   S    
C26   H50   S    
O14   P5    S    
O18   P2    S    
C73   H13   S    
Ba1   O18   S    
O48   P12   D    
C2    O54   S    
C75   C79   S    
C64   H80   S    
C58   H70   S    
C121  H160  S    
C22   P2    S    
C107  H128  S    
C68   F16   S    
Ba4   P4    S    
C52   H54   S    
C78   F2    S    
C123  C124  S    
C47   O11   S    
C69   O49   S    
C6    C86   A    
Ba3   O43   S    
C18   C22   A    
C77   H21   S    
C97   H103  S    
Ba1   O41   S    
C121  H161  S    
Ba4   O19   S    
O55   C107  S    
C4    O60   S    
C112  H138  S    
C10   C14   A    
C122  H162  S    
Ba2   O13   S    
C68   C72   S    
C94   H98   S    
C49   C55   D    
C50   C56   D    
C69   H5    S    
C45   C61   S    
O39   P7    D    
C19   H47   S    
C98   H107  S    
C34   C38   D    
C73   O29   S    
C113  H142  S    
C1    O57   S    
C49   H55   S    
Ba1   Ba2   S    
Ba3   O3    S    
C48   O12   S    
C82   H2    S    
Ba1   O1    S    
C8    P15   S    
O44   P12   S    
C16   C20   A    
O5    P5    S    
O15   P8    S    
Ba3   O23   S    
C3    O55   S    
C48   C64   S    
C91   H91   S    
C65   O6    S    
O3    P3    D    
C4    H36   S    
C44   C56   S    
C33   P6    S    
C108  H130  S    
C62   H74   S    
C72   O52   S    
O33   P14   S    
O8    P8    S    
C122  H163  S    
C92   H93   S    
C35   C39   D    
C54   H44   S    
C100  H110  S    
C55   H41   S    
C93   H95   S    
C106  H125  S    
C86   H66   S    
C109  H131  S    
Ba3   O15   S    
C46   F6    S    
Ba4   O24   S    
C93   H94   S    
C48   F12   S    
C24   C88   A    
C46   C62   S    
O27   P16   D    
O47   P11   D    
C105  H122  S    
C19   C23   A    
C112  H140  S    
C99   H109  S    
C94   H96   S    
C66   F14   S    
C2    O58   S    
Ba2   O22   S    
C62   H78   S    
C63   H39   S    
C1    O53   S    
C33   C57   D    
C35   C59   D    
C36   C60   D    
C75   H19   S    
C110  C111  S    
C9    H57   S    
C102  H116  S    
C124  H166  S    
C67   C71   S    
C119  H155  S    
O40   P8    D    
C101  H114  S    
O2    P2    D    
C14   C50   S    
Ba1   P5    S    
C5    P14   S    
C31   P12   S    
C116  H148  S    
O11   P11   S    
C29   P10   S    
C62   H38   S    
