data_mof_unit_32023.cif
_audit_creation_date              2012-12-11T16:26:21-0500
_audit_creation_method            fapswitch 2.2
_symmetry_space_group_name_H-M    P1
_symmetry_Int_Tables_number       1
_space_group_crystal_system       triclinic
_cell_length_a                    13.994532
_cell_length_b                    14.000028
_cell_length_c                    31.909453
_cell_angle_alpha                 90.045035
_cell_angle_beta                  89.932397
_cell_angle_gamma                 119.98225
_cell_volume                      5415.20138243

loop_
_atom_site_label
_atom_site_type_symbol
_atom_type_description
_atom_site_fract_x
_atom_site_fract_y
_atom_site_fract_z
_atom_type_partial_charge
C1    C     C_R   0.566900 0.444613 0.810128 0.541492
C2    C     C_R   0.875673 0.431845 0.689202 0.550519
C3    C     C_R   0.555420 0.122594 0.810217 0.560742
C4    C     C_R   0.568085 0.443813 0.689240 0.542346
C5    C     C_R   0.877265 0.432809 0.810236 0.563082
C6    C     C_R   0.556249 0.124322 0.689201 0.548989
C7    C     C_R   0.444247 0.567127 0.310346 0.548640
C8    C     C_R   0.431550 0.874958 0.189200 0.562139
C9    C     C_R   0.122768 0.555740 0.310331 0.548585
C10   C     C_R   0.443555 0.568548 0.189164 0.561604
C11   C     C_R   0.432889 0.877205 0.310336 0.548855
C12   C     C_R   0.125066 0.556526 0.189208 0.562077
C13   C     C_1   0.030808 0.528401 0.015475 0.014055
C14   C     C_1   0.528173 0.016346 0.478625 0.012538
C15   C     C_1   0.474117 0.503223 0.015237 0.010312
C16   C     C_1   0.983992 0.512118 0.478676 0.012689
C17   C     C_1   0.499578 0.970106 0.015511 0.011866
C18   C     C_1   0.487895 0.473295 0.478854 0.012770
C19   C     C_1   0.530230 0.022811 0.516147 0.022776
C20   C     C_1   0.019936 0.525713 0.978223 0.009493
C21   C     C_1   0.492395 0.471254 0.516376 0.022622
C22   C     C_1   0.507505 0.980688 0.978237 0.006780
C23   C     C_1   0.977575 0.507636 0.516195 0.022963
C24   C     C_1   0.476288 0.495952 0.977868 0.001752
C25   C     C_R   0.935446 0.473309 0.850476 -0.012690
C26   C     C_R   0.541920 0.074162 0.647191 -0.030536
C27   C     C_R   0.524101 0.463578 0.849647 -0.029127
C28   C     C_R   0.925890 0.467618 0.647196 -0.029615
C29   C     C_R   0.537399 0.063972 0.850395 -0.011659
C30   C     C_R   0.532094 0.458426 0.647336 -0.030445
C31   C     C_R   0.475793 0.937595 0.350211 -0.038625
C32   C     C_R   0.083273 0.545574 0.146200 -0.004993
C33   C     C_R   0.461533 0.524429 0.350297 -0.038635
C34   C     C_R   0.462741 0.916853 0.146201 -0.005308
C35   C     C_R   0.062337 0.538368 0.350214 -0.038724
C36   C     C_R   0.455075 0.537547 0.146147 -0.005474
C37   C     C_R   0.913501 0.544320 0.874544 -0.189655
C38   C     C_R   0.636175 0.091193 0.625017 -0.197391
C39   C     C_R   0.450621 0.371489 0.873468 -0.194812
C40   C     C_R   0.908914 0.544878 0.625114 -0.197222
C41   C     C_R   0.630237 0.082868 0.873808 -0.195973
C42   C     C_R   0.455244 0.364317 0.625083 -0.197466
C43   C     C_R   0.549586 0.918112 0.373508 -0.183235
C44   C     C_R   0.128575 0.640926 0.121265 -0.199051
C45   C     C_R   0.368176 0.451362 0.373762 -0.183251
C46   C     C_R   0.512860 0.871459 0.121275 -0.198914
C47   C     C_R   0.081943 0.631648 0.373572 -0.183107
C48   C     C_R   0.360050 0.487152 0.121056 -0.199246
C49   C     C_R   0.946335 0.565561 0.916122 -0.181365
C50   C     C_R   0.630553 0.069535 0.582264 -0.187853
C51   C     C_R   0.429915 0.383657 0.915104 -0.186021
C52   C     C_R   0.930668 0.561010 0.582375 -0.188676
C53   C     C_R   0.619393 0.050557 0.915439 -0.182660
C54   C     C_R   0.439166 0.370341 0.582374 -0.188994
C55   C     C_R   0.572213 0.951170 0.415076 -0.176415
C56   C     C_R   0.109518 0.633733 0.078536 -0.189680
C57   C     C_R   0.378553 0.429221 0.415392 -0.176489
C58   C     C_R   0.525382 0.890909 0.078570 -0.190318
C59   C     C_R   0.048998 0.621273 0.415168 -0.176401
C60   C     C_R   0.367878 0.475322 0.078313 -0.189742
C61   C     C_R   0.003881 0.518518 0.933952 -0.012435
C62   C     C_R   0.531244 0.031529 0.560878 0.002161
C63   C     C_R   0.481100 0.488063 0.933341 -0.019357
C64   C     C_R   0.968815 0.499837 0.560915 0.002081
C65   C     C_R   0.515383 0.996093 0.933921 -0.008230
C66   C     C_R   0.500083 0.469910 0.561104 0.001349
C67   C     C_R   0.522768 0.005403 0.433932 -0.023983
C68   C     C_R   0.045147 0.531237 0.059804 0.003769
C69   C     C_R   0.482252 0.478448 0.434150 -0.023798
C70   C     C_R   0.487878 0.955795 0.059849 0.004105
C71   C     C_R   0.994792 0.517656 0.433982 -0.024049
C72   C     C_R   0.470709 0.513832 0.059682 0.003734
C73   C     C_R   0.037203 0.456908 0.909439 0.284276
C74   C     C_R   0.434748 0.008309 0.582674 0.299532
C75   C     C_R   0.544402 0.582851 0.908790 0.305709
C76   C     C_R   0.992018 0.426542 0.582616 0.299180
C77   C     C_R   0.420110 0.965146 0.909992 0.284041
C78   C     C_R   0.572985 0.566251 0.583002 0.300448
C79   C     C_R   0.459006 0.037546 0.409944 0.314142
C80   C     C_R   0.996619 0.433791 0.084086 0.313717
C81   C     C_R   0.578167 0.541493 0.410023 0.313984
C82   C     C_R   0.438879 0.004400 0.084126 0.314084
C83   C     C_R   0.962507 0.421768 0.409942 0.314003
C84   C     C_R   0.567835 0.563000 0.084150 0.313758
C85   C     C_R   0.999558 0.430586 0.867684 0.281635
C86   C     C_R   0.438932 0.025077 0.626295 0.267584
C87   C     C_R   0.565805 0.570761 0.866641 0.291338
C88   C     C_R   0.975042 0.413777 0.626229 0.267444
C89   C     C_R   0.430900 0.002643 0.868233 0.280594
C90   C     C_R   0.585505 0.561661 0.626594 0.269643
C91   C     C_R   0.435230 0.003445 0.367855 0.287041
C92   C     C_R   0.014773 0.441370 0.127860 0.295021
C93   C     C_R   0.567910 0.564743 0.367868 0.287154
C94   C     C_R   0.427586 0.985788 0.127876 0.294736
C95   C     C_R   0.996425 0.432024 0.367821 0.287037
C96   C     C_R   0.559608 0.573489 0.127935 0.295081
Cr1   Cr    Cr6+3 0.504240 0.249200 0.750000 1.032395
Cr2   Cr    Cr6+3 0.744960 0.495760 0.750000 1.043404
Cr3   Cr    Cr6+3 0.750800 0.255040 0.750000 1.032355
Cr4   Cr    Cr6+3 0.249200 0.504240 0.250000 1.030015
Cr5   Cr    Cr6+3 0.495760 0.744960 0.250000 1.029954
Cr6   Cr    Cr6+3 0.255040 0.750800 0.250000 1.029995
H1    H     H_    0.864114 0.577610 0.862173 0.174282
H2    H     H_    0.716088 0.127534 0.640097 0.171209
H3    H     H_    0.415729 0.288912 0.860949 0.145944
H4    H     H_    0.872520 0.588411 0.640248 0.171358
H5    H     H_    0.712455 0.129541 0.860829 0.145753
H6    H     H_    0.412038 0.284235 0.640050 0.171459
H7    H     H_    0.583497 0.869639 0.360712 0.179781
H8    H     H_    0.183568 0.721341 0.134471 0.143317
H9    H     H_    0.285816 0.417697 0.361032 0.179865
H10   H     H_    0.537818 0.816097 0.134465 0.143217
H11   H     H_    0.130457 0.713975 0.360800 0.179885
H12   H     H_    0.279403 0.461514 0.134146 0.142623
H13   H     H_    0.147221 0.708453 0.059869 0.121124
H14   H     H_    0.622828 0.928035 0.433293 0.156355
H15   H     H_    0.293359 0.438196 0.059535 0.121102
H16   H     H_    0.072232 0.695010 0.433433 0.156407
H17   H     H_    0.562351 0.853055 0.059905 0.118854
H18   H     H_    0.304780 0.379132 0.433714 0.156462
H19   H     H_    0.704870 0.087036 0.565472 0.118588
H20   H     H_    0.922208 0.614539 0.934941 0.148363
H21   H     H_    0.382670 0.296132 0.565515 0.118622
H22   H     H_    0.692748 0.072658 0.933760 0.136776
H23   H     H_    0.913103 0.617791 0.565655 0.118833
H24   H     H_    0.379318 0.310797 0.933781 0.135858
O1    O     O_R   0.480350 0.140770 0.796330 -0.471613
O2    O     O_R   0.660420 0.519650 0.703670 -0.465289
O3    O     O_R   0.859230 0.339580 0.796330 -0.475293
O4    O     O_R   0.480350 0.140770 0.703670 -0.459436
O5    O     O_R   0.660420 0.519650 0.796330 -0.467873
O6    O     O_R   0.859230 0.339580 0.703670 -0.460200
O7    O     O_R   0.140770 0.480350 0.296330 -0.463937
O8    O     O_R   0.519650 0.660420 0.203670 -0.495761
O9    O     O_R   0.339580 0.859230 0.296330 -0.463956
O10   O     O_R   0.140770 0.480350 0.203670 -0.495822
O11   O     O_R   0.519650 0.660420 0.296330 -0.463951
O12   O     O_R   0.339580 0.859230 0.203670 -0.496004
O13   O     O_R   0.514930 0.348530 0.793250 -0.514920
O14   O     O_R   0.833600 0.485070 0.706750 -0.509719
O15   O     O_R   0.651470 0.166400 0.793250 -0.517330
O16   O     O_R   0.514930 0.348530 0.706750 -0.511696
O17   O     O_R   0.833600 0.485070 0.793250 -0.508831
O18   O     O_R   0.651470 0.166400 0.706750 -0.511882
O19   O     O_R   0.348530 0.514930 0.293250 -0.506550
O20   O     O_R   0.485070 0.833600 0.206750 -0.513316
O21   O     O_R   0.166400 0.651470 0.293250 -0.506585
O22   O     O_R   0.348530 0.514930 0.206750 -0.512871
O23   O     O_R   0.485070 0.833600 0.293250 -0.506653
O24   O     O_R   0.166400 0.651470 0.206750 -0.513333
O25   O     O_3   0.666667 0.333333 0.750000 -0.251945
O26   O     O_3   0.333333 0.666667 0.250000 -0.251340
O27   O     O_3   0.958880 0.349966 0.153587 -0.528673
C97   C     C_3   0.999190 0.276348 0.147868 -0.069288
H25   H     H_    0.087699 0.317471 0.138482 0.080253
H26   H     H_    0.947452 0.211886 0.124764 0.148229
H27   H     H_    0.991734 0.233940 0.178063 0.135709
O28   O     O_3   0.363761 0.026188 0.345897 -0.513582
C98   C     C_3   0.425733 0.113487 0.317790 -0.086536
H28   H     H_    0.467159 0.089680 0.293554 0.116384
H29   H     H_    0.487704 0.188937 0.334489 0.085599
H30   H     H_    0.368725 0.134273 0.301328 0.153919
O29   O     O_3   0.650776 0.609254 0.153801 -0.528727
C99   C     C_3   0.724273 0.723166 0.148144 -0.069082
H31   H     H_    0.683090 0.770321 0.138588 0.080279
H32   H     H_    0.789200 0.735994 0.125202 0.148253
H33   H     H_    0.766155 0.758253 0.178412 0.135778
O30   O     O_3   0.973481 0.337801 0.345792 -0.513586
C100  C     C_3   0.886268 0.312739 0.317691 -0.086654
H34   H     H_    0.810897 0.299747 0.334386 0.085087
H35   H     H_    0.865122 0.234788 0.301253 0.153888
H36   H     H_    0.910407 0.377855 0.293437 0.116689
O31   O     O_3   0.391852 0.041597 0.153599 -0.528730
C101  C     C_3   0.277997 0.001446 0.147797 -0.069527
H37   H     H_    0.230702 0.913056 0.138319 0.080180
H38   H     H_    0.265549 0.053403 0.124724 0.147994
H39   H     H_    0.242710 0.008682 0.177980 0.135813
O32   O     O_3   0.662211 0.635504 0.345755 -0.513574
C102  C     C_3   0.686854 0.572870 0.317677 -0.086712
H40   H     H_    0.621676 0.532036 0.293439 0.116774
H41   H     H_    0.699435 0.510350 0.334391 0.084819
H42   H     H_    0.764946 0.629249 0.301217 0.153986
O33   O     O_3   0.343478 0.002236 0.647353 -0.542668
C103  C     C_3   0.296434 0.894821 0.663948 -0.086660
H43   H     H_    0.352629 0.888236 0.686957 0.100853
H44   H     H_    0.273903 0.832345 0.638643 0.138119
H45   H     H_    0.219509 0.875751 0.680785 0.147549
O34   O     O_3   0.029277 0.368488 0.842668 -0.553768
C104  C     C_3   0.983859 0.260123 0.858553 -0.058920
H46   H     H_    0.906255 0.231829 0.876770 0.098667
H47   H     H_    0.045750 0.253329 0.878087 0.161607
H48   H     H_    0.963813 0.202738 0.831738 0.128631
O35   O     O_3   0.657706 0.657056 0.647709 -0.540304
C105  C     C_3   0.596251 0.701100 0.665943 -0.092322
H49   H     H_    0.536218 0.643507 0.689425 0.089694
H50   H     H_    0.552920 0.722409 0.641640 0.137014
H51   H     H_    0.653876 0.778285 0.682623 0.140270
O36   O     O_3   0.338750 0.975432 0.843818 -0.551804
C106  C     C_3   0.277850 0.022258 0.860601 -0.056945
H52   H     H_    0.328168 0.097799 0.879749 0.096240
H53   H     H_    0.207851 0.959922 0.879543 0.165497
H54   H     H_    0.242471 0.046120 0.834248 0.127660
O37   O     O_3   0.997745 0.341090 0.647210 -0.542929
C107  C     C_3   0.105460 0.401178 0.663569 -0.088092
H55   H     H_    0.112756 0.464485 0.686500 0.102145
H56   H     H_    0.167677 0.440389 0.638121 0.138838
H57   H     H_    0.124306 0.343300 0.680437 0.145396
O38   O     O_3   0.636510 0.664053 0.844018 -0.516222
C108  C     C_3   0.573866 0.687200 0.815438 -0.096976
H58   H     H_    0.510245 0.699117 0.831693 0.093415
H59   H     H_    0.534306 0.621550 0.791287 0.103438
H60   H     H_    0.630046 0.765192 0.798910 0.142147
O39   O     O_3   0.925186 0.332369 0.066272 -0.530829
C109  C     C_3   0.986055 0.293991 0.043428 -0.126761
H61   H     H_    0.066262 0.315070 0.058358 0.069958
H62   H     H_    0.000224 0.325390 0.010814 0.170400
H63   H     H_    0.936444 0.202760 0.041603 0.133275
O40   O     O_3   0.407833 0.089855 0.428364 -0.522587
C110  C     C_3   0.486543 0.202086 0.434669 -0.124328
H64   H     H_    0.547141 0.212618 0.459275 0.088157
H65   H     H_    0.442921 0.245282 0.445654 0.147211
H66   H     H_    0.530436 0.242874 0.405188 0.087828
O41   O     O_3   0.669645 0.593509 0.066501 -0.530655
C111  C     C_3   0.707911 0.692739 0.043746 -0.123938
H67   H     H_    0.686052 0.751432 0.058607 0.067535
H68   H     H_    0.677132 0.675493 0.011056 0.173778
H69   H     H_    0.799236 0.734832 0.042148 0.135724
O42   O     O_3   0.910333 0.318379 0.428343 -0.522698
C112  C     C_3   0.798034 0.284756 0.434702 -0.124206
H70   H     H_    0.787429 0.335250 0.459147 0.087791
H71   H     H_    0.755096 0.198241 0.445931 0.147107
H72   H     H_    0.757040 0.287061 0.405185 0.088710
O43   O     O_3   0.409443 0.076273 0.066343 -0.530709
C113  C     C_3   0.310422 0.015975 0.043404 -0.125898
H73   H     H_    0.251071 0.935553 0.058144 0.070143
H74   H     H_    0.328000 0.002386 0.010747 0.172726
H75   H     H_    0.268903 0.065735 0.041732 0.132886
O44   O     O_3   0.681651 0.592512 0.428352 -0.522772
C114  C     C_3   0.714953 0.513637 0.434706 -0.124155
H76   H     H_    0.664378 0.452811 0.459191 0.087787
H77   H     H_    0.801538 0.557015 0.445875 0.147163
H78   H     H_    0.712403 0.470077 0.405200 0.088722
O45   O     O_3   0.335418 0.965739 0.561595 -0.542134
C115  C     C_3   0.317898 0.053548 0.550958 -0.083102
H79   H     H_    0.386080 0.116115 0.531163 0.112328
H80   H     H_    0.307201 0.093091 0.579451 0.141171
H81   H     H_    0.240769 0.020156 0.532422 0.157731
O46   O     O_3   0.096822 0.413052 0.927295 -0.586228
C116  C     C_3   0.209910 0.491824 0.924443 -0.136272
H82   H     H_    0.230538 0.565577 0.943868 0.092439
H83   H     H_    0.236090 0.516148 0.891344 0.131897
H84   H     H_    0.257740 0.454613 0.936936 0.143602
O47   O     O_3   0.629424 0.665819 0.562061 -0.540781
C117  C     C_3   0.734850 0.683714 0.551211 -0.082866
H85   H     H_    0.729405 0.616021 0.531150 0.112556
H86   H     H_    0.785115 0.693862 0.579607 0.140997
H87   H     H_    0.778463 0.761212 0.532878 0.157394
O48   O     O_3   0.317082 0.907619 0.928407 -0.587471
C118  C     C_3   0.280425 0.794064 0.925485 -0.133255
H88   H     H_    0.334744 0.772310 0.943589 0.089991
H89   H     H_    0.274470 0.767280 0.892255 0.137166
H90   H     H_    0.196682 0.747750 0.939335 0.144885
O49   O     O_3   0.034766 0.369952 0.561453 -0.542630
C119  C     C_3   0.947049 0.264640 0.550750 -0.083286
H91   H     H_    0.884358 0.270182 0.531037 0.112515
H92   H     H_    0.907596 0.214305 0.579211 0.141393
H93   H     H_    0.980573 0.221100 0.532106 0.157659
O50   O     O_3   0.597612 0.686807 0.926713 -0.543467
C120  C     C_3   0.520816 0.723012 0.932579 -0.129852
H94   H     H_    0.458313 0.673292 0.956730 0.092630
H95   H     H_    0.479191 0.722137 0.902796 0.099514
H96   H     H_    0.565795 0.809396 0.943937 0.149085

loop_
_geom_bond_atom_site_label_1
_geom_bond_atom_site_label_2
_ccdc_geom_bond_type
C86   O33   S    
C68   C80   A    
C105  H50   S    
O37   C107  S    
Cr1   O16   S    
C82   C94   A    
C46   H10   S    
C21   C66   S    
C106  H53   S    
C18   C21   T    
C33   C45   A    
C100  H34   S    
C39   C51   A    
O29   C99   S    
C3    O15   A    
C6    O4    A    
C118  H90   S    
C35   C47   A    
C95   O30   S    
C29   C89   A    
O32   C102  S    
O49   C119  S    
C73   O46   S    
C32   C92   A    
O39   C109  S    
Cr4   O26   S    
C89   O36   S    
C50   H19   S    
C45   C57   A    
C116  H82   S    
C117  H85   S    
C31   C43   A    
Cr3   O6    S    
C52   H23   S    
C40   H4    S    
C99   H31   S    
C114  H76   S    
Cr4   O22   S    
Cr1   O4    S    
C77   C89   A    
C112  H72   S    
C4    O16   A    
O47   C117  S    
Cr2   O17   S    
C3    O1    A    
C5    O17   A    
C105  H51   S    
C55   H14   S    
C60   C72   A    
C19   C62   S    
O45   C115  S    
C53   H22   S    
Cr6   O12   S    
C108  H60   S    
C81   C93   A    
C81   O44   S    
C8    O12   A    
C84   C96   A    
Cr5   O23   S    
C20   C61   S    
C3    C29   S    
C44   C56   A    
Cr6   O9    S    
C46   C58   A    
C91   O28   S    
C38   H2    S    
C25   C37   A    
C101  H37   S    
C15   C24   T    
C11   O23   A    
O41   C111  S    
C27   C39   A    
O38   C108  S    
Cr2   O5    S    
C28   C88   A    
C106  H54   S    
C2    O6    A    
C14   C67   S    
C98   H29   S    
O36   C106  S    
C34   C46   A    
C53   C65   A    
C115  H79   S    
C76   C88   A    
C97   H26   S    
C1    O13   A    
Cr1   O1    S    
Cr2   O25   S    
C102  H42   S    
C1    C27   S    
C16   C23   T    
C18   C69   S    
Cr2   O2    S    
C105  H49   S    
C11   C31   S    
C17   C70   S    
O27   C97   S    
O31   C101  S    
C120  H94   S    
C12   C32   S    
C107  H55   S    
C7    C33   S    
C16   C71   S    
C113  H74   S    
O42   C112  S    
C118  H89   S    
C48   C60   A    
C71   C83   A    
C83   O42   S    
C64   C76   A    
C66   C78   A    
C8    O20   A    
Cr5   O20   S    
C116  H83   S    
C49   C61   A    
C75   O50   S    
Cr3   O3    S    
C96   O29   S    
C12   O24   A    
Cr3   O18   S    
C67   C79   A    
C9    O7    A    
C97   H27   S    
C52   C64   A    
C110  H64   S    
C7    O11   A    
C4    O2    A    
C109  H61   S    
C26   C38   A    
C79   O40   S    
C37   H1    S    
C111  H67   S    
C61   C73   A    
C56   C68   A    
Cr3   O25   S    
C9    O21   A    
C78   C90   A    
C72   C84   A    
Cr2   O14   S    
O34   C104  S    
C10   C36   S    
C113  H75   S    
C80   C92   A    
C104  H48   S    
O33   C103  S    
C22   C65   S    
C112  H70   S    
C15   C72   S    
C11   O9    A    
Cr6   O21   S    
C110  H65   S    
C65   C77   A    
C37   C49   A    
C36   C96   A    
C117  H86   S    
C98   H28   S    
C107  H57   S    
Cr4   O19   S    
C26   C86   A    
C62   C74   A    
C83   C95   A    
C25   C85   A    
C108  H58   S    
Cr1   O25   S    
C98   H30   S    
C51   C63   A    
C60   H15   S    
C114  H77   S    
C8    C34   S    
C74   C86   A    
C27   C87   A    
C101  H39   S    
C41   C53   A    
C97   H25   S    
C92   O27   S    
Cr6   O24   S    
C57   H18   S    
C5    C25   S    
C74   O45   S    
C75   C87   A    
O30   C100  S    
C76   O49   S    
C107  H56   S    
C24   C63   S    
C31   C91   A    
C77   O48   S    
C120  H95   S    
C57   C69   A    
O28   C98   S    
C50   C62   A    
C100  H36   S    
C82   O43   S    
C54   H21   S    
C104  H47   S    
C113  H73   S    
C6    O18   A    
C118  H88   S    
C111  H69   S    
C103  H44   S    
O46   C116  S    
C63   C75   A    
C48   H12   S    
Cr6   O26   S    
C100  H35   S    
C43   C55   A    
C47   H11   S    
O44   C114  S    
C23   C64   S    
C116  H84   S    
Cr5   O11   S    
C41   H5    S    
C13   C20   T    
C29   C41   A    
C78   O47   S    
C79   C91   A    
C14   C19   T    
Cr3   O15   S    
C99   H33   S    
C58   C70   A    
C34   C94   A    
C51   H24   S    
C84   O41   S    
C111  H68   S    
C39   H3    S    
C2    C28   S    
C93   O32   S    
C45   H9    S    
C80   O39   S    
C38   C50   A    
Cr5   O8    S    
C59   H16   S    
Cr5   O26   S    
C17   C22   T    
C117  H87   S    
C103  H45   S    
C2    O14   A    
C99   H32   S    
O48   C118  S    
C119  H91   S    
C73   C85   A    
C112  H71   S    
C115  H81   S    
C40   C52   A    
C42   C54   A    
C110  H66   S    
O40   C110  S    
C6    C26   S    
Cr4   O7    S    
C55   C67   A    
C85   O34   S    
C119  H93   S    
C1    O5    A    
C49   H20   S    
C5    O3    A    
C58   H17   S    
C108  H59   S    
C56   H13   S    
C115  H80   S    
C36   C48   A    
C114  H78   S    
C109  H62   S    
C109  H63   S    
C88   O37   S    
C104  H46   S    
C70   C82   A    
C101  H38   S    
C87   O38   S    
C69   C81   A    
C94   O31   S    
C47   C59   A    
C102  H40   S    
C106  H52   S    
C10   O8    A    
C102  H41   S    
O50   C120  S    
C32   C44   A    
C119  H92   S    
O35   C105  S    
C12   O10   A    
C120  H96   S    
C59   C71   A    
C9    C35   S    
C28   C40   A    
C30   C42   A    
C103  H43   S    
C43   H7    S    
C90   O35   S    
C33   C93   A    
C54   C66   A    
C42   H6    S    
Cr1   O13   S    
C30   C90   A    
C4    C30   S    
Cr4   O10   S    
O43   C113  S    
C10   O22   A    
C35   C95   A    
C7    O19   A    
C13   C68   S    
C44   H8    S    
