data_mof_unit_54347.cif
_audit_creation_date              2012-12-10T18:46:13-0500
_audit_creation_method            fapswitch 2.2
_symmetry_space_group_name_H-M    P1
_symmetry_Int_Tables_number       1
_space_group_crystal_system       triclinic
_cell_length_a                    9.86385
_cell_length_b                    10.663356
_cell_length_c                    13.226649
_cell_angle_alpha                 90.42124
_cell_angle_beta                  72.23706
_cell_angle_gamma                 90.136946
_cell_volume                      1324.8433077

loop_
_atom_site_label
_atom_site_type_symbol
_atom_type_description
_atom_site_fract_x
_atom_site_fract_y
_atom_site_fract_z
_atom_type_partial_charge
C1    C     C_R   0.499982 0.739748 0.500512 0.865238
C2    C     C_R   0.451427 0.587601 0.974109 0.076996
C3    C     C_R   0.492718 0.587218 0.862774 0.018471
C4    C     C_R   0.555391 0.560952 0.024822 -0.125175
C5    C     C_R   0.701769 0.561288 0.965649 0.003310
C6    C     C_R   0.742332 0.576714 0.855899 0.449212
C7    C     C_R   0.639069 0.601745 0.807275 -0.313040
C8    C     C_R   0.517434 0.514905 0.128892 0.423241
C9    C     C_R   0.765539 0.519418 0.124372 -0.298114
C10   C     C_R   0.386378 0.564807 0.812091 -0.100110
C11   C     C_R   0.572096 0.937439 0.557643 -0.201294
C12   C     C_R   0.424716 0.518749 0.701456 0.869882
C13   C     C_R   0.572180 0.065895 0.555153 -0.240578
C14   C     C_R   0.503848 0.127283 0.491260 -0.023691
C15   C     C_R   0.437831 0.060566 0.426491 0.205647
C16   C     C_R   0.434080 0.931578 0.433037 -0.195751
C17   C     C_R   0.501245 0.871736 0.497821 -0.046231
C18   C     C_R   0.939826 0.395128 0.471014 -0.105606
C19   C     C_R   0.083105 0.395042 0.471678 -0.073572
C20   C     C_R   0.060368 0.605022 0.528580 -0.013947
C21   C     C_R   0.916863 0.605041 0.528398 -0.056691
C22   C     C_R   0.501430 0.260098 0.496068 0.876458
C23   C     C_R   0.576962 0.497989 0.296618 0.889592
C24   C     C_R   0.805413 0.539087 0.015903 -0.175728
C25   C     C_R   0.621276 0.508273 0.181568 -0.153674
C26   C     C_R   0.242715 0.582850 0.870186 -0.207485
C27   C     C_R   0.204982 0.613488 0.977758 -0.191135
C28   C     C_R   0.307568 0.612751 0.030263 -0.099268
H1    H     H_    0.847465 0.510364 0.162856 0.184446
H2    H     H_    0.623388 0.117466 0.604401 0.154050
H3    H     H_    0.383176 0.877444 0.384928 0.154086
H4    H     H_    0.895304 0.310932 0.447878 0.139003
H5    H     H_    0.145616 0.310611 0.450232 0.137351
H6    H     H_    0.104860 0.689071 0.551977 0.130640
H7    H     H_    0.853881 0.689273 0.551329 0.119395
H8    H     H_    0.917226 0.539408 0.971569 0.181389
H9    H     H_    0.160121 0.574878 0.832267 0.193882
H10   H     H_    0.273603 0.633484 0.114412 0.181695
H11   H     H_    0.095467 0.633277 0.021959 0.143145
H12   H     H_    0.677607 0.628625 0.725161 0.193715
H13   H     H_    0.624095 0.889479 0.607665 0.143611
N1    N     N_R   0.142790 0.500030 0.500030 -0.086082
N2    N     N_R   0.857180 0.499940 0.500010 -0.088410
O1    O     O_R   0.385370 0.683250 0.500010 -0.633254
O2    O     O_R   0.614700 0.683220 0.500010 -0.632438
O3    O     O_R   0.328400 0.499990 0.653620 -0.620247
O4    O     O_R   0.557730 0.499960 0.653620 -0.630138
O5    O     O_R   0.385300 0.316780 0.499990 -0.620266
O6    O     O_R   0.614630 0.316750 0.499990 -0.630446
O7    O     O_R   0.442270 0.500040 0.346380 -0.556773
O8    O     O_R   0.671600 0.500010 0.346380 -0.618249
Zn1   Zn    Zn3+2 0.346870 0.500020 0.500000 0.958017
Zn2   Zn    Zn3+2 0.653130 0.499980 0.500000 0.929704
C29   C     C_3   0.376399 0.120348 0.347166 -0.954997
H14   H     H_    0.258639 0.112182 0.375303 0.240098
H15   H     H_    0.406972 0.219897 0.332315 0.256941
H16   H     H_    0.416879 0.071142 0.269432 0.234680
O9    O     O_3   0.877442 0.542050 0.794080 -0.631327
C30   C     C_3   0.873755 0.411929 0.770644 0.089057
H17   H     H_    0.843229 0.399370 0.697104 0.174033
H18   H     H_    0.796910 0.357241 0.835024 0.128874
C31   C     C_3   0.018943 0.353409 0.754653 -0.830430
H19   H     H_    0.051344 0.364950 0.827528 0.245327
H20   H     H_    0.014953 0.251786 0.736820 0.204811
H21   H     H_    0.098087 0.398180 0.687159 0.294433
O10   O     O_3   0.382553 0.466399 0.176484 -0.606884
C32   C     C_3   0.373667 0.346207 0.132791 0.107436
H22   H     H_    0.445923 0.279376 0.155022 0.131196
H23   H     H_    0.402371 0.348064 0.044596 0.139513
C33   C     C_3   0.221532 0.298482 0.174576 -0.819116
H24   H     H_    0.148341 0.363545 0.151616 0.254059
H25   H     H_    0.213673 0.204152 0.140710 0.205702
H26   H     H_    0.188979 0.291551 0.262168 0.251810

loop_
_geom_bond_atom_site_label_1
_geom_bond_atom_site_label_2
_ccdc_geom_bond_type
O7    Zn1   S    
C7    H12   S    
C26   H9    S    
C8    O10   S    
C31   H19   S    
C21   H7    S    
C9    H1    S    
O4    Zn2   S    
C6    O9    S    
C1    O1    A    
C20   N1    A    
C14   C15   A    
C19   N1    A    
C28   H10   S    
C4    C8    A    
C32   C33   S    
C20   H6    S    
O1    Zn1   S    
C33   H26   S    
C31   H20   S    
C2    C3    A    
C18   N2    A    
C9    C25   A    
C30   H17   S    
C9    C24   A    
C3    C10   A    
C13   C14   A    
C16   H3    S    
C14   C22   S    
C8    C25   A    
C11   C13   A    
C1    O2    A    
C26   C27   A    
C24   H8    S    
C5    C24   A    
C10   C12   S    
C12   O4    A    
O6    Zn2   S    
C2    C4    A    
N2    Zn2   S    
C22   O5    A    
O10   C32   S    
C6    C7    A    
C3    C7    A    
C23   C25   S    
C5    C6    A    
C29   H15   S    
C30   H18   S    
C18   H4    S    
C1    C17   S    
O2    Zn2   S    
C32   H22   S    
C15   C29   S    
O3    Zn1   S    
C13   H2    S    
O5    Zn1   S    
C33   H24   S    
C20   C21   A    
C12   O3    A    
C18   C19   A    
C19   H5    S    
C11   H13   S    
C22   O6    A    
C27   C28   A    
C23   O7    A    
C29   H14   S    
C11   C17   A    
C30   C31   S    
C2    C28   A    
C31   H21   S    
C32   H23   S    
O9    C30   S    
C21   N2    A    
C4    C5    A    
C23   O8    A    
C33   H25   S    
C10   C26   A    
C15   C16   A    
C27   H11   S    
C16   C17   A    
O8    Zn2   S    
C29   H16   S    
N1    Zn1   S    
