data_mof_unit_55826.cif
_audit_creation_date              2012-12-10T18:20:40-0500
_audit_creation_method            fapswitch 2.2
_symmetry_space_group_name_H-M    P1
_symmetry_Int_Tables_number       1
_space_group_crystal_system       triclinic
_cell_length_a                    14.011918
_cell_length_b                    13.557859
_cell_length_c                    14.854813
_cell_angle_alpha                 91.758772
_cell_angle_beta                  90.162318
_cell_angle_gamma                 83.322743
_cell_volume                      2801.52963053

loop_
_atom_site_label
_atom_site_type_symbol
_atom_type_description
_atom_site_fract_x
_atom_site_fract_y
_atom_site_fract_z
_atom_type_partial_charge
C1    C     C_R   0.500665 0.495275 0.326325 0.974513
C2    C     C_R   0.553419 0.319371 0.942495 0.357156
C3    C     C_R   0.801589 0.469526 0.573975 -0.021783
C4    C     C_R   0.198163 0.530792 0.426163 -0.012186
C5    C     C_R   0.794294 0.530517 0.426076 -0.003025
C6    C     C_R   0.205454 0.469587 0.573908 -0.014572
C7    C     C_R   0.895221 0.528415 0.422735 -0.129668
C8    C     C_R   0.104397 0.472412 0.577515 -0.129091
C9    C     C_R   0.949350 0.499943 0.499948 -0.047390
C10   C     C_R   0.050425 0.499926 0.499942 -0.040138
C11   C     C_R   0.902048 0.471588 0.577210 -0.124492
C12   C     C_R   0.499790 0.507481 0.673254 0.999233
C13   C     C_R   0.097760 0.527667 0.422449 -0.128261
C14   C     C_R   0.942732 0.553805 0.344240 0.383817
C15   C     C_R   0.056360 0.448063 0.656250 0.375166
C16   C     C_R   0.516787 0.314384 0.504179 0.920643
C17   C     C_R   0.483126 0.685885 0.498425 0.939339
C18   C     C_R   0.043827 0.552197 0.343741 0.373672
C19   C     C_R   0.955657 0.446429 0.655741 0.381343
C20   C     C_1   0.470816 0.789314 0.491351 -0.164627
C21   C     C_1   0.528998 0.211109 0.512332 -0.176642
C22   C     C_2   0.463319 0.980634 0.483331 -0.155691
C23   C     C_R   0.538759 0.500954 0.952332 -0.143876
C24   C     C_2   0.536141 0.019992 0.521706 -0.161290
C25   C     C_1   0.535924 0.123611 0.518467 -0.009278
C26   C     C_1   0.463709 0.876926 0.485961 0.007218
C27   C     C_R   0.504003 0.419116 0.811473 0.376126
C28   C     C_R   0.495799 0.584787 0.187870 0.418197
C29   C     C_R   0.504681 0.509562 0.769419 -0.307613
C30   C     C_R   0.504287 0.493143 0.229665 -0.328051
C31   C     C_R   0.528114 0.595746 0.815832 0.372782
C32   C     C_R   0.530248 0.402837 0.181576 0.370491
C33   C     C_R   0.540017 0.592803 0.909841 -0.086569
C34   C     C_R   0.537806 0.498448 0.046308 -0.157719
C35   C     C_R   0.546648 0.405772 0.088564 -0.118677
C36   C     C_3   0.380937 0.329353 0.778483 0.168499
C37   C     C_3   0.348336 0.248083 0.716933 -0.786609
C38   C     C_3   0.356528 0.677631 0.227367 0.126559
C39   C     C_3   0.310895 0.764329 0.285819 -0.795892
C40   C     C_3   0.603599 0.705591 0.734191 0.164512
C41   C     C_3   0.596139 0.815204 0.712448 -0.804444
C42   C     C_3   0.587692 0.275182 0.273475 0.164183
C43   C     C_3   0.580819 0.165214 0.285946 -0.778784
C44   C     C_3   0.683310 0.763875 0.956043 0.111294
C45   C     C_R   0.531920 0.412045 0.901512 -0.155376
C46   C     C_3   0.718678 0.859509 0.925663 -0.857470
C47   C     C_3   0.713185 0.234179 0.070918 0.081560
C48   C     C_3   0.764055 0.132564 0.093221 -0.824587
C49   C     C_3   0.466274 0.842735 0.085186 0.160721
C50   C     C_3   0.478755 0.934261 0.143951 -0.784684
C51   C     C_3   0.637093 0.202505 0.847467 0.184210
C52   C     C_3   0.619920 0.128895 0.771270 -0.782509
C53   C     C_3   0.866396 0.508421 0.215243 0.087755
C54   C     C_3   0.779561 0.543045 0.157586 -0.820750
C55   C     C_3   0.126123 0.509207 0.781924 0.091950
C56   C     C_R   0.520884 0.588613 0.097079 -0.103116
C57   C     C_3   0.145886 0.484951 0.879998 -0.839240
C58   C     C_3   0.128606 0.493160 0.218440 0.095315
C59   C     C_3   0.147333 0.519517 0.121834 -0.832716
C60   C     C_3   0.868918 0.492373 0.784188 0.106942
C61   C     C_3   0.788706 0.458079 0.840137 -0.878155
C62   C     C_R   0.552662 0.678337 0.963498 0.363366
C63   C     C_R   0.569544 0.317961 0.035431 0.449860
C64   C     C_R   0.529936 0.679716 0.056152 0.341493
H1    H     H_    0.594759 0.975339 0.554758 0.160897
H2    H     H_    0.270921 0.242387 0.728435 0.232262
H3    H     H_    0.358748 0.265774 0.645436 0.254935
H4    H     H_    0.327357 0.609372 0.249311 0.144734
H5    H     H_    0.334185 0.689951 0.156310 0.114656
H6    H     H_    0.338052 0.834316 0.266392 0.248622
H7    H     H_    0.231656 0.772118 0.277155 0.224705
H8    H     H_    0.327750 0.750892 0.357681 0.258091
H9    H     H_    0.617242 0.662850 0.670176 0.155052
H10   H     H_    0.666523 0.687279 0.778948 0.139756
H11   H     H_    0.664745 0.832684 0.683030 0.187980
H12   H     H_    0.404833 0.025361 0.450141 0.158341
H13   H     H_    0.537374 0.833255 0.663533 0.246578
H14   H     H_    0.579613 0.862182 0.774124 0.290943
H15   H     H_    0.581676 0.312571 0.339980 0.134587
H16   H     H_    0.659559 0.284378 0.246524 0.124660
H17   H     H_    0.584648 0.124681 0.219818 0.286743
H18   H     H_    0.640702 0.133215 0.329120 0.200325
H19   H     H_    0.511413 0.155300 0.318387 0.246776
H20   H     H_    0.731657 0.699660 0.927564 0.108598
H21   H     H_    0.689675 0.763597 0.030666 0.188451
H22   H     H_    0.666442 0.924409 0.945753 0.270753
H23   H     H_    0.763680 0.444801 0.630707 0.174897
H24   H     H_    0.789062 0.868373 0.957581 0.214351
H25   H     H_    0.728496 0.857228 0.851588 0.244274
H26   H     H_    0.735300 0.290427 0.120178 0.115933
H27   H     H_    0.739626 0.254529 0.004223 0.096410
H28   H     H_    0.740954 0.074967 0.045846 0.257861
H29   H     H_    0.842976 0.132971 0.087187 0.208609
H30   H     H_    0.747220 0.113916 0.163140 0.251070
H31   H     H_    0.392625 0.822554 0.095159 0.121880
H32   H     H_    0.473357 0.863606 0.014135 0.184115
H33   H     H_    0.473741 0.917057 0.216261 0.265619
H34   H     H_    0.235687 0.557544 0.370288 0.154307
H35   H     H_    0.550170 0.959067 0.131085 0.259270
H36   H     H_    0.421990 0.995426 0.128123 0.210671
H37   H     H_    0.691050 0.163576 0.892601 0.137624
H38   H     H_    0.667048 0.267045 0.818018 0.130993
H39   H     H_    0.570060 0.164750 0.720725 0.285172
H40   H     H_    0.689031 0.102175 0.737329 0.195321
H41   H     H_    0.588874 0.064101 0.798329 0.248344
H42   H     H_    0.848300 0.444285 0.254582 0.100815
H43   H     H_    0.927116 0.482570 0.169390 0.157728
H44   H     H_    0.795721 0.604994 0.115048 0.256001
H45   H     H_    0.750516 0.555253 0.369308 0.180161
H46   H     H_    0.760953 0.480776 0.113088 0.188157
H47   H     H_    0.716868 0.568869 0.201247 0.264298
H48   H     H_    0.065105 0.569785 0.780012 0.107989
H49   H     H_    0.190622 0.537910 0.754081 0.136913
H50   H     H_    0.207554 0.426126 0.885078 0.243949
H51   H     H_    0.163233 0.552473 0.917874 0.211180
H52   H     H_    0.081612 0.458628 0.910674 0.260284
H53   H     H_    0.080746 0.432954 0.216952 0.108293
H54   H     H_    0.198246 0.463345 0.248561 0.141633
H55   H     H_    0.196829 0.577735 0.120604 0.242809
H56   H     H_    0.249166 0.443625 0.630133 0.157795
H57   H     H_    0.180646 0.452576 0.083745 0.215050
H58   H     H_    0.078668 0.547453 0.088826 0.259497
H59   H     H_    0.837401 0.556779 0.744506 0.094832
H60   H     H_    0.923269 0.517916 0.831138 0.159157
H61   H     H_    0.817238 0.394256 0.881324 0.257152
H62   H     H_    0.757371 0.519586 0.885874 0.200752
H63   H     H_    0.731109 0.435216 0.795366 0.247055
H64   H     H_    0.335224 0.400013 0.764620 0.130722
H65   H     H_    0.369599 0.309530 0.849523 0.163446
H66   H     H_    0.390196 0.175577 0.731118 0.258752
N1    N     N_R   0.750030 0.500040 0.500070 -0.125668
N2    N     N_R   0.249970 0.499960 0.499930 -0.115136
O1    O     O_R   0.580280 0.500020 0.367860 -0.647945
O2    O     O_3   0.457861 0.669669 0.235664 -0.565368
O3    O     O_3   0.516124 0.686096 0.773382 -0.586943
O4    O     O_3   0.511594 0.313870 0.217792 -0.581730
O5    O     O_3   0.587526 0.759536 0.926326 -0.592797
O6    O     O_3   0.612168 0.231615 0.072581 -0.561174
O7    O     O_3   0.536140 0.764437 0.110006 -0.568333
O8    O     O_3   0.550270 0.229839 0.895123 -0.563038
O9    O     O_3   0.890259 0.589069 0.270253 -0.570484
O10   O     O_3   0.107051 0.421900 0.733732 -0.591800
O11   O     O_3   0.088118 0.579613 0.266676 -0.589245
O12   O     O_R   0.419720 0.499980 0.632140 -0.622368
O13   O     O_3   0.911499 0.411543 0.729871 -0.576656
O14   O     O_R   0.419730 0.500030 0.367840 -0.623053
O15   O     O_R   0.580270 0.499970 0.632160 -0.660989
O16   O     O_R   0.591830 0.359650 0.500030 -0.623310
O17   O     O_R   0.408170 0.640350 0.499970 -0.616522
O18   O     O_R   0.431280 0.359660 0.500010 -0.609631
O19   O     O_R   0.568720 0.640340 0.499990 -0.616066
O20   O     O_3   0.478956 0.337625 0.762261 -0.596947
Zn1   Zn    Zn3+2 0.607200 0.499990 0.500020 0.930450
Zn2   Zn    Zn3+2 0.392800 0.500010 0.499980 0.952224

loop_
_geom_bond_atom_site_label_1
_geom_bond_atom_site_label_2
_ccdc_geom_bond_type
C59   H57   S    
C30   C32   A    
C52   H39   S    
C42   H16   S    
C44   O5    S    
C23   C45   A    
C4    H34   S    
C55   H48   S    
C27   C29   A    
C43   H19   S    
C14   C18   A    
C22   H12   S    
C28   C56   A    
C4    N2    A    
C46   H25   S    
C36   H64   S    
C53   C54   S    
C40   H9    S    
C51   H38   S    
C34   C56   A    
C11   C19   A    
C50   H35   S    
C19   O13   S    
C48   H30   S    
C13   C18   A    
O1    Zn1   S    
C12   O15   A    
C18   O11   S    
C57   H51   S    
C27   O20   S    
C38   C39   S    
C12   C29   S    
C58   H54   S    
C17   C20   S    
C37   H66   S    
C54   H46   S    
C42   O4    S    
C34   C35   A    
C4    C13   A    
C60   H60   S    
C62   C64   A    
C58   O11   S    
C7    C14   A    
C52   H40   S    
C42   C43   S    
C33   C62   A    
C23   C33   A    
N2    Zn2   S    
C39   H8    S    
C56   C64   A    
C61   H62   S    
C9    C10   A    
C51   O8    S    
C27   C45   A    
C59   H58   S    
C38   O2    S    
C38   H5    S    
C42   H15   S    
C49   H32   S    
C55   O10   S    
C1    O14   A    
C17   O19   A    
C1    O1    A    
C53   H42   S    
C6    H56   S    
C44   C46   S    
C57   H52   S    
C46   H24   S    
C2    C45   A    
C40   O3    S    
C48   H29   S    
C3    H23   S    
C51   C52   S    
C32   C35   A    
N1    Zn1   S    
C24   C25   S    
C31   O3    S    
C41   H14   S    
C32   O4    S    
C36   O20   S    
C6    C8    A    
C55   H49   S    
C58   C59   S    
C58   H53   S    
C3    N1    A    
C60   C61   S    
C60   H59   S    
C15   C19   A    
O17   Zn2   S    
C41   H11   S    
C15   O10   S    
C53   H43   S    
C47   C48   S    
O14   Zn2   S    
C5    N1    A    
C23   C34   A    
C37   H2    S    
C31   C33   A    
C61   H63   S    
C49   H31   S    
C9    C11   A    
C24   H1    S    
C6    N2    A    
C40   C41   S    
C38   H4    S    
C52   H41   S    
C8    C15   A    
C49   O7    S    
C22   C26   S    
C43   H17   S    
C63   O6    S    
C22   C24   D    
C61   H61   S    
C60   O13   S    
C44   H21   S    
C2    C63   A    
C5    C7    A    
C7    C9    A    
C21   C25   T    
C36   C37   S    
C50   H33   S    
C59   H55   S    
C47   H27   S    
C17   O17   A    
C44   H20   S    
C10   C13   A    
C16   O18   A    
C16   C21   S    
C57   H50   S    
C51   H37   S    
C50   H36   S    
C54   H44   S    
C16   O16   A    
C2    O8    S    
C55   C57   S    
C29   C31   A    
C36   H65   S    
C41   H13   S    
C20   C26   T    
C37   H3    S    
C47   O6    S    
C28   C30   A    
C1    C30   S    
C47   H26   S    
C39   H6    S    
C40   H10   S    
C54   H47   S    
C53   O9    S    
O19   Zn1   S    
C62   O5    S    
O12   Zn2   S    
O15   Zn1   S    
C14   O9    S    
C3    C11   A    
C48   H28   S    
C12   O12   A    
C28   O2    S    
C8    C10   A    
C49   C50   S    
O18   Zn2   S    
C43   H18   S    
C39   H7    S    
C35   C63   A    
C5    H45   S    
O16   Zn1   S    
C46   H22   S    
C64   O7    S    
