data_mof_unit_37305.cif
_audit_creation_date              2013-03-05T16:48:29-0500
_audit_creation_method            fapswitch 2.2
_symmetry_space_group_name_H-M    P1
_symmetry_Int_Tables_number       1
_space_group_crystal_system       triclinic
_cell_length_a                    10.948314
_cell_length_b                    14.851809
_cell_length_c                    14.921898
_cell_angle_alpha                 64.761766
_cell_angle_beta                  105.52248
_cell_angle_gamma                 101.942074
_cell_volume                      2102.64621735

loop_
_atom_site_label
_atom_site_type_symbol
_atom_site_description
_atom_site_fract_x
_atom_site_fract_y
_atom_site_fract_z
_atom_type_partial_charge
O1    O     O_R   0.455540 0.022090 0.338120 -0.534739
O2    O     O_R   0.544460 0.977910 0.661880 -0.534729
O3    O     O_R   0.512510 0.160150 0.379180 -0.589293
O4    O     O_R   0.487490 0.839850 0.620820 -0.589706
C1    C     C_R   0.479271 0.119445 0.311978 0.832345
C2    C     C_R   0.520762 0.880558 0.688022 0.832217
O5    O     O_R   0.291160 0.930970 0.479480 -0.568897
O6    O     O_R   0.708840 0.069030 0.520520 -0.568852
O7    O     O_R   0.348130 0.069020 0.520540 -0.550208
O8    O     O_R   0.651870 0.930980 0.479460 -0.550073
C3    C     C_R   0.263731 0.998436 0.504204 0.822575
C4    C     C_R   0.736266 0.001571 0.495785 0.822359
Cu1   Cu    Cu3+1 0.466270 0.918260 0.475690 1.017209
Cu2   Cu    Cu3+1 0.533730 0.081740 0.524310 1.017259
C5    C     C_R   0.309600 0.108405 0.764815 -0.161421
C6    C     C_R   0.690525 0.892365 0.234689 -0.161741
H1    H     H_    0.355411 0.066143 0.841593 0.197797
H2    H     H_    0.644895 0.934808 0.157915 0.197727
C7    C     C_R   0.242998 0.057731 0.703148 0.173793
C8    C     C_R   0.757261 0.942821 0.296527 0.173520
C9    C     C_R   0.178451 0.111943 0.604398 0.059959
C10   C     C_R   0.821537 0.888370 0.395298 0.060297
C11   C     C_R   0.173497 0.214978 0.572801 -0.260073
C12   C     C_R   0.826101 0.785308 0.426751 -0.259265
H3    H     H_    0.115782 0.255996 0.500200 0.181070
H4    H     H_    0.883627 0.744096 0.499367 0.180867
C13   C     C_R   0.236446 0.264638 0.636036 0.197339
C14   C     C_R   0.762844 0.735834 0.363398 0.197770
C15   C     C_R   0.310192 0.212206 0.730871 0.150032
C16   C     C_R   0.689371 0.788520 0.268545 0.149857
C17   C     C_R   0.962247 0.063722 0.530733 -0.180983
C18   C     C_R   0.037741 0.936274 0.469266 -0.181118
H5    H     H_    0.934674 0.114432 0.554292 0.191303
H6    H     H_    0.065296 0.885553 0.445709 0.191150
C19   C     C_R   0.869500 0.002288 0.492202 -0.070499
C20   C     C_R   0.130496 0.997724 0.507785 -0.070468
C21   C     C_R   0.908361 0.940631 0.456665 0.048884
C22   C     C_R   0.091631 0.059434 0.543263 0.048930
C23   C     C_R   0.461645 0.188039 0.203084 -0.086125
C24   C     C_R   0.538435 0.811995 0.796923 -0.085999
C25   C     C_R   0.363319 0.226993 0.026425 -0.192950
C26   C     C_R   0.636760 0.773130 0.973570 -0.193307
C27   C     C_R   0.406269 0.156508 0.122518 0.207478
C28   C     C_R   0.593815 0.843578 0.877455 0.207605
C29   C     C_R   0.496180 0.291079 0.179172 -0.258395
C30   C     C_R   0.503931 0.708947 0.820885 -0.258514
C31   C     C_R   0.471986 0.362353 0.078744 0.103769
C32   C     C_R   0.527989 0.637734 0.921351 0.103709
C33   C     C_R   0.394862 0.329213 0.003944 0.118789
C34   C     C_R   0.605073 0.670907 0.996136 0.118569
C35   C     C_R   0.519189 0.465458 0.050858 0.086845
C36   C     C_R   0.480695 0.534651 0.949278 0.087060
C37   C     C_R   0.392925 0.499078 0.879971 -0.187936
C38   C     C_R   0.606817 0.501073 0.120200 -0.187855
C39   C     C_R   0.352341 0.398059 0.906761 -0.155517
C40   C     C_R   0.647390 0.602101 0.093390 -0.154756
H7    H     H_    0.286372 0.373861 0.850852 0.198049
H8    H     H_    0.713184 0.626344 0.149340 0.198191
H9    H     H_    0.459994 0.685360 0.759647 0.157393
H10   H     H_    0.540245 0.314602 0.240431 0.157351
H11   H     H_    0.310102 0.201342 0.967749 0.184917
H12   H     H_    0.690070 0.798816 0.032199 0.184447
H13   H     H_    0.352462 0.547516 0.804282 0.160038
H14   H     H_    0.647150 0.452680 0.195944 0.160093
N1    N     N_R   0.584450 0.204570 0.560790 -0.199393
N2    N     N_R   0.415550 0.795430 0.439210 -0.199345
C41   C     C_R   0.711249 0.282569 0.673664 0.049419
C42   C     C_R   0.288048 0.717277 0.326619 0.049354
C43   C     C_R   0.687931 0.206423 0.636996 0.282776
C44   C     C_R   0.311836 0.793580 0.363135 0.282738
C45   C     C_R   0.513356 0.284232 0.510145 0.275209
C46   C     C_R   0.486576 0.715713 0.489751 0.274847
C47   C     C_R   0.544853 0.369879 0.537138 -0.108681
C48   C     C_R   0.454576 0.629968 0.462919 -0.108404
C49   C     C_R   0.631806 0.359697 0.629587 0.055650
C50   C     C_R   0.367347 0.640083 0.370625 0.055273
C51   C     C_R   0.492075 0.463766 0.478701 0.101435
C52   C     C_R   0.507137 0.536020 0.521399 0.101412
C53   C     C_R   0.565532 0.508590 0.623497 -0.270239
C54   C     C_R   0.433540 0.491244 0.376606 -0.268862
C55   C     C_R   0.634845 0.426674 0.675321 0.208232
C56   C     C_R   0.364046 0.573054 0.324902 0.208189
H15   H     H_    0.555376 0.548689 0.665841 0.161613
H16   H     H_    0.444019 0.451527 0.334058 0.161650
N3    N     N_3   0.379037 0.263151 0.794881 -0.595097
H17   H     H_    0.442866 0.217146 0.854629 0.248110
H18   H     H_    0.435494 0.324084 0.753090 0.249957
N4    N     N_3   0.619829 0.737644 0.204634 -0.594544
H19   H     H_    0.557590 0.784350 0.144051 0.247898
H20   H     H_    0.561746 0.677959 0.246087 0.250062
I1    I     I_    0.715862 0.403987 0.829825 -0.314789
I2    I     I_    0.282692 0.595735 0.170444 -0.314094
N5    N     N_3   0.602963 0.728146 0.557706 -0.522073
H21   H     H_    0.586158 0.703741 0.630396 0.218292
H22   H     H_    0.672798 0.689449 0.558437 0.220424
N6    N     N_3   0.397496 0.271862 0.441676 -0.521890
H23   H     H_    0.326888 0.309708 0.441277 0.220507
H24   H     H_    0.414718 0.296844 0.369030 0.218090
I3    I     I_    0.180225 0.904922 0.290298 -0.319498
I4    I     I_    0.819899 0.095375 0.709648 -0.319304
N7    N     N_3   0.821706 0.286047 0.750292 -0.520351
H25   H     H_    0.816892 0.220772 0.815609 0.276158
H26   H     H_    0.903564 0.291498 0.724089 0.262566
N8    N     N_3   0.177249 0.713684 0.250273 -0.520305
H27   H     H_    0.181972 0.778799 0.184784 0.276091
H28   H     H_    0.095631 0.708517 0.276657 0.262485
I5    I     I_    0.226431 0.898693 0.769954 -0.317515
I6    I     I_    0.774172 0.101869 0.230021 -0.317560
I7    I     I_    0.205100 0.415456 0.589935 -0.387532
I8    I     I_    0.793225 0.584851 0.409316 -0.387872
I9    I     I_    0.597640 0.988279 0.873384 -0.348417
I10   I     I_    0.402382 0.011826 0.126530 -0.347818

loop_
_geom_bond_atom_site_label_1
_geom_bond_atom_site_label_2
_geom_bond_distance
_ccdc_geom_bond_type
O5    Cu1   1.982734 S    
C29   H10   1.075602 S    
N7    H25   1.045539 S    
C30   H9    1.075685 S    
C13   C15   1.403494 A    
C25   C27   1.391336 A    
C25   H11   1.082008 S    
C54   H16   1.072645 S    
N8    H28   1.045714 S    
C31   C33   1.411765 A    
N3    H17   1.046290 S    
C36   C37   1.412804 A    
C5    C7    1.396134 A    
N5    H21   1.041962 S    
C48   C50   1.417848 A    
O1    C1    1.314574 A    
C18   C20   1.394960 A    
C3    C20   1.471604 S    
C7    C9    1.409020 A    
C12   H4    1.083565 S    
C6    C16   1.401762 A    
C56   I2    2.140617 S    
C29   C31   1.409691 A    
O4    Cu1   1.947321 S    
N2    C46   1.371446 A    
C9    C22   1.476372 S    
N6    H24   1.041999 S    
C17   H5    1.076380 S    
C11   C13   1.394402 A    
O6    C4    1.315031 A    
C26   H12   1.082005 S    
C15   N3    1.431031 S    
C51   C52   1.427669 A    
C23   C29   1.406879 A    
C32   C34   1.411734 A    
N5    H22   1.042623 S    
Cu1   Cu2   2.727662 S    
C47   C49   1.418092 A    
O2    C2    1.314506 A    
C26   C28   1.391315 A    
C25   C33   1.395470 A    
N8    H27   1.045619 S    
C5    C15   1.401765 A    
C30   C32   1.409696 A    
Cu1   N2    2.048990 S    
C37   C39   1.384161 A    
C9    C11   1.404386 A    
C38   C40   1.384243 A    
N3    H18   1.040898 S    
C35   C36   1.428360 A    
C12   C14   1.394471 A    
C46   C48   1.442177 A    
C50   C56   1.417384 A    
C53   C55   1.385522 A    
C52   C53   1.397483 A    
C49   C55   1.417522 A    
C31   C35   1.424531 A    
C45   N6    1.434085 S    
C14   I8    2.117723 S    
C33   C39   1.391528 A    
C10   C21   1.476288 S    
C34   C40   1.391530 A    
C41   C43   1.406039 A    
C18   H6    1.076409 S    
C24   C30   1.406835 A    
O7    Cu2   1.989201 S    
C43   I4    2.146142 S    
O5    C3    1.315042 A    
C24   C28   1.415881 A    
C6    C8    1.396089 A    
N6    H23   1.043111 S    
C6    H2    1.080520 S    
C18   C21   1.389605 A    
C4    C19   1.471597 S    
O7    C3    1.307161 A    
O3    Cu2   1.947321 S    
O8    C4    1.307166 A    
C26   C34   1.395439 A    
C46   N5    1.434131 S    
C54   C56   1.385423 A    
N4    H20   1.040403 S    
C39   H7    1.082851 S    
C10   C12   1.404341 A    
O4    C2    1.316870 A    
O1    Cu1   1.962698 S    
C27   I10   2.115772 S    
C16   N4    1.431047 S    
C44   I3    2.146439 S    
C41   N7    1.434213 S    
C45   C47   1.442295 A    
C51   C54   1.397737 A    
C5    H1    1.080553 S    
O6    Cu2   1.982735 S    
C19   C21   1.413096 A    
C42   N8    1.434428 S    
C8    C10   1.409037 A    
O3    C1    1.316833 A    
O8    Cu1   1.989201 S    
C23   C27   1.415845 A    
C42   C50   1.401467 A    
C17   C22   1.389607 A    
C35   C38   1.412884 A    
C1    C23   1.489056 S    
C14   C16   1.403333 A    
N1    C45   1.371333 A    
C53   H15   1.073388 S    
C37   H13   1.077308 S    
N2    C44   1.379313 A    
C38   H14   1.077256 S    
N1    C43   1.378996 A    
C17   C19   1.394851 A    
C20   C22   1.413168 A    
Cu2   N1    2.048990 S    
C40   H8    1.082900 S    
C2    C24   1.489008 S    
C11   H3    1.083579 S    
O2    Cu2   1.962699 S    
C55   I1    2.140633 S    
C28   I9    2.115836 S    
C32   C36   1.424425 A    
C41   C49   1.401743 A    
N4    H19   1.045885 S    
C13   I7    2.118013 S    
N7    H26   1.045545 S    
C48   C52   1.436901 A    
C42   C44   1.406228 A    
C47   C51   1.437163 A    
C8    I6    2.125375 S    
C7    I5    2.125387 S    
