data_mof_unit_28176.cif
_audit_creation_date              2012-12-10T17:15:56-0500
_audit_creation_method            fapswitch 2.2
_symmetry_space_group_name_H-M    P1
_symmetry_Int_Tables_number       1
_space_group_crystal_system       triclinic
_cell_length_a                    10.103257
_cell_length_b                    10.722231
_cell_length_c                    10.660205
_cell_angle_alpha                 89.912906
_cell_angle_beta                  94.91832
_cell_angle_gamma                 83.427074
_cell_volume                      1142.92447294

loop_
_atom_site_label
_atom_site_type_symbol
_atom_type_description
_atom_site_fract_x
_atom_site_fract_y
_atom_site_fract_z
_atom_type_partial_charge
C1    C     C_R   0.444329 0.511359 0.266144 0.916187
C2    C     C_2   0.499849 0.576063 0.932407 -0.214541
C3    C     C_2   0.072027 0.489817 0.489168 -0.135462
C4    C     C_R   0.494389 0.261326 0.488074 0.884709
C5    C     C_2   0.928332 0.509005 0.511876 -0.158348
C6    C     C_R   0.556054 0.495705 0.733677 0.887506
C7    C     C_R   0.504946 0.740105 0.505801 0.861383
C8    C     C_R   0.674575 0.101431 0.333424 -0.018867
C9    C     C_R   0.804512 0.043333 0.329023 -0.241723
C10   C     C_R   0.845073 0.929460 0.392165 0.133155
C11   C     C_R   0.750255 0.869793 0.452161 -0.206569
C12   C     C_R   0.589954 0.053977 0.416624 0.039551
C13   C     C_R   0.617984 0.929462 0.458573 0.057923
C14   C     C_3   0.291220 0.478245 0.066420 -0.406597
C15   C     C_3   0.176585 0.582717 0.036422 -0.328509
C16   C     C_3   0.062862 0.535312 0.953568 -0.927554
C17   C     C_2   0.623823 0.201150 0.240164 0.908316
C18   C     C_3   0.989970 0.875215 0.397259 -0.406266
C19   C     C_3   0.035302 0.846498 0.265218 -0.353589
C20   C     C_3   0.187402 0.827979 0.268153 -0.859510
C21   C     C_3   0.720588 0.437639 0.926667 -0.398846
C22   C     C_3   0.726956 0.295102 0.907665 -0.288801
C23   C     C_R   0.485110 0.129650 0.468994 -0.070106
C24   C     C_3   0.864237 0.228439 0.953943 -0.855957
C25   C     C_R   0.387537 0.076202 0.528254 -0.226447
C26   C     C_R   0.398410 0.948519 0.543227 -0.228864
C27   C     C_R   0.512161 0.873743 0.508233 -0.099580
C28   C     C_2   0.413608 0.528946 0.131118 -0.073920
C29   C     C_2   0.506372 0.576955 0.068253 -0.172451
C30   C     C_2   0.589417 0.505359 0.868398 -0.083311
H1    H     H_    0.304962 0.132987 0.566379 0.168423
H2    H     H_    0.594858 0.608634 0.117814 0.165395
H3    H     H_    0.097788 0.502814 0.861804 0.268051
H4    H     H_    0.024453 0.456666 0.001721 0.271735
H5    H     H_    0.980322 0.612638 0.935660 0.244405
H6    H     H_    0.137568 0.615871 0.125948 0.236596
H7    H     H_    0.211814 0.662855 0.987858 0.220953
H8    H     H_    0.317660 0.428026 0.979219 0.221345
H9    H     H_    0.256213 0.407727 0.128715 0.206754
H10   H     H_    0.472577 0.269686 0.115488 0.323110
H11   H     H_    0.230707 0.911186 0.308791 0.276237
H12   H     H_    0.894206 0.575004 0.582549 0.152174
H13   H     H_    0.226900 0.743576 0.325028 0.302343
H14   H     H_    0.218358 0.815618 0.171185 0.235677
H15   H     H_    0.993484 0.760636 0.229495 0.218736
H16   H     H_    0.998772 0.923998 0.197481 0.222504
H17   H     H_    0.050738 0.944737 0.444319 0.203523
H18   H     H_    0.008070 0.787817 0.455351 0.189168
H19   H     H_    0.941566 0.257174 0.895329 0.253042
H20   H     H_    0.891237 0.251329 0.053700 0.283347
H21   H     H_    0.863018 0.125296 0.946349 0.241911
H22   H     H_    0.648842 0.257426 0.959006 0.238312
H23   H     H_    0.106520 0.422825 0.419457 0.168522
H24   H     H_    0.707447 0.273446 0.806320 0.215991
H25   H     H_    0.802607 0.473491 0.879534 0.205219
H26   H     H_    0.737927 0.456885 0.028583 0.242132
H27   H     H_    0.878123 0.386582 0.382397 0.192101
H28   H     H_    0.121812 0.613938 0.617144 0.155279
H29   H     H_    0.873657 0.086754 0.275452 0.161317
H30   H     H_    0.784894 0.782967 0.501689 0.159245
H31   H     H_    0.318321 0.908629 0.584853 0.170068
H32   H     H_    0.409323 0.624070 0.883752 0.174967
N1    N     N_2   0.157290 0.551390 0.551110 -0.201492
N2    N     N_2   0.842740 0.448550 0.448960 -0.182669
O1    O     O_R   0.568950 0.489660 0.307530 -0.577747
O2    O     O_R   0.491026 0.209190 0.189393 -0.842742
O3    O     O_R   0.348880 0.522640 0.340350 -0.623568
O4    O     O_R   0.610060 0.300270 0.483590 -0.613579
O5    O     O_R   0.389990 0.333260 0.516410 -0.612661
O6    O     O_R   0.651120 0.477360 0.659650 -0.610389
O7    O     O_R   0.431050 0.510340 0.692470 -0.614114
O8    O     O_R   0.610010 0.666740 0.483590 -0.629894
O9    O     O_R   0.389940 0.699730 0.516410 -0.626086
O10   O     O_2   0.698791 0.272637 0.203959 -0.662482
Zn1   Zn    Zn3+2 0.646940 0.477980 0.478090 0.956312
Zn2   Zn    Zn3+2 0.353060 0.522020 0.521910 0.919621

loop_
_geom_bond_atom_site_label_1
_geom_bond_atom_site_label_2
_ccdc_geom_bond_type
C25   H1    S    
C1    C28   S    
C1    O1    A    
C5    H12   S    
C19   H15   S    
C8    C9    A    
C3    N1    D    
C16   H3    S    
C14   H8    S    
C11   C13   A    
C21   C30   S    
C8    C17   S    
O1    Zn1   S    
C8    C12   A    
C2    C30   D    
C14   C28   S    
C18   H17   S    
C3    C5    S    
C24   H21   S    
C20   H11   S    
C17   O2    S    
C19   H16   S    
C7    C27   S    
C7    O9    A    
C25   C26   A    
H10   O2    S    
C21   C22   S    
O4    Zn1   S    
C26   H31   S    
C3    H23   S    
C21   H26   S    
C28   C29   D    
C26   C27   A    
C6    O7    A    
C17   O10   D    
C10   C18   S    
O8    Zn1   S    
C15   C16   S    
C24   H19   S    
C9    C10   A    
C22   H22   S    
C4    O5    A    
C1    O3    A    
N2    Zn1   S    
C20   H14   S    
C29   H2    S    
C23   C25   A    
C16   H5    S    
C24   H20   S    
O7    Zn2   S    
O9    Zn2   S    
C22   C24   S    
N1    Zn2   S    
C11   H30   S    
C2    H32   S    
C15   H6    S    
H28   N1    S    
C20   H13   S    
C2    C29   S    
C12   C13   A    
O6    Zn1   S    
O5    Zn2   S    
C22   H24   S    
C18   C19   S    
C10   C11   A    
C7    O8    A    
C6    O6    A    
C4    C23   S    
C14   C15   S    
C15   H7    S    
C21   H25   S    
C12   C23   A    
O3    Zn2   S    
C16   H4    S    
C14   H9    S    
C4    O4    A    
C6    C30   S    
C13   C27   A    
C19   C20   S    
C5    N2    D    
H27   N2    S    
C9    H29   S    
C18   H18   S    
