data_mof_unit_59032.cif
_audit_creation_date              2012-12-11T14:08:26-0500
_audit_creation_method            fapswitch 2.2
_symmetry_space_group_name_H-M    P1
_symmetry_Int_Tables_number       1
_space_group_crystal_system       triclinic
_cell_length_a                    10.899667
_cell_length_b                    10.940047
_cell_length_c                    18.674167
_cell_angle_alpha                 90.387831
_cell_angle_beta                  89.697353
_cell_angle_gamma                 60.454235
_cell_volume                      1937.05840641

loop_
_atom_site_label
_atom_site_type_symbol
_atom_type_description
_atom_site_fract_x
_atom_site_fract_y
_atom_site_fract_z
_atom_type_partial_charge
C1    C     C_R   0.233363 0.646598 0.608242 0.541407
C2    C     C_3   0.718521 0.520585 0.800300 -0.243364
C3    C     C_3   0.693377 0.669911 0.815375 0.051104
C4    C     C_3   0.663432 0.642964 0.679643 0.054295
C5    C     C_3   0.777385 0.685101 0.690004 -0.252916
C6    C     C_3   0.705681 0.503179 0.719939 -0.218805
C7    C     C_2   0.677240 0.153685 0.669905 -0.128364
C8    C     C_2   0.690064 0.165804 0.827450 -0.115425
C9    C     C_2   0.802000 0.120929 0.783166 -0.179495
C10   C     C_2   0.783108 0.153984 0.706343 -0.175716
C11   C     C_2   0.176547 0.664445 0.681270 -0.142431
C12   C     C_R   0.650437 0.618634 0.603505 0.543064
C13   C     C_2   0.194393 0.657228 0.838180 -0.110056
C14   C     C_2   0.189334 0.554277 0.799153 0.205303
C15   C     C_2   0.186504 0.554254 0.719058 0.121411
C16   C     C_2   0.649661 0.644696 0.316774 -0.131602
C17   C     C_2   0.631067 0.664721 0.159407 -0.070639
C18   C     C_2   0.692565 0.542373 0.194353 0.213973
C19   C     C_2   0.671924 0.538775 0.271608 -0.110616
C20   C     C_2   0.667587 0.143676 0.330755 -0.129343
C21   C     C_2   0.704361 0.031256 0.187398 -0.072447
C22   C     C_2   0.596143 0.048104 0.229634 0.111884
C23   C     C_R   0.628486 0.227119 0.601823 0.545717
C24   C     C_2   0.603339 0.073542 0.306895 -0.134170
C25   C     C_2   0.122537 0.682922 0.345271 -0.104527
C26   C     C_2   0.119610 0.688360 0.190105 -0.089336
C27   C     C_2   0.074506 0.803051 0.232598 -0.167008
C28   C     C_2   0.088297 0.799135 0.309179 -0.164539
C29   C     C_R   0.703668 0.101906 0.897408 0.568740
C30   C     C_R   0.719573 0.685249 0.890492 0.539980
C31   C     C_R   0.120612 0.704557 0.907500 0.565688
C32   C     C_R   0.705791 0.031263 0.109572 0.582211
C33   C     C_R   0.691532 0.688015 0.094485 0.557214
C34   C     C_R   0.214047 0.652007 0.405485 0.558882
C35   C     C_R   0.087891 0.712865 0.115068 0.544063
C36   C     C_R   0.641919 0.621304 0.392675 0.548795
C37   C     C_R   0.620353 0.223677 0.396725 0.550328
C38   C     C_3   0.540642 0.777913 0.792851 -0.240201
C39   C     C_3   0.521957 0.759590 0.712769 -0.232011
C40   C     C_3   0.798670 0.696399 0.770307 -0.219680
Cr1   Cr    Cr6+3 0.393010 0.398050 0.501480 1.006614
Cr2   Cr    Cr6+3 0.398820 0.707980 0.501630 1.010496
Cr3   Cr    Cr6+3 0.708140 0.393940 0.496850 1.014759
Cr4   Cr    Cr6+3 0.937950 0.938450 0.008940 1.064174
Cr5   Cr    Cr6+3 0.626180 0.937030 0.994750 1.038847
Cr6   Cr    Cr6+3 0.937790 0.625760 0.001410 1.118078
H1    H     H_    0.519081 0.887327 0.802540 0.152996
H2    H     H_    0.809294 0.418142 0.699727 0.147629
H3    H     H_    0.908718 0.617964 0.783926 0.189263
H4    H     H_    0.878036 0.605633 0.664773 0.136530
H5    H     H_    0.908500 0.056084 0.802738 0.155695
H6    H     H_    0.853980 0.183522 0.680562 0.149004
H7    H     H_    0.584142 0.231671 0.807278 0.123712
H8    H     H_    0.613037 0.115157 0.695209 0.095364
H9    H     H_    0.224676 0.728112 0.813905 0.045187
H10   H     H_    0.462746 0.762882 0.824879 0.120556
H11   H     H_    0.154914 0.761664 0.707459 0.066779
H12   H     H_    0.688344 0.439569 0.292935 0.171665
H13   H     H_    0.546683 0.757037 0.185514 0.053864
H14   H     H_    0.632161 0.745930 0.298401 0.080533
H15   H     H_    0.535896 0.055914 0.343389 0.144893
H16   H     H_    0.799925 0.017731 0.211431 0.070121
H17   H     H_    0.735639 0.165669 0.297155 0.115543
H18   H     H_    0.033850 0.907189 0.210367 0.164775
H19   H     H_    0.437903 0.730721 0.706241 0.138000
H20   H     H_    0.093713 0.886906 0.333547 0.157740
H21   H     H_    0.164260 0.582381 0.210310 0.114157
H22   H     H_    0.108065 0.598801 0.323325 0.110109
H23   H     H_    0.486939 0.861123 0.685008 0.123484
H24   H     H_    0.784515 0.802397 0.782674 0.114564
H25   H     H_    0.745217 0.787591 0.663879 0.111703
H26   H     H_    0.825311 0.439501 0.817943 0.173788
H27   H     H_    0.639874 0.503135 0.830149 0.121040
H28   H     H_    0.625957 0.469339 0.710570 0.125980
O1    O     O_R   0.507110 0.256280 0.580300 -0.533080
O2    O     O_R   0.524640 0.695370 0.425100 -0.492431
O3    O     O_R   0.735890 0.504390 0.415980 -0.506960
O4    O     O_R   0.690560 0.277820 0.422350 -0.501508
O5    O     O_3   0.499990 0.499990 0.499980 -0.245817
O6    O     O_R   0.089190 0.825870 0.932320 -0.524198
O7    O     O_R   0.819070 0.053960 0.931440 -0.486091
O8    O     O_R   0.607070 0.076440 0.916460 -0.490755
O9    O     O_R   0.647110 0.806550 0.917690 -0.513621
O10   O     O_R   0.837080 0.593860 0.915300 -0.481318
O11   O     O_R   0.064770 0.636080 0.932550 -0.427265
O12   O     O_R   0.280830 0.527190 0.577940 -0.489365
O13   O     O_R   0.068250 0.829200 0.092940 -0.523752
O14   O     O_R   0.799650 0.057040 0.080330 -0.459856
O15   O     O_R   0.586130 0.079760 0.077080 -0.473507
O16   O     O_R   0.627700 0.809630 0.066580 -0.554646
O17   O     O_R   0.816140 0.597180 0.075920 -0.435446
O18   O     O_R   0.045360 0.639170 0.081440 -0.486255
O19   O     O_3   0.833980 0.833750 0.001700 -0.312857
O20   O     O_R   0.261360 0.738990 0.584270 -0.524378
O21   O     O_R   0.532590 0.694780 0.574370 -0.509595
O22   O     O_R   0.744470 0.503750 0.577000 -0.531085
O23   O     O_R   0.698520 0.277230 0.571620 -0.499271
O24   O     O_R   0.498530 0.256920 0.419280 -0.512916
O25   O     O_R   0.272880 0.527780 0.428680 -0.499809
O26   O     O_R   0.252780 0.739630 0.423250 -0.514087
Cl1   Cl    Cl    0.181011 0.413980 0.842556 -0.605410
N1    N     N_2   0.168917 0.447490 0.683175 -0.478821
H29   H     H_    0.113898 0.473082 0.635831 0.246784
C41   C     C_3   0.276946 0.301787 0.689658 -0.215686
H30   H     H_    0.306990 0.251916 0.635861 0.143378
H31   H     H_    0.234026 0.244200 0.720055 0.174466
H32   H     H_    0.371607 0.291612 0.717121 0.168759
Cl2   Cl    Cl    0.804526 0.379558 0.151609 -0.573561
N2    N     N_2   0.470967 0.056250 0.199981 -0.481480
H33   H     H_    0.487068 0.984490 0.160219 0.277446
C42   C     C_3   0.351894 0.087178 0.246231 -0.293844
H34   H     H_    0.261472 0.101402 0.213163 0.169386
H35   H     H_    0.318610 0.186356 0.276721 0.173091
H36   H     H_    0.379179 0.998652 0.283366 0.126349

loop_
_geom_bond_atom_site_label_1
_geom_bond_atom_site_label_2
_ccdc_geom_bond_type
C7    C10   D    
C24   H15   S    
C31   O11   A    
C42   H34   S    
C9    H5    S    
C10   H6    S    
C41   H31   S    
C31   O6    A    
C2    C6    S    
C25   C28   D    
Cr1   O12   S    
C26   C27   D    
C40   H24   S    
C26   H21   S    
C36   O3    A    
C33   O17   A    
C38   C39   S    
Cr5   O8    S    
Cr6   O18   S    
C35   O13   A    
C40   H3    S    
C32   O14   A    
C18   C19   S    
C16   H14   S    
C30   O9    A    
C41   H30   S    
Cr4   O19   S    
C36   O2    A    
C11   C15   D    
C20   C24   D    
C3    C38   S    
C8    C9    D    
C1    C11   S    
C34   O26   A    
Cr1   O25   S    
C12   O21   A    
C6    H28   S    
C4    C12   S    
Cr4   O13   S    
Cr5   O15   S    
C9    C10   S    
C25   C34   S    
Cr6   O11   S    
C35   O18   A    
Cr5   O19   S    
Cr2   O5    S    
C13   C14   D    
C39   H19   S    
Cr5   O9    S    
C25   H22   S    
C17   C33   S    
C2    H26   S    
C37   O24   A    
Cr3   O22   S    
C19   H12   S    
C21   C32   S    
Cr2   O21   S    
Cr4   O6    S    
C4    C6    S    
Cr4   O7    S    
C1    O20   A    
C14   Cl1   S    
Cr6   O17   S    
Cr1   O24   S    
Cr3   O4    S    
C3    C30   S    
C28   H20   S    
C29   O7    A    
Cr2   O26   S    
Cr1   O1    S    
C32   O15   A    
C4    C39   S    
C22   N2    S    
C17   C18   D    
C39   H23   S    
C42   H35   S    
N1    C41   S    
Cr5   O16   S    
C38   H1    S    
C2    H27   S    
C6    H2    S    
C17   H13   S    
Cr6   O10   S    
C23   O23   A    
C3    C40   S    
C22   C24   S    
C5    H4    S    
C8    C29   S    
C1    O12   A    
Cr2   O20   S    
C13   C31   S    
Cr3   O23   S    
C23   O1    A    
C4    C5    S    
C8    H7    S    
Cr1   O5    S    
Cr3   O3    S    
C34   O25   A    
C37   O4    A    
Cr2   O2    S    
C20   H17   S    
N2    C42   S    
C2    C3    S    
C29   O8    A    
C5    H25   S    
C11   H11   S    
C33   O16   A    
C16   C36   S    
C20   C37   S    
Cr6   O19   S    
C16   C19   D    
C7    C23   S    
C42   H36   S    
Cr4   O14   S    
C15   N1    S    
C30   O10   A    
N1    H29   S    
C18   Cl2   S    
C27   H18   S    
C26   C35   S    
C38   H10   S    
C5    C40   S    
N2    H33   S    
C27   C28   S    
C14   C15   S    
C12   O22   A    
C7    H8    S    
C21   H16   S    
C21   C22   D    
Cr3   O5    S    
C41   H32   S    
C13   H9    S    
