data_mof_unit_38507.cif
_audit_creation_date              2012-12-11T15:17:48-0500
_audit_creation_method            fapswitch 2.2
_symmetry_space_group_name_H-M    P1
_symmetry_Int_Tables_number       1
_space_group_crystal_system       triclinic
_cell_length_a                    15.742412
_cell_length_b                    15.742453
_cell_length_c                    34.614393
_cell_angle_alpha                 90.001915
_cell_angle_beta                  89.999927
_cell_angle_gamma                 119.997932
_cell_volume                      7429.16631511

loop_
_atom_site_label
_atom_site_type_symbol
_atom_type_description
_atom_site_fract_x
_atom_site_fract_y
_atom_site_fract_z
_atom_type_partial_charge
C1    C     C_R   0.578408 0.441420 0.555014 0.562601
C2    C     C_R   0.558579 0.136977 0.555010 0.561993
C3    C     C_R   0.862998 0.421586 0.555018 0.562488
C4    C     C_R   0.441420 0.578409 0.055014 0.562613
C5    C     C_R   0.136966 0.558579 0.055008 0.561965
C6    C     C_R   0.421585 0.862998 0.055018 0.562482
C7    C     C_R   0.969598 0.496949 0.713979 0.343512
C8    C     C_R   0.503072 0.472823 0.713959 0.343389
C9    C     C_R   0.527428 0.030244 0.713943 0.343523
C10   C     C_R   0.496945 0.969587 0.213981 0.343523
C11   C     C_R   0.472814 0.503068 0.213959 0.343398
C12   C     C_R   0.030100 0.527175 0.213934 0.343571
C13   C     C_R   0.979605 0.429182 0.857555 -0.040203
C14   C     C_R   0.570844 0.550472 0.857554 -0.040123
C15   C     C_R   0.449122 0.019845 0.857424 -0.036039
C16   C     C_R   0.429182 0.979595 0.357557 -0.040205
C17   C     C_R   0.550480 0.570837 0.357552 -0.040124
C18   C     C_R   0.019963 0.449102 0.357466 -0.036037
C19   C     C_R   0.014085 0.441498 0.896192 0.028612
C20   C     C_R   0.558516 0.572599 0.896195 0.028759
C21   C     C_R   0.426976 0.985485 0.896035 0.029504
C22   C     C_R   0.441498 0.014078 0.396193 0.028610
C23   C     C_R   0.572606 0.558511 0.396193 0.028766
C24   C     C_R   0.985558 0.426971 0.396072 0.029514
C25   C     C_R   0.090599 0.618556 0.888439 -0.142287
C26   C     C_R   0.381460 0.472081 0.888428 -0.143117
C27   C     C_R   0.528230 0.909668 0.888480 -0.141311
C28   C     C_R   0.618558 0.090596 0.388439 -0.142280
C29   C     C_R   0.472081 0.381456 0.388428 -0.143111
C30   C     C_R   0.909816 0.528279 0.388494 -0.141350
C31   C     C_R   0.056605 0.606374 0.850872 -0.114458
C32   C     C_R   0.393653 0.450306 0.850856 -0.115767
C33   C     C_R   0.550055 0.943612 0.850900 -0.114554
C34   C     C_R   0.606376 0.056599 0.350872 -0.114466
C35   C     C_R   0.450307 0.393647 0.350856 -0.115752
C36   C     C_R   0.943797 0.550088 0.350918 -0.114566
C37   C     C_R   0.005574 0.512953 0.834203 -0.000843
C38   C     C_R   0.487079 0.492710 0.834191 -0.000706
C39   C     C_R   0.507361 0.994278 0.834158 -0.001677
C40   C     C_R   0.512954 0.005565 0.334205 -0.000846
C41   C     C_R   0.492712 0.487071 0.334190 -0.000704
C42   C     C_R   0.994408 0.507322 0.334177 -0.001754
C43   C     C_R   0.075071 0.537648 0.910626 -0.002358
C44   C     C_R   0.462360 0.537433 0.910624 -0.001704
C45   C     C_R   0.462498 0.924849 0.910589 -0.007431
C46   C     C_R   0.537650 0.075067 0.410627 -0.002351
C47   C     C_R   0.537435 0.462357 0.410623 -0.001705
C48   C     C_R   0.924920 0.462510 0.410608 -0.007424
C49   C     C_R   0.577291 0.442601 0.445916 0.581820
C50   C     C_R   0.557400 0.134688 0.445916 0.581160
C51   C     C_R   0.865306 0.422696 0.445909 0.574873
C52   C     C_R   0.442602 0.577290 0.945917 0.581819
C53   C     C_R   0.134689 0.557400 0.945916 0.581139
C54   C     C_R   0.422695 0.865296 0.945905 0.574888
C55   C     C_R   0.913194 0.452782 0.592757 0.001571
C56   C     C_R   0.547189 0.460453 0.592742 0.000507
C57   C     C_R   0.539560 0.086712 0.592732 0.000351
C58   C     C_R   0.452774 0.913189 0.092758 0.001562
C59   C     C_R   0.460453 0.547195 0.092742 0.000513
C60   C     C_R   0.086599 0.539535 0.092713 0.000295
C61   C     C_R   0.912926 0.380263 0.616391 -0.126989
C62   C     C_R   0.619670 0.532806 0.616357 -0.129482
C63   C     C_R   0.467337 0.086982 0.616383 -0.129563
C64   C     C_R   0.380248 0.912899 0.116396 -0.126995
C65   C     C_R   0.532789 0.619682 0.116360 -0.129506
C66   C     C_R   0.086415 0.466993 0.116302 -0.129568
C67   C     C_R   0.935316 0.397604 0.655297 -0.120649
C68   C     C_R   0.602339 0.537904 0.655260 -0.120741
C69   C     C_R   0.462304 0.064543 0.655282 -0.120764
C70   C     C_R   0.397588 0.935285 0.155302 -0.120660
C71   C     C_R   0.537884 0.602348 0.155264 -0.120776
C72   C     C_R   0.063922 0.461873 0.155201 -0.120766
C73   C     C_R   0.960075 0.488273 0.671689 0.011640
C74   C     C_R   0.511714 0.471944 0.671668 0.011792
C75   C     C_R   0.528203 0.039734 0.671651 0.011760
C76   C     C_R   0.488265 0.960065 0.171690 0.011630
C77   C     C_R   0.471938 0.511715 0.171668 0.011790
C78   C     C_R   0.039539 0.528028 0.171633 0.011704
C79   C     C_R   0.969803 0.565524 0.647775 -0.027934
C80   C     C_R   0.434484 0.404321 0.647770 -0.027894
C81   C     C_R   0.595673 0.029972 0.647715 -0.027977
C82   C     C_R   0.565522 0.969813 0.147774 -0.027937
C83   C     C_R   0.404332 0.434481 0.147767 -0.027867
C84   C     C_R   0.030197 0.595834 0.147749 -0.028003
C85   C     C_R   0.946765 0.547857 0.608069 -0.039828
C86   C     C_R   0.452142 0.398902 0.608067 -0.039856
C87   C     C_R   0.601025 0.053058 0.608015 -0.039937
C88   C     C_R   0.547854 0.946777 0.108068 -0.039828
C89   C     C_R   0.398915 0.452142 0.108064 -0.039814
C90   C     C_R   0.053292 0.601240 0.108048 -0.039954
C91   C     C_R   0.989035 0.507699 0.791929 0.346876
C92   C     C_R   0.492342 0.481470 0.791912 0.346795
C93   C     C_R   0.518745 0.010830 0.791891 0.346718
C94   C     C_R   0.507699 0.989025 0.291930 0.346882
C95   C     C_R   0.481468 0.492333 0.291912 0.346802
C96   C     C_R   0.010910 0.518632 0.291898 0.346818
Cr1   Cr    Cr6+3 0.522350 0.263930 0.500020 1.084540
Cr2   Cr    Cr6+3 0.736070 0.258420 0.500020 1.089856
Cr3   Cr    Cr6+3 0.741580 0.477650 0.500020 1.084559
Cr4   Cr    Cr6+3 0.263930 0.522350 0.000020 1.084533
Cr5   Cr    Cr6+3 0.258420 0.736070 0.000020 1.089901
Cr6   Cr    Cr6+3 0.477650 0.741580 0.000020 1.084544
H1    H     H_    0.888694 0.307149 0.605480 0.160058
H2    H     H_    0.692758 0.581736 0.605435 0.158606
H3    H     H_    0.418477 0.111264 0.605492 0.158480
H4    H     H_    0.307129 0.888651 0.105487 0.160115
H5    H     H_    0.581707 0.692774 0.105441 0.158590
H6    H     H_    0.110385 0.417921 0.105368 0.158570
H7    H     H_    0.929731 0.338299 0.673046 0.158007
H8    H     H_    0.661624 0.591700 0.672996 0.157888
H9    H     H_    0.408616 0.070147 0.673047 0.157905
H10   H     H_    0.338278 0.929684 0.173052 0.158045
H11   H     H_    0.591668 0.661637 0.173001 0.157868
H12   H     H_    0.069182 0.407918 0.172917 0.157988
H13   H     H_    0.135393 0.692716 0.899146 0.160343
H14   H     H_    0.307298 0.442714 0.899131 0.159322
H15   H     H_    0.557876 0.865177 0.899254 0.160558
H16   H     H_    0.692718 0.135392 0.399145 0.160347
H17   H     H_    0.442711 0.307295 0.399131 0.159324
H18   H     H_    0.865349 0.557962 0.399260 0.160554
H19   H     H_    0.074690 0.671422 0.834130 0.167744
H20   H     H_    0.328608 0.403365 0.834108 0.166707
H21   H     H_    0.597292 0.925798 0.834206 0.167214
H22   H     H_    0.671424 0.074685 0.334129 0.167739
H23   H     H_    0.403363 0.328602 0.334108 0.166714
H24   H     H_    0.926026 0.597357 0.334227 0.167344
N1    N     N_R   0.917379 0.425574 0.774803 -0.190481
N2    N     N_R   0.574511 0.492073 0.774776 -0.190589
N3    N     N_R   0.508313 0.082507 0.774764 -0.191015
N4    N     N_R   0.425578 0.917360 0.274805 -0.190507
N5    N     N_R   0.492050 0.574496 0.274779 -0.190603
N6    N     N_R   0.081994 0.507317 0.274717 -0.191085
N7    N     N_R   0.907972 0.420196 0.736585 -0.203291
N8    N     N_R   0.579879 0.488062 0.736557 -0.203264
N9    N     N_R   0.512339 0.091902 0.736547 -0.203217
N10   N     N_R   0.420198 0.907952 0.236587 -0.203317
N11   N     N_R   0.488036 0.579866 0.236560 -0.203266
N12   N     N_R   0.091286 0.511285 0.236496 -0.203290
N13   N     N_R   0.040566 0.579620 0.730985 -0.188469
N14   N     N_R   0.420364 0.461001 0.730973 -0.188627
N15   N     N_R   0.539130 0.959274 0.730951 -0.188619
N16   N     N_R   0.579611 0.040565 0.230985 -0.188492
N17   N     N_R   0.461011 0.420365 0.230971 -0.188651
N18   N     N_R   0.959709 0.539727 0.230993 -0.188614
N19   N     N_R   0.050039 0.584784 0.769213 -0.207676
N20   N     N_R   0.415210 0.465292 0.769203 -0.207891
N21   N     N_R   0.534826 0.949812 0.769181 -0.207461
N22   N     N_R   0.584777 0.050039 0.269213 -0.207694
N23   N     N_R   0.465304 0.415209 0.269200 -0.207893
N24   N     N_R   0.950353 0.535485 0.269227 -0.207512
O1    O     O_R   0.498680 0.159540 0.541860 -0.502695
O2    O     O_R   0.840460 0.339140 0.541860 -0.498259
O3    O     O_R   0.660860 0.501320 0.541860 -0.502438
O4    O     O_R   0.159540 0.498680 0.041860 -0.502719
O5    O     O_R   0.339140 0.840460 0.041860 -0.498208
O6    O     O_R   0.501320 0.660860 0.041860 -0.502449
O7    O     O_R   0.532760 0.358060 0.540030 -0.494707
O8    O     O_R   0.641940 0.174700 0.540030 -0.494864
O9    O     O_R   0.825300 0.467240 0.540030 -0.495795
O10   O     O_R   0.358060 0.532760 0.040030 -0.494669
O11   O     O_R   0.174700 0.641940 0.040030 -0.494850
O12   O     O_R   0.467240 0.825300 0.040030 -0.495794
O13   O     O_R   0.498590 0.161190 0.456930 -0.486042
O14   O     O_R   0.838810 0.337400 0.456930 -0.484511
O15   O     O_R   0.662600 0.501410 0.456930 -0.485669
O16   O     O_R   0.161190 0.498590 0.956930 -0.486048
O17   O     O_R   0.337400 0.838810 0.956930 -0.484480
O18   O     O_R   0.501410 0.662600 0.956930 -0.485689
O19   O     O_R   0.532680 0.359580 0.461300 -0.505950
O20   O     O_R   0.640420 0.173100 0.461300 -0.506233
O21   O     O_R   0.826900 0.467320 0.461300 -0.506118
O22   O     O_R   0.359580 0.532680 0.961300 -0.505952
O23   O     O_R   0.173100 0.640420 0.961300 -0.506254
O24   O     O_R   0.467320 0.826900 0.961300 -0.506136
O25   O     O_3   0.666667 0.333333 0.499990 -0.279639
O26   O     O_3   0.333333 0.666667 0.999990 -0.279636
C97   C     C_1   0.955759 0.626676 0.583562 0.230762
N25   N     N_1   0.962976 0.689648 0.564042 -0.249502
C98   C     C_1   0.373343 0.328972 0.583577 0.232385
N26   N     N_1   0.310388 0.273133 0.564072 -0.245608
C99   C     C_1   0.670790 0.044026 0.583483 0.230880
N27   N     N_1   0.726495 0.036777 0.563941 -0.248324
C100  C     C_1   0.626679 0.955791 0.083557 0.230745
N28   N     N_1   0.689655 0.963024 0.064034 -0.249534
C101  C     C_1   0.329003 0.373340 0.083571 0.232429
N29   N     N_1   0.273179 0.310382 0.064063 -0.245620
C102  C     C_1   0.044645 0.671325 0.083574 0.230860
N30   N     N_1   0.037703 0.727287 0.064082 -0.248355
C103  C     C_2   0.985896 0.355104 0.921656 0.598140
O27   O     O_2   0.987385 0.282985 0.909413 -0.484066
O28   O     O_R   0.958269 0.357023 0.959906 -0.667075
H25   H     H_    0.941379 0.294660 0.974475 0.354170
C104  C     C_2   0.644901 0.630768 0.921670 0.598295
O29   O     O_2   0.717034 0.704373 0.909439 -0.483496
O30   O     O_R   0.642955 0.601191 0.959917 -0.666451
H26   H     H_    0.705315 0.646642 0.974494 0.354164
C105  C     C_2   0.367700 0.013135 0.921085 0.596446
O31   O     O_2   0.393691 0.039875 0.954326 -0.478573
O32   O     O_R   0.282266 0.008223 0.906799 -0.672517
H27   H     H_    0.248683 0.028809 0.926648 0.358343
C106  C     C_2   0.355104 0.985890 0.421658 0.598138
O33   O     O_2   0.282984 0.987375 0.409416 -0.484054
O34   O     O_R   0.357025 0.958268 0.459909 -0.667047
H28   H     H_    0.294661 0.941377 0.474479 0.354187
C107  C     C_2   0.630780 0.644898 0.421666 0.598306
O35   O     O_2   0.704395 0.717020 0.409435 -0.483475
O36   O     O_R   0.601200 0.642965 0.459913 -0.666434
H29   H     H_    0.646655 0.705324 0.474489 0.354190
C108  C     C_2   0.013168 0.367693 0.421138 0.596451
O37   O     O_2   0.039899 0.393706 0.454378 -0.478600
O38   O     O_R   0.008224 0.282231 0.406869 -0.672498
H30   H     H_    0.028781 0.248646 0.426727 0.358338
C109  C     C_1   0.996599 0.660505 0.664113 0.238278
N31   N     N_1   0.017912 0.736352 0.677096 -0.224239
C110  C     C_1   0.339545 0.336083 0.664122 0.238613
N32   N     N_1   0.263730 0.281506 0.677117 -0.223685
C111  C     C_1   0.663824 0.003096 0.664026 0.238228
N33   N     N_1   0.718331 0.981717 0.676986 -0.224173
C112  C     C_1   0.660511 0.996629 0.164109 0.238251
N34   N     N_1   0.736364 0.017958 0.177089 -0.224290
C113  C     C_1   0.336110 0.339533 0.164116 0.238670
N35   N     N_1   0.281545 0.263711 0.177107 -0.223636
C114  C     C_1   0.003767 0.664272 0.164109 0.238247
N36   N     N_1   0.982748 0.719012 0.177107 -0.224065
C115  C     C_1   0.919323 0.331128 0.842198 0.286242
N37   N     N_1   0.871112 0.252699 0.830047 -0.203033
C116  C     C_1   0.668905 0.588232 0.842207 0.286331
N38   N     N_1   0.747340 0.618439 0.830065 -0.202916
C117  C     C_1   0.410887 0.079665 0.842007 0.291925
N39   N     N_1   0.380317 0.127523 0.829801 -0.203998
C118  C     C_1   0.331128 0.919310 0.342201 0.286224
N40   N     N_1   0.252699 0.871097 0.330051 -0.203035
C119  C     C_1   0.588249 0.668897 0.342204 0.286319
N41   N     N_1   0.618463 0.747331 0.330060 -0.202920
C120  C     C_1   0.079886 0.410932 0.342096 0.292000
N42   N     N_1   0.127829 0.380413 0.329931 -0.203963

loop_
_geom_bond_atom_site_label_1
_geom_bond_atom_site_label_2
_ccdc_geom_bond_type
Cr2   O8    S    
C25   C31   A    
C3    O9    A    
O34   H28   S    
C26   C32   A    
Cr1   O25   S    
Cr3   O9    S    
Cr4   O22   S    
C106  O33   D    
C6    C58   S    
Cr5   O23   S    
C114  N36   T    
C91   N19   A    
C54   O17   A    
C100  N28   T    
Cr6   O18   S    
C25   C43   A    
C2    C57   S    
C53   O23   A    
C7    C73   S    
Cr2   O2    S    
C107  O35   D    
C27   C33   A    
C29   H17   S    
C28   C46   A    
C3    O2    A    
C17   C23   A    
C91   N1    A    
C29   C47   A    
C18   C24   A    
C30   C48   A    
C61   H1    S    
C1    C56   S    
C10   N10   A    
C7    N7    A    
C25   H13   S    
C13   C115  S    
Cr3   O3    S    
C40   C94   S    
Cr3   O21   S    
C90   C102  S    
Cr5   O5    S    
C68   C74   A    
C5    O4    A    
C49   O19   A    
C72   H12   S    
Cr1   O19   S    
C71   H11   S    
Cr4   O16   S    
C59   C89   A    
C105  O32   S    
C116  N38   T    
Cr4   O10   S    
C39   C93   S    
N18   N24   A    
C11   C77   S    
C18   C42   A    
C35   H23   S    
N3    N9    A    
C10   C76   S    
C43   C53   S    
C48   C51   S    
C66   C72   A    
C82   C112  S    
C63   C69   A    
Cr1   O13   S    
C12   C78   S    
Cr4   O26   S    
C80   C86   A    
C120  N42   T    
C10   N16   A    
C67   C73   A    
C32   C38   A    
C63   H3    S    
C119  N41   T    
C13   C37   A    
C6    O5    A    
C5    C60   S    
C2    O8    A    
C96   N6    A    
C44   C52   S    
C27   H15   S    
C60   C66   A    
O32   H27   S    
C74   C80   A    
C15   C117  S    
C95   N5    A    
C106  O34   S    
C52   O22   A    
C41   C95   S    
C84   C90   A    
C93   N3    A    
C92   N2    A    
C20   C44   A    
C19   C43   A    
C57   C63   A    
C80   C110  S    
C21   C45   A    
O36   H29   S    
C107  O36   S    
C11   N17   A    
C94   N22   A    
C83   C89   A    
C108  O37   D    
N4    N10   A    
C17   C41   A    
C23   C47   A    
C37   C91   S    
C26   C44   A    
O28   H25   S    
C24   C48   A    
C14   C20   A    
C60   C90   A    
C31   H19   S    
C47   C49   S    
C76   C82   A    
C112  N34   T    
C13   C19   A    
C18   C120  S    
C75   C81   A    
C88   C100  S    
C68   H8    S    
O30   H26   S    
C58   C64   A    
C104  O30   S    
C111  N33   T    
C99   N27   T    
C92   N20   A    
C62   H2    S    
C57   C87   A    
C31   C37   A    
Cr1   O7    S    
C55   C85   A    
C110  N32   T    
C49   O15   A    
C117  N39   T    
N5    N11   A    
N2    N8    A    
C14   C38   A    
C113  N35   T    
C61   C67   A    
C56   C86   A    
O38   H30   S    
C8    N8    A    
C109  N31   T    
Cr6   O12   S    
C96   N24   A    
C27   C45   A    
C8    C74   S    
C115  N37   T    
Cr1   O1    S    
C51   O14   A    
C50   O20   A    
C33   C39   A    
C1    O7    A    
C23   C107  S    
C1    O3    A    
N16   N22   A    
C15   C39   A    
C81   C87   A    
C79   C109  S    
C70   H10   S    
C16   C40   A    
C95   N23   A    
C9    N9    A    
C22   C46   A    
C19   C103  S    
C45   C54   S    
C97   N25   T    
C64   C70   A    
C70   C76   A    
C12   N12   A    
C103  O27   D    
C69   C75   A    
N14   N20   A    
C94   N4    A    
Cr6   O6    S    
C20   C104  S    
C71   C77   A    
C34   H22   S    
C32   H20   S    
C33   H21   S    
N6    N12   A    
Cr4   O4    S    
C2    O1    A    
C46   C50   S    
N13   N19   A    
C16   C22   A    
C22   C106  S    
C4    O6    A    
C50   O13   A    
C89   C101  S    
C6    O12   A    
C36   H24   S    
N1    N7    A    
C66   H6    S    
C73   C79   A    
C84   C114  S    
C58   C88   A    
C36   C42   A    
C87   C99   S    
Cr2   O14   S    
C24   C108  S    
C83   C113  S    
C64   H4    S    
C81   C111  S    
C17   C119  S    
Cr6   O24   S    
Cr5   O17   S    
C29   C35   A    
C16   C118  S    
C3    C55   S    
C30   C36   A    
C8    N14   A    
C54   O24   A    
C51   O21   A    
C11   N11   A    
C14   C116  S    
C42   C96   S    
C65   C71   A    
C52   O18   A    
C7    N13   A    
Cr2   O25   S    
C69   H9    S    
C67   H7    S    
C101  N29   T    
C4    O10   A    
C15   C21   A    
C30   H18   S    
C82   C88   A    
C55   C61   A    
C4    C59   S    
Cr5   O11   S    
C86   C98   S    
C108  O38   S    
C79   C85   A    
C21   C105  S    
C93   N21   A    
C56   C62   A    
C62   C68   A    
C105  O31   D    
C35   C41   A    
C26   H14   S    
C78   C84   A    
C9    N15   A    
N15   N21   A    
C28   C34   A    
C98   N26   T    
Cr2   O20   S    
C12   N18   A    
C53   O16   A    
N17   N23   A    
Cr3   O25   S    
C85   C97   S    
C104  O29   D    
C72   C78   A    
C118  N40   T    
C28   H16   S    
C77   C83   A    
C34   C40   A    
Cr5   O26   S    
C102  N30   T    
C9    C75   S    
C103  O28   S    
Cr6   O26   S    
C65   H5    S    
C59   C65   A    
C38   C92   S    
C5    O11   A    
Cr3   O15   S    
