data_mof_unit_60871.cif
_audit_creation_date              2012-12-10T20:14:12-0500
_audit_creation_method            fapswitch 2.2
_symmetry_space_group_name_H-M    P1
_symmetry_Int_Tables_number       1
_space_group_crystal_system       triclinic
_cell_length_a                    19.282157
_cell_length_b                    18.626592
_cell_length_c                    10.565972
_cell_angle_alpha                 90.862105
_cell_angle_beta                  91.513912
_cell_angle_gamma                 90.438579
_cell_volume                      3793.00656281

loop_
_atom_site_label
_atom_site_type_symbol
_atom_type_description
_atom_site_fract_x
_atom_site_fract_y
_atom_site_fract_z
_atom_type_partial_charge
C1    C     C_R   0.365689 0.499779 0.505786 0.999159
C2    C     C_R   0.634025 0.500039 0.496206 0.999390
C3    C     C_R   0.965563 0.484388 0.368414 0.302838
C4    C     C_R   0.032409 0.473772 0.609067 0.312767
C5    C     C_R   0.038570 0.483790 0.378261 0.289577
C6    C     C_R   0.959592 0.471811 0.598552 0.292330
C7    C     C_R   0.070810 0.479175 0.498689 0.067517
C8    C     C_R   0.927388 0.481581 0.479430 0.066498
C9    C     C_R   0.514413 0.729691 0.607355 0.378304
C10   C     C_R   0.439394 0.272309 0.480420 0.372539
C11   C     C_R   0.482928 0.724296 0.390084 0.351305
C12   C     C_R   0.560887 0.273565 0.516511 0.366636
C13   C     C_R   0.504305 0.805038 0.607669 0.263730
C14   C     C_R   0.437941 0.196631 0.491573 0.267937
C15   C     C_R   0.494337 0.799557 0.380602 0.248311
C16   C     C_R   0.562650 0.198058 0.500477 0.274029
C17   C     C_R   0.500026 0.841726 0.492086 -0.062733
C18   C     C_R   0.500404 0.157937 0.494755 -0.084553
C19   C     C_R   0.452697 0.961046 0.413990 0.270608
C20   C     C_R   0.543617 0.038484 0.578087 0.265288
C21   C     C_R   0.549742 0.962537 0.565419 0.274520
C22   C     C_R   0.458322 0.037189 0.404701 0.272641
C23   C     C_R   0.500732 0.076627 0.492466 0.032549
C24   C     C_R   0.501149 0.922989 0.489374 0.054515
C25   C     C_R   0.500270 0.499310 0.257915 0.966712
C26   C     C_R   0.501362 0.500379 0.742271 0.984236
C27   C     C_3   0.437578 0.504126 0.037720 0.218209
C28   C     C_3   0.568334 0.493548 0.961137 0.173343
C29   C     C_3   0.475721 0.560843 0.961983 0.340460
C30   C     C_3   0.530818 0.437116 0.039070 0.233527
C31   C     C_3   0.465284 0.443255 0.954192 0.366341
C32   C     C_3   0.541298 0.553958 0.047178 0.358293
C33   C     C_3   0.502845 0.500465 0.876434 -0.311454
C34   C     C_3   0.502503 0.497624 0.124213 -0.334366
C35   C     C_R   0.738630 0.443472 0.410655 0.244058
C36   C     C_R   0.249910 0.559032 0.488041 0.242760
C37   C     C_R   0.257743 0.435520 0.562504 0.256638
C38   C     C_R   0.750549 0.551175 0.545573 0.234329
C39   C     C_R   0.811163 0.435519 0.414121 0.327900
C40   C     C_R   0.177096 0.552472 0.481164 0.327134
C41   C     C_R   0.185206 0.428187 0.551112 0.311213
C42   C     C_R   0.822843 0.549302 0.531743 0.329238
C43   C     C_R   0.852283 0.489405 0.472509 0.081598
C44   C     C_R   0.145985 0.486787 0.510924 0.091839
C45   C     C_R   0.708936 0.498980 0.482885 -0.246724
C46   C     C_R   0.289991 0.498231 0.517811 -0.241698
N1    N     N_R   0.500000 0.689440 0.500000 -0.202048
N2    N     N_R   0.500000 0.310560 0.500000 -0.209307
O1    O     O_R   0.398180 0.560840 0.499970 -0.565254
O2    O     O_R   0.601820 0.439160 0.500030 -0.539505
O3    O     O_R   0.601820 0.560840 0.500030 -0.609049
O4    O     O_R   0.398180 0.439160 0.499970 -0.527964
O5    O     O_R   0.499980 0.560800 0.313940 -0.546398
O6    O     O_R   0.500020 0.439200 0.686060 -0.609643
O7    O     O_R   0.500020 0.560800 0.686060 -0.537587
O8    O     O_R   0.499980 0.439200 0.313940 -0.627265
Zn1   Zn    Zn3+2 0.500000 0.581210 0.500000 1.057696
Zn2   Zn    Zn3+2 0.500000 0.418790 0.500000 1.048058
O9    O     O_3   0.426950 0.386725 0.894590 -0.560545
C47   C     C_3   0.399355 0.341727 0.987032 0.157691
H1    H     H_    0.360867 0.371137 0.043981 0.167500
H2    H     H_    0.440825 0.320229 0.050519 0.181480
C48   C     C_3   0.362921 0.277973 0.922252 -0.844017
H3    H     H_    0.400094 0.247907 0.863367 0.251581
H4    H     H_    0.342250 0.241492 0.994659 0.207955
H5    H     H_    0.319172 0.296652 0.861301 0.262195
O10   O     O_3   0.577448 0.613265 0.102325 -0.616974
C49   C     C_3   0.641509 0.590946 0.155636 0.168157
H6    H     H_    0.679357 0.581771 0.079711 0.205726
H7    H     H_    0.636337 0.541068 0.211586 0.131802
C50   C     C_3   0.670384 0.649813 0.243787 -0.844653
H8    H     H_    0.633020 0.661677 0.319376 0.268066
H9    H     H_    0.720096 0.632191 0.288286 0.226810
H10   H     H_    0.679918 0.699400 0.189613 0.235489
O11   O     O_3   0.369845 0.508276 0.080663 -0.785421
H11   H     H_    0.340092 0.512664 0.003281 0.363939
O12   O     O_3   0.635739 0.487489 0.916832 -0.773058
H12   H     H_    0.635817 0.442244 0.866475 0.350901
O13   O     O_3   0.446920 0.624415 0.916148 -0.708372
H13   H     H_    0.463114 0.662993 0.975675 0.365081
O14   O     O_3   0.560229 0.373256 0.081970 -0.751235
H14   H     H_    0.602262 0.388060 0.131959 0.368483
O15   O     O_3   0.695737 0.398273 0.338465 -0.734382
H15   H     H_    0.722001 0.379002 0.266340 0.340810
O16   O     O_3   0.282652 0.624009 0.469272 -0.763511
H16   H     H_    0.251875 0.663358 0.496403 0.344359
O17   O     O_3   0.297898 0.384001 0.621255 -0.677418
H17   H     H_    0.269163 0.357561 0.681578 0.340346
O18   O     O_3   0.719691 0.600536 0.624232 -0.770453
H18   H     H_    0.753647 0.616154 0.691231 0.353398
O19   O     O_3   0.843189 0.375434 0.365196 -0.731723
H19   H     H_    0.810234 0.334387 0.365627 0.347139
O20   O     O_3   0.134991 0.608262 0.442773 -0.738663
H20   H     H_    0.160687 0.638486 0.383239 0.350468
O21   O     O_3   0.151289 0.364249 0.574510 -0.729327
H21   H     H_    0.183534 0.323940 0.560428 0.340369
O22   O     O_3   0.866209 0.603701 0.577582 -0.730046
H22   H     H_    0.839856 0.649129 0.579650 0.343368
O23   O     O_3   0.930075 0.488325 0.253419 -0.722859
H23   H     H_    0.957765 0.464348 0.187725 0.357409
O24   O     O_3   0.067560 0.474348 0.724887 -0.722061
H24   H     H_    0.037186 0.494841 0.790101 0.353683
O25   O     O_3   0.079943 0.490680 0.274168 -0.738936
H25   H     H_    0.054934 0.519036 0.209220 0.357857
O26   O     O_3   0.918365 0.460586 0.701624 -0.732899
H26   H     H_    0.944468 0.431641 0.764363 0.351845
O27   O     O_3   0.537749 0.696846 0.716305 -0.527421
C51   C     C_3   0.607859 0.717532 0.738441 0.112401
H27   H     H_    0.613432 0.776344 0.756297 0.187531
H28   H     H_    0.639815 0.702607 0.656154 0.182007
C52   C     C_3   0.636382 0.680534 0.855027 -0.715213
H29   H     H_    0.629426 0.621647 0.844136 0.311944
H30   H     H_    0.692478 0.693128 0.868632 0.193298
H31   H     H_    0.608639 0.700438 0.938919 0.269726
O28   O     O_3   0.378246 0.307307 0.453676 -0.511589
C53   C     C_3   0.363982 0.301621 0.322059 0.134899
H32   H     H_    0.361358 0.244505 0.289187 0.169485
H33   H     H_    0.404468 0.330422 0.268972 0.131261
C54   C     C_3   0.294027 0.335348 0.291474 -0.747596
H34   H     H_    0.278732 0.324016 0.191129 0.199158
H35   H     H_    0.253726 0.312559 0.352737 0.264700
H36   H     H_    0.297104 0.394380 0.306440 0.250269
O29   O     O_3   0.452227 0.686426 0.289693 -0.548528
C55   C     C_3   0.384000 0.712342 0.268527 0.133107
H37   H     H_    0.385054 0.761228 0.209584 0.190350
H38   H     H_    0.357541 0.725272 0.358720 0.158827
C56   C     C_3   0.340321 0.655890 0.197962 -0.675171
H39   H     H_    0.342703 0.604355 0.249119 0.312669
H40   H     H_    0.285488 0.673551 0.191245 0.198010
H41   H     H_    0.359495 0.648268 0.100905 0.266857
O30   O     O_3   0.622374 0.309747 0.541701 -0.524401
C57   C     C_3   0.638526 0.304939 0.672511 0.143156
H42   H     H_    0.641473 0.248020 0.703127 0.179729
H43   H     H_    0.598968 0.333389 0.729088 0.145992
C58   C     C_3   0.709027 0.339677 0.700685 -0.755676
H44   H     H_    0.723662 0.332940 0.802135 0.215146
H45   H     H_    0.749028 0.314142 0.641532 0.267782
H46   H     H_    0.707143 0.397876 0.680524 0.248364
O31   O     O_3   0.501820 0.842540 0.721370 -0.554592
C59   C     C_3   0.431729 0.850572 0.755158 0.134311
H47   H     H_    0.418369 0.807986 0.823150 0.172110
H48   H     H_    0.393768 0.847087 0.673372 0.124925
C60   C     C_3   0.422638 0.923711 0.818535 -0.819624
H49   H     H_    0.432304 0.966926 0.749745 0.242882
H50   H     H_    0.368842 0.928748 0.852394 0.214354
H51   H     H_    0.459431 0.930445 0.900391 0.265250
O32   O     O_3   0.374931 0.160785 0.491794 -0.534046
C61   C     C_3   0.351039 0.160901 0.616825 0.121150
H52   H     H_    0.337885 0.216407 0.648018 0.178368
H53   H     H_    0.390502 0.138134 0.683788 0.125791
C62   C     C_3   0.285880 0.114694 0.621467 -0.790025
H54   H     H_    0.297636 0.058700 0.591901 0.255393
H55   H     H_    0.266439 0.114523 0.719461 0.207781
H56   H     H_    0.244992 0.136427 0.557041 0.265653
O33   O     O_3   0.493857 0.831978 0.263554 -0.547989
C63   C     C_3   0.554377 0.812114 0.199725 0.075620
H57   H     H_    0.556565 0.753029 0.183836 0.207922
H58   H     H_    0.601663 0.830509 0.254253 0.136337
C64   C     C_3   0.554119 0.847034 0.070719 -0.759972
H59   H     H_    0.550301 0.906256 0.081682 0.253937
H60   H     H_    0.602735 0.833933 0.021598 0.211472
H61   H     H_    0.509345 0.826414 0.012416 0.268781
O34   O     O_3   0.625987 0.163969 0.497077 -0.536164
C65   C     C_3   0.647134 0.161088 0.370325 0.133604
H62   H     H_    0.654791 0.216161 0.332999 0.174523
H63   H     H_    0.608341 0.131405 0.308918 0.132126
C66   C     C_3   0.715748 0.121700 0.364384 -0.782570
H64   H     H_    0.709554 0.066258 0.399965 0.256401
H65   H     H_    0.732977 0.118925 0.264987 0.207511
H66   H     H_    0.755887 0.150559 0.423324 0.264671
O35   O     O_3   0.399366 0.923089 0.353298 -0.733801
H67   H     H_    0.360126 0.955946 0.336651 0.345377
O36   O     O_3   0.577595 0.076252 0.675037 -0.726601
H68   H     H_    0.587733 0.043209 0.745638 0.346284
O37   O     O_3   0.602905 0.925908 0.625572 -0.738877
H69   H     H_    0.642073 0.959568 0.643603 0.346801
O38   O     O_3   0.423918 0.073974 0.309721 -0.728607
H70   H     H_    0.413656 0.040505 0.237785 0.344082

loop_
_geom_bond_atom_site_label_1
_geom_bond_atom_site_label_2
_ccdc_geom_bond_type
C60   H51   S    
O17   H17   S    
C5    O25   S    
O20   H20   S    
C12   O30   S    
C27   C29   S    
C14   C18   A    
C11   N1    A    
O21   H21   S    
C61   C62   S    
C40   O20   S    
C12   N2    A    
C26   O7    A    
C48   H4    S    
O22   H22   S    
C58   H44   S    
C66   H65   S    
O16   H16   S    
C51   H27   S    
C38   O18   S    
C65   H63   S    
O24   H24   S    
C47   C48   S    
C13   O31   S    
C63   H57   S    
C19   O35   S    
C38   C42   A    
C29   C32   S    
C49   C50   S    
C64   H59   S    
C30   C31   S    
C25   O8    A    
C1    C46   S    
O28   C53   S    
C29   C33   S    
O1    Zn1   S    
C53   H32   S    
C47   H2    S    
C62   H56   S    
C31   O9    S    
C9    C13   A    
C38   C45   A    
C2    O2    A    
O32   C61   S    
C11   C15   A    
C60   H50   S    
O34   C65   S    
C51   H28   S    
C49   H6    S    
C21   O37   S    
C62   H54   S    
C59   C60   S    
C36   C46   A    
O3    Zn1   S    
O25   H25   S    
C15   O33   S    
C25   C34   S    
C62   H55   S    
C48   H5    S    
O9    C47   S    
C16   O34   S    
O36   H68   S    
C55   C56   S    
C4    C7    A    
C27   O11   S    
C26   O6    A    
C28   C32   S    
C39   O19   S    
O14   H14   S    
C66   H66   S    
C54   H35   S    
C27   C34   S    
O31   C59   S    
C17   C24   S    
C30   C34   S    
C27   C31   S    
C18   C23   S    
O2    Zn2   S    
C12   C16   A    
O29   C55   S    
C19   C22   A    
C61   H52   S    
C4    C6    A    
C3    C8    A    
C10   C14   A    
C42   O22   S    
C66   H64   S    
C5    C7    A    
C35   O15   S    
C57   H42   S    
C39   C43   A    
O12   H12   S    
C14   O32   S    
O10   C49   S    
C47   H1    S    
C32   C34   S    
C35   C39   A    
O11   H11   S    
C56   H40   S    
N1    Zn1   S    
C26   C33   S    
C20   O36   S    
C29   O13   S    
C20   C23   A    
C36   C40   A    
O27   C51   S    
C4    O24   S    
C31   C33   S    
C64   H61   S    
C52   H30   S    
C16   C18   A    
C7    C44   S    
C59   H47   S    
N2    Zn2   S    
C28   O12   S    
O35   H67   S    
C58   H46   S    
O4    Zn2   S    
C53   H33   S    
C32   O10   S    
C61   H53   S    
C57   H43   S    
C28   C33   S    
C9    N1    A    
O7    Zn1   S    
C10   N2    A    
C41   C44   A    
C2    C45   S    
O15   H15   S    
C42   C43   A    
O30   C57   S    
C35   C45   A    
O19   H19   S    
C55   H38   S    
O6    Zn2   S    
C54   H36   S    
C58   H45   S    
C65   H62   S    
O5    Zn1   S    
C52   H29   S    
C37   O17   S    
C63   C64   S    
C11   O29   S    
C25   O5    A    
C48   H3    S    
C3    C5    A    
C50   H10   S    
C6    C8    A    
C54   H34   S    
C53   C54   S    
C15   C17   A    
C56   H39   S    
C59   H48   S    
C36   O16   S    
C9    O27   S    
O26   H26   S    
C51   C52   S    
C13   C17   A    
C30   O14   S    
C63   H58   S    
C64   H60   S    
C37   C46   A    
C56   H41   S    
C50   H8    S    
O37   H69   S    
O23   H23   S    
C41   O21   S    
C57   C58   S    
C8    C43   S    
C28   C30   S    
C6    O26   S    
O8    Zn2   S    
C19   C24   A    
C52   H31   S    
C65   C66   S    
C37   C41   A    
C1    O4    A    
C2    O3    A    
O13   H13   S    
C3    O23   S    
C40   C44   A    
C20   C21   A    
C49   H7    S    
O38   H70   S    
C21   C24   A    
C50   H9    S    
O33   C63   S    
C22   C23   A    
C22   O38   S    
O18   H18   S    
C1    O1    A    
C10   O28   S    
C60   H49   S    
C55   H37   S    
