data_mof_unit_62502.cif
_audit_creation_date              2012-12-10T20:48:27-0500
_audit_creation_method            fapswitch 2.2
_symmetry_space_group_name_H-M    P1
_symmetry_Int_Tables_number       1
_space_group_crystal_system       triclinic
_cell_length_a                    16.037567
_cell_length_b                    19.2235
_cell_length_c                    19.239098
_cell_angle_alpha                 94.516006
_cell_angle_beta                  95.268381
_cell_angle_gamma                 90.424149
_cell_volume                      5887.34510857

loop_
_atom_site_label
_atom_site_type_symbol
_atom_type_description
_atom_site_fract_x
_atom_site_fract_y
_atom_site_fract_z
_atom_type_partial_charge
C1    C     C_R   0.508983 0.310661 0.492844 0.504589
C2    C     C_R   0.418687 0.801221 0.535365 -0.146941
C3    C     C_R   0.449530 0.119590 0.464320 -0.092759
C4    C     C_R   0.491141 0.689316 0.506878 0.509126
C5    C     C_R   0.445444 0.191971 0.462650 -0.154667
C6    C     C_R   0.522763 0.088784 0.493572 0.224042
C7    C     C_R   0.513810 0.234328 0.490898 0.030323
C8    C     C_R   0.587029 0.203310 0.518969 -0.143285
C9    C     C_R   0.591665 0.131059 0.519339 -0.109110
C10   C     C_R   0.484951 0.491613 0.232843 0.036301
C11   C     C_R   0.548958 0.523780 0.201274 -0.202866
C12   C     C_1   0.111030 0.482815 0.482613 -0.042145
C13   C     C_R   0.544228 0.526300 0.128994 -0.110259
C14   C     C_R   0.474473 0.497162 0.086470 0.179610
C15   C     C_R   0.410174 0.465766 0.117739 -0.092922
C16   C     C_R   0.509481 0.508346 0.690110 0.521946
C17   C     C_R   0.415601 0.460937 0.190435 0.249937
C18   C     C_R   0.449438 0.528364 0.875198 -0.109904
C19   C     C_R   0.445132 0.528162 0.802471 -0.202363
C20   C     C_R   0.525406 0.513420 0.913617 0.177066
C21   C     C_R   0.516108 0.512594 0.767002 0.034559
C22   C     C_R   0.593148 0.500541 0.805647 0.254273
C23   C     C_1   0.889072 0.516906 0.517884 -0.046101
C24   C     C_R   0.596841 0.500784 0.878528 -0.087768
C25   C     C_R   0.490812 0.492399 0.309822 0.530616
C26   C     C_R   0.724127 0.509886 0.510051 0.498793
C27   C     C_R   0.275950 0.490051 0.490084 0.507539
C28   C     C_1   0.813739 0.513743 0.514355 0.012412
C29   C     C_2   0.979080 0.520538 0.521903 -0.121280
C30   C     C_2   0.021030 0.479105 0.478694 -0.119379
C31   C     C_3   0.349796 0.359271 0.206923 -0.094653
C32   C     C_3   0.710211 0.547761 0.770113 -0.105754
C33   C     C_1   0.186352 0.486065 0.485994 0.018316
C34   C     C_R   0.485325 0.765600 0.506793 0.028802
C35   C     C_R   0.545177 0.803150 0.475533 -0.151690
C36   C     C_R   0.538885 0.875088 0.473137 -0.092310
C37   C     C_R   0.472121 0.910951 0.501930 0.224216
C38   C     C_R   0.411825 0.873307 0.532207 -0.110486
H1    H     H_    0.987963 0.442096 0.439978 0.137202
H2    H     H_    0.388477 0.214852 0.440537 0.131892
H3    H     H_    0.395979 0.087828 0.442494 0.135957
H4    H     H_    0.359799 0.900074 0.553976 0.122513
H5    H     H_    0.371243 0.773277 0.559122 0.138292
H6    H     H_    0.640903 0.234933 0.540403 0.140335
H7    H     H_    0.585692 0.902436 0.448095 0.137415
H8    H     H_    0.648668 0.107884 0.541006 0.123433
H9    H     H_    0.411103 0.337074 0.225436 0.120340
H10   H     H_    0.333782 0.343633 0.150362 0.101775
H11   H     H_    0.301277 0.336305 0.236134 0.149135
H12   H     H_    0.596931 0.776915 0.452768 0.138324
H13   H     H_    0.732067 0.570552 0.823734 0.104790
H14   H     H_    0.672961 0.586490 0.740787 0.106187
H15   H     H_    0.766476 0.535928 0.742050 0.149590
H16   H     H_    0.385792 0.538495 0.773772 0.141367
H17   H     H_    0.393509 0.539928 0.901208 0.149922
H18   H     H_    0.355509 0.444843 0.085359 0.127087
H19   H     H_    0.594601 0.552014 0.106690 0.149531
H20   H     H_    0.655591 0.489944 0.907894 0.132704
H21   H     H_    0.602978 0.547285 0.232607 0.146075
H22   H     H_    0.012141 0.557560 0.560610 0.135702
N1    N     N_2   0.463094 0.984223 0.500158 -0.246264
N2    N     N_2   0.530578 0.015674 0.496155 -0.250589
N3    N     N_2   0.465977 0.499428 0.012549 -0.239168
N4    N     N_2   0.533114 0.511348 0.987410 -0.244797
O1    O     O_3   0.500000 0.500000 0.500000 -0.443812
O2    O     O_R   0.688130 0.469010 0.547620 -0.532462
O3    O     O_R   0.315580 0.449250 0.449280 -0.528747
O4    O     O_R   0.680710 0.547310 0.468650 -0.540387
O5    O     O_R   0.315580 0.534430 0.534450 -0.539855
O6    O     O_3   0.349465 0.432444 0.220498 -0.540528
O7    O     O_3   0.664358 0.485265 0.772368 -0.537249
O8    O     O_R   0.456860 0.545290 0.655940 -0.557436
O9    O     O_R   0.446440 0.450430 0.339790 -0.497167
O10   O     O_R   0.557290 0.347960 0.537250 -0.541169
O11   O     O_R   0.539410 0.656320 0.467010 -0.543765
O12   O     O_R   0.456880 0.340240 0.450910 -0.549901
O13   O     O_R   0.446420 0.655480 0.544820 -0.543924
O14   O     O_R   0.557280 0.467820 0.657110 -0.486960
O15   O     O_R   0.539420 0.536460 0.347160 -0.554919
Zn1   Zn    Zn3+2 0.430910 0.557800 0.557800 0.936064
Zn2   Zn    Zn3+2 0.574380 0.447110 0.559460 0.964579
Zn3   Zn    Zn3+2 0.563780 0.559000 0.446630 0.935937
Zn4   Zn    Zn3+2 0.430930 0.436090 0.436110 0.957131

loop_
_geom_bond_atom_site_label_1
_geom_bond_atom_site_label_2
_ccdc_geom_bond_type
O3    Zn4   S    
C16   C21   S    
C22   O7    S    
C35   C36   A    
C16   O8    A    
C3    C6    A    
C6    C9    A    
C7    C8    A    
C27   C33   S    
C37   C38   A    
C1    O10   A    
C23   C29   S    
C36   C37   A    
C19   C21   A    
C38   H4    S    
C34   C35   A    
O1    Zn4   S    
C13   H19   S    
C10   C17   A    
C18   C20   A    
C18   C19   A    
C32   H14   S    
C4    O11   A    
C31   O6    S    
C20   C24   A    
C8    C9    A    
C25   O9    A    
C27   O5    A    
C2    C34   A    
C9    H8    S    
O1    Zn1   S    
C31   H9    S    
C13   C14   A    
C31   H11   S    
C11   H21   S    
O12   Zn4   S    
C32   O7    S    
C4    C34   S    
C26   O2    A    
C5    C7    A    
C20   N4    S    
C32   H13   S    
C29   C30   D    
C2    C38   A    
O1    Zn2   S    
C29   H22   S    
C2    H5    S    
C35   H12   S    
C36   H7    S    
C23   C28   T    
C18   H17   S    
C10   C25   S    
C31   H10   S    
C22   C24   A    
O10   Zn2   S    
C32   H15   S    
C19   H16   S    
O13   Zn1   S    
C15   C17   A    
C3    H3    S    
C12   C30   S    
C1    C7    S    
C1    O12   A    
C8    H6    S    
C3    C5    A    
C25   O15   A    
O15   Zn3   S    
C37   N1    S    
O11   Zn3   S    
C26   C28   S    
C26   O4    A    
C15   H18   S    
C6    N2    S    
O4    Zn3   S    
C4    O13   A    
O8    Zn1   S    
O2    Zn2   S    
C11   C13   A    
O14   Zn2   S    
O1    Zn3   S    
C14   N3    S    
C30   H1    S    
C16   O14   A    
N1    N2    D    
C27   O3    A    
C10   C11   A    
N3    N4    D    
C17   O6    S    
C24   H20   S    
C5    H2    S    
C14   C15   A    
O5    Zn1   S    
C12   C33   T    
C21   C22   A    
O9    Zn4   S    
