data_mof_unit_60819.cif
_audit_creation_date              2012-12-10T19:20:46-0500
_audit_creation_method            fapswitch 2.2
_symmetry_space_group_name_H-M    P1
_symmetry_Int_Tables_number       1
_space_group_crystal_system       triclinic
_cell_length_a                    39.299568
_cell_length_b                    39.299565
_cell_length_c                    18.350193
_cell_angle_alpha                 90.079037
_cell_angle_beta                  90.079054
_cell_angle_gamma                 90.490881
_cell_volume                      28339.9697988

loop_
_atom_site_label
_atom_site_type_symbol
_atom_type_description
_atom_site_fract_x
_atom_site_fract_y
_atom_site_fract_z
_atom_type_partial_charge
C1    C     C_R   0.566673 0.000128 0.500448 0.871659
C2    C     C_R   0.000121 0.566668 0.499409 0.871395
C3    C     C_R   0.433332 0.999879 0.500591 0.871396
C4    C     C_R   0.999872 0.433327 0.499551 0.871659
C5    C     C_R   0.066673 0.500128 0.000448 0.871659
C6    C     C_R   0.500121 0.066668 0.999409 0.871395
C7    C     C_R   0.933332 0.499879 0.000591 0.871396
C8    C     C_R   0.499872 0.933327 0.999551 0.871659
C9    C     C_R   0.714244 0.008073 0.486177 0.076737
C10   C     C_R   0.008375 0.714209 0.513728 0.076248
C11   C     C_R   0.285790 0.991625 0.486272 0.076249
C12   C     C_R   0.991927 0.285756 0.513823 0.076737
C13   C     C_R   0.214244 0.508073 0.986177 0.076737
C14   C     C_R   0.508375 0.214210 0.013728 0.076249
C15   C     C_R   0.785790 0.491625 0.986272 0.076249
C16   C     C_R   0.491927 0.785756 0.013823 0.076737
C17   C     C_R   0.787103 0.006629 0.492080 -0.011661
C18   C     C_R   0.006633 0.787100 0.507485 -0.010732
C19   C     C_R   0.212900 0.993367 0.492515 -0.010733
C20   C     C_R   0.993371 0.212897 0.507920 -0.011662
C21   C     C_R   0.287102 0.506629 0.992080 -0.011661
C22   C     C_R   0.506633 0.287100 0.007484 -0.010732
C23   C     C_R   0.712900 0.493367 0.992515 -0.010732
C24   C     C_R   0.493371 0.712897 0.007920 -0.011661
C25   C     C_R   0.656330 0.985840 0.442055 -0.028331
C26   C     C_R   0.025447 0.657100 0.454888 -0.022751
C27   C     C_R   0.343668 0.013938 0.441922 -0.028474
C28   C     C_R   0.974568 0.342745 0.454843 -0.023228
C29   C     C_R   0.342900 0.974553 0.545112 -0.022751
C30   C     C_R   0.986062 0.656332 0.558078 -0.028474
C31   C     C_R   0.657254 0.025433 0.545156 -0.023227
C32   C     C_R   0.014160 0.343670 0.557944 -0.028331
C33   C     C_R   0.156330 0.485840 0.942055 -0.028331
C34   C     C_R   0.525447 0.157100 0.954888 -0.022751
C35   C     C_R   0.843668 0.513938 0.941922 -0.028474
C36   C     C_R   0.474567 0.842745 0.954844 -0.023228
C37   C     C_R   0.842900 0.474552 0.045112 -0.022751
C38   C     C_R   0.486062 0.156332 0.058078 -0.028474
C39   C     C_R   0.157254 0.525433 0.045156 -0.023227
C40   C     C_R   0.514160 0.843669 0.057944 -0.028331
C41   C     C_R   0.621317 0.981169 0.450508 -0.080164
C42   C     C_R   0.022439 0.621405 0.452202 -0.067660
C43   C     C_R   0.378651 0.018809 0.450756 -0.080441
C44   C     C_R   0.977585 0.378466 0.452129 -0.066759
C45   C     C_R   0.378594 0.977561 0.547798 -0.067660
C46   C     C_R   0.981191 0.621349 0.549244 -0.080442
C47   C     C_R   0.621533 0.022415 0.547871 -0.066759
C48   C     C_R   0.018831 0.378683 0.549492 -0.080164
C49   C     C_R   0.121317 0.481169 0.950508 -0.080164
C50   C     C_R   0.522439 0.121405 0.952202 -0.067660
C51   C     C_R   0.878651 0.518809 0.950756 -0.080442
C52   C     C_R   0.477585 0.878467 0.952129 -0.066759
C53   C     C_R   0.878594 0.477561 0.047798 -0.067660
C54   C     C_R   0.481191 0.121348 0.049244 -0.080442
C55   C     C_R   0.121533 0.522415 0.047871 -0.066759
C56   C     C_R   0.518831 0.878683 0.049492 -0.080164
C57   C     C_R   0.603909 0.000908 0.500693 -0.145420
C58   C     C_R   0.000909 0.603875 0.499132 -0.145151
C59   C     C_R   0.396125 0.999091 0.500868 -0.145151
C60   C     C_R   0.999092 0.396091 0.499307 -0.145419
C61   C     C_R   0.103909 0.500908 0.000693 -0.145420
C62   C     C_R   0.500909 0.103875 0.999132 -0.145151
C63   C     C_R   0.896125 0.499091 0.000868 -0.145151
C64   C     C_R   0.499092 0.896091 0.999307 -0.145419
C65   C     C_R   0.675775 0.007104 0.490924 0.002021
C66   C     C_R   0.007298 0.675722 0.509174 0.002731
C67   C     C_R   0.324278 0.992702 0.490826 0.002731
C68   C     C_R   0.992896 0.324225 0.509075 0.002021
C69   C     C_R   0.175775 0.507104 0.990924 0.002021
C70   C     C_R   0.507298 0.175722 0.009174 0.002731
C71   C     C_R   0.824278 0.492702 0.990826 0.002731
C72   C     C_R   0.492896 0.824225 0.009075 0.002021
C73   C     C_R   0.000343 0.933028 0.499897 0.875451
C74   C     C_R   0.066972 0.999657 0.500103 0.875451
C75   C     C_R   0.999606 0.067000 0.499973 0.874857
C76   C     C_R   0.933000 0.000394 0.500027 0.874856
C77   C     C_R   0.500343 0.433028 0.999897 0.875451
C78   C     C_R   0.566972 0.499657 0.000103 0.875451
C79   C     C_R   0.499606 0.567000 0.999973 0.874857
C80   C     C_R   0.433000 0.500394 0.000027 0.874857
C81   C     C_R   0.500003 0.000024 0.640832 0.920391
C82   C     C_R   0.000024 0.500005 0.640831 0.917776
C83   C     C_R   0.499995 0.999976 0.359169 0.917777
C84   C     C_R   0.999976 0.499997 0.359168 0.920391
C85   C     C_R   0.000003 0.500024 0.140832 0.920391
C86   C     C_R   0.500024 0.000005 0.140831 0.917776
C87   C     C_R   0.999995 0.499976 0.859169 0.917777
C88   C     C_R   0.499976 0.999997 0.859168 0.920391
C89   C     C_1   0.499953 0.000061 0.717501 -0.153234
C90   C     C_1   0.000061 0.499954 0.717501 -0.159655
C91   C     C_1   0.500046 0.999939 0.282499 -0.159655
C92   C     C_1   0.999939 0.500046 0.282499 -0.153233
C93   C     C_1   0.999953 0.500061 0.217501 -0.153234
C94   C     C_1   0.500061 0.999954 0.217501 -0.159655
C95   C     C_1   0.000046 0.499939 0.782499 -0.159655
C96   C     C_1   0.499939 0.000046 0.782499 -0.153233
C97   C     C_R   0.878921 0.988674 0.439006 -0.185561
C98   C     C_R   0.016954 0.878613 0.443846 -0.190297
C99   C     C_R   0.120967 0.011657 0.439564 -0.186228
C100  C     C_R   0.983325 0.121414 0.443434 -0.189441
C101  C     C_R   0.121387 0.983046 0.556154 -0.190298
C102  C     C_R   0.988343 0.879033 0.560435 -0.186228
C103  C     C_R   0.878586 0.016675 0.556566 -0.189441
C104  C     C_R   0.011326 0.121079 0.560994 -0.185560
C105  C     C_R   0.378921 0.488674 0.939006 -0.185561
C106  C     C_R   0.516954 0.378613 0.943846 -0.190298
C107  C     C_R   0.620967 0.511657 0.939564 -0.186228
C108  C     C_R   0.483325 0.621414 0.943434 -0.189441
C109  C     C_R   0.621387 0.483046 0.056154 -0.190298
C110  C     C_R   0.488343 0.379033 0.060435 -0.186228
C111  C     C_R   0.378586 0.516675 0.056566 -0.189441
C112  C     C_R   0.511326 0.621079 0.060994 -0.185560
C113  C     C_R   0.844141 0.993032 0.434616 -0.139179
C114  C     C_R   0.015756 0.843439 0.442153 -0.140908
C115  C     C_R   0.155736 0.007221 0.435313 -0.138683
C116  C     C_R   0.984302 0.156619 0.442197 -0.140963
C117  C     C_R   0.156561 0.984244 0.557847 -0.140908
C118  C     C_R   0.992779 0.844264 0.564687 -0.138684
C119  C     C_R   0.843381 0.015698 0.557802 -0.140964
C120  C     C_R   0.006967 0.155859 0.565384 -0.139181
C121  C     C_R   0.344141 0.493032 0.934616 -0.139179
C122  C     C_R   0.515756 0.343439 0.942153 -0.140908
C123  C     C_R   0.655736 0.507221 0.935313 -0.138684
C124  C     C_R   0.484302 0.656619 0.942197 -0.140964
C125  C     C_R   0.656561 0.484244 0.057847 -0.140908
C126  C     C_R   0.492779 0.344264 0.064687 -0.138683
C127  C     C_R   0.343381 0.515698 0.057802 -0.140964
C128  C     C_R   0.506968 0.655858 0.065384 -0.139180
C129  C     C_R   0.825401 0.004986 0.495029 0.112584
C130  C     C_R   0.004788 0.825419 0.504523 0.112160
C131  C     C_R   0.174581 0.995212 0.495477 0.112160
C132  C     C_R   0.995013 0.174599 0.504971 0.112584
C133  C     C_R   0.325401 0.504986 0.995029 0.112584
C134  C     C_R   0.504788 0.325419 0.004523 0.112160
C135  C     C_R   0.674581 0.495212 0.995477 0.112160
C136  C     C_R   0.495014 0.674599 0.004971 0.112584
C137  C     C_R   0.896252 0.001461 0.499289 -0.033298
C138  C     C_R   0.001362 0.896320 0.500550 -0.032653
C139  C     C_R   0.103680 0.998638 0.499449 -0.032653
C140  C     C_R   0.998539 0.103748 0.500711 -0.033298
C141  C     C_R   0.396252 0.501461 0.999289 -0.033298
C142  C     C_R   0.501362 0.396320 0.000550 -0.032653
C143  C     C_R   0.603680 0.498638 0.999449 -0.032653
C144  C     C_R   0.498539 0.603747 0.000711 -0.033298
C145  C     C_R   0.768479 0.033816 0.522829 0.004274
C146  C     C_R   0.981094 0.767989 0.543395 0.001520
C147  C     C_R   0.231559 0.966473 0.524542 0.004322
C148  C     C_R   0.019473 0.231948 0.542330 0.001495
C149  C     C_R   0.232011 0.018906 0.456606 0.001520
C150  C     C_R   0.033527 0.768441 0.475457 0.004322
C151  C     C_R   0.768052 0.980527 0.457670 0.001495
C152  C     C_R   0.966183 0.231521 0.477172 0.004275
C153  C     C_R   0.268479 0.533816 0.022828 0.004274
C154  C     C_R   0.481094 0.267989 0.043394 0.001520
C155  C     C_R   0.731559 0.466473 0.024542 0.004322
C156  C     C_R   0.519473 0.731947 0.042330 0.001494
C157  C     C_R   0.732011 0.518906 0.956606 0.001520
C158  C     C_R   0.533527 0.268441 0.975458 0.004322
C159  C     C_R   0.268052 0.480527 0.957670 0.001495
C160  C     C_R   0.466184 0.731521 0.977172 0.004274
C161  C     C_R   0.733372 0.036230 0.510499 -0.190609
C162  C     C_R   0.980795 0.732589 0.539121 -0.181766
C163  C     C_R   0.266623 0.963868 0.512023 -0.190605
C164  C     C_R   0.019820 0.267382 0.537941 -0.182200
C165  C     C_R   0.267411 0.019205 0.460880 -0.181766
C166  C     C_R   0.036132 0.733377 0.487976 -0.190603
C167  C     C_R   0.732618 0.980180 0.462058 -0.182200
C168  C     C_R   0.963770 0.266628 0.489502 -0.190608
C169  C     C_R   0.233372 0.536230 0.010499 -0.190609
C170  C     C_R   0.480795 0.232589 0.039120 -0.181767
C171  C     C_R   0.766623 0.463868 0.012023 -0.190603
C172  C     C_R   0.519820 0.767382 0.037941 -0.182199
C173  C     C_R   0.767411 0.519205 0.960879 -0.181767
C174  C     C_R   0.536132 0.233377 0.987977 -0.190604
C175  C     C_R   0.232618 0.480180 0.962058 -0.182200
C176  C     C_R   0.463770 0.766628 0.989501 -0.190608
H1    H     H_    0.892310 0.976839 0.393652 0.159910
H2    H     H_    0.029165 0.891951 0.400169 0.158632
H3    H     H_    0.107518 0.023611 0.394365 0.159870
H4    H     H_    0.971462 0.108066 0.399103 0.158734
H5    H     H_    0.108049 0.970835 0.599831 0.158632
H6    H     H_    0.976388 0.892482 0.605635 0.159870
H7    H     H_    0.891934 0.028538 0.600897 0.158734
H8    H     H_    0.023161 0.107690 0.606348 0.159910
H9    H     H_    0.392310 0.476839 0.893652 0.159910
H10   H     H_    0.529165 0.391951 0.900169 0.158632
H11   H     H_    0.607518 0.523611 0.894365 0.159870
H12   H     H_    0.471462 0.608066 0.899103 0.158734
H13   H     H_    0.608049 0.470835 0.099831 0.158632
H14   H     H_    0.476389 0.392482 0.105635 0.159870
H15   H     H_    0.391934 0.528538 0.100897 0.158734
H16   H     H_    0.523161 0.607690 0.106348 0.159910
H17   H     H_    0.832510 0.987351 0.383410 0.148774
H18   H     H_    0.023708 0.830779 0.392460 0.148824
H19   H     H_    0.167193 0.012821 0.384042 0.149053
H20   H     H_    0.976340 0.169392 0.392618 0.148158
H21   H     H_    0.169221 0.976292 0.607540 0.148825
H22   H     H_    0.987179 0.832807 0.615958 0.149053
H23   H     H_    0.830608 0.023659 0.607382 0.148158
H24   H     H_    0.012648 0.167490 0.616590 0.148774
H25   H     H_    0.332510 0.487351 0.883410 0.148774
H26   H     H_    0.523708 0.330779 0.892460 0.148824
H27   H     H_    0.667193 0.512821 0.884042 0.149053
H28   H     H_    0.476341 0.669392 0.892618 0.148158
H29   H     H_    0.669221 0.476292 0.107540 0.148824
H30   H     H_    0.487179 0.332807 0.115958 0.149053
H31   H     H_    0.330608 0.523659 0.107382 0.148158
H32   H     H_    0.512648 0.667490 0.116590 0.148775
H33   H     H_    0.721584 0.060113 0.520902 0.158247
H34   H     H_    0.957122 0.719878 0.554358 0.153102
H35   H     H_    0.278214 0.939984 0.522911 0.158695
H36   H     H_    0.043601 0.280169 0.552490 0.152809
H37   H     H_    0.280122 0.042878 0.445643 0.153101
H38   H     H_    0.060015 0.721786 0.477087 0.158695
H39   H     H_    0.719831 0.956400 0.447508 0.152810
H40   H     H_    0.939887 0.278416 0.479099 0.158246
H41   H     H_    0.221584 0.560113 0.020902 0.158247
H42   H     H_    0.457122 0.219878 0.054357 0.153101
H43   H     H_    0.778214 0.439984 0.022912 0.158695
H44   H     H_    0.543601 0.780169 0.052491 0.152809
H45   H     H_    0.780122 0.542878 0.945643 0.153102
H46   H     H_    0.560015 0.221786 0.977088 0.158695
H47   H     H_    0.219831 0.456400 0.947508 0.152810
H48   H     H_    0.439887 0.778416 0.979098 0.158247
O1    O     O_R   0.550910 0.028770 0.500030 -0.613974
O2    O     O_R   0.971230 0.550910 0.500030 -0.616106
O3    O     O_R   0.449090 0.971230 0.500030 -0.614162
O4    O     O_R   0.028770 0.449090 0.500030 -0.616022
O5    O     O_R   0.449090 0.028770 0.499970 -0.616106
O6    O     O_R   0.028770 0.550910 0.499970 -0.614161
O7    O     O_R   0.550910 0.971230 0.499970 -0.616022
O8    O     O_R   0.971230 0.449090 0.499970 -0.613974
O9    O     O_R   0.050910 0.528770 0.000030 -0.613974
O10   O     O_R   0.471230 0.050910 0.000030 -0.616106
O11   O     O_R   0.949090 0.471230 0.000030 -0.614161
O12   O     O_R   0.528770 0.949090 0.000030 -0.616022
O13   O     O_R   0.949090 0.528770 0.999970 -0.616106
O14   O     O_R   0.528770 0.050910 0.999970 -0.614161
O15   O     O_R   0.050910 0.471230 0.999970 -0.616022
O16   O     O_R   0.471230 0.949090 0.999970 -0.613974
O17   O     O_R   0.499990 0.028770 0.607330 -0.611785
O18   O     O_R   0.971230 0.499990 0.607330 -0.612158
O19   O     O_R   0.500010 0.971230 0.607330 -0.611824
O20   O     O_R   0.028770 0.500010 0.607330 -0.612166
O21   O     O_R   0.500010 0.028770 0.392670 -0.612158
O22   O     O_R   0.028770 0.499990 0.392670 -0.611824
O23   O     O_R   0.499990 0.971230 0.392670 -0.612166
O24   O     O_R   0.971230 0.500010 0.392670 -0.611785
O25   O     O_R   0.999990 0.528770 0.107330 -0.611785
O26   O     O_R   0.471230 0.999990 0.107330 -0.612158
O27   O     O_R   0.000010 0.471230 0.107330 -0.611824
O28   O     O_R   0.528770 0.000010 0.107330 -0.612166
O29   O     O_R   0.000010 0.528770 0.892670 -0.612158
O30   O     O_R   0.528770 0.999990 0.892670 -0.611824
O31   O     O_R   0.999990 0.471230 0.892670 -0.612166
O32   O     O_R   0.471230 0.000010 0.892670 -0.611785
O33   O     O_R   0.000000 0.949040 0.560460 -0.625919
O34   O     O_R   0.050960 1.000000 0.560460 -0.623824
O35   O     O_R   0.000000 0.050960 0.560460 -0.625760
O36   O     O_R   0.949040 1.000000 0.560460 -0.623872
O37   O     O_R   1.000000 0.949040 0.439540 -0.623825
O38   O     O_R   0.949040 1.000000 0.439540 -0.625760
O39   O     O_R   0.000000 0.050960 0.439540 -0.623872
O40   O     O_R   0.050960 1.000000 0.439540 -0.625919
O41   O     O_R   0.500000 0.449040 0.060460 -0.625919
O42   O     O_R   0.550960 0.500000 0.060460 -0.623824
O43   O     O_R   0.500000 0.550960 0.060460 -0.625760
O44   O     O_R   0.449040 0.500000 0.060460 -0.623872
O45   O     O_R   0.500000 0.449040 0.939540 -0.623825
O46   O     O_R   0.449040 0.500000 0.939540 -0.625760
O47   O     O_R   0.500000 0.550960 0.939540 -0.623872
O48   O     O_R   0.550960 0.500000 0.939540 -0.625919
Zn1   Zn    Zn3+2 0.500000 0.038410 0.500000 1.013427
Zn2   Zn    Zn3+2 0.961590 0.500000 0.500000 1.013427
Zn3   Zn    Zn3+2 0.500000 0.961590 0.500000 1.013265
Zn4   Zn    Zn3+2 0.038410 0.500000 0.500000 1.013265
Zn5   Zn    Zn3+2 0.000000 0.538410 0.000000 1.013427
Zn6   Zn    Zn3+2 0.461590 0.000000 0.000000 1.013427
Zn7   Zn    Zn3+2 1.000000 0.461590 0.000000 1.013265
Zn8   Zn    Zn3+2 0.538410 0.000000 0.000000 1.013265
Zn9   Zn    Zn3+2 0.000000 1.000000 0.580910 0.971023
Zn10  Zn    Zn3+2 0.000000 1.000000 0.419090 0.971023
Zn11  Zn    Zn3+2 0.500000 0.500000 0.080910 0.971023
Zn12  Zn    Zn3+2 0.500000 0.500000 0.919090 0.971023
C177  C     C_1   0.782936 0.061074 0.566244 0.153816
N1    N     N_1   0.793986 0.083236 0.601409 -0.182081
C178  C     C_1   0.951995 0.783699 0.575909 0.151809
N2    N     N_1   0.928760 0.797027 0.602350 -0.184278
C179  C     C_1   0.217244 0.939689 0.569228 0.152869
N3    N     N_1   0.206306 0.917964 0.605446 -0.182687
C180  C     C_1   0.048706 0.215938 0.573875 0.153311
N4    N     N_1   0.071891 0.202228 0.599597 -0.184417
C181  C     C_1   0.216301 0.048006 0.424092 0.151810
N5    N     N_1   0.202972 0.071240 0.397651 -0.184278
C182  C     C_1   0.060310 0.782756 0.430772 0.152868
N6    N     N_1   0.082036 0.793694 0.394554 -0.182687
C183  C     C_1   0.784062 0.951294 0.426124 0.153311
N7    N     N_1   0.797771 0.928109 0.400402 -0.184417
C184  C     C_1   0.938925 0.217065 0.433756 0.153816
N8    N     N_1   0.916764 0.206014 0.398591 -0.182081
C185  C     C_1   0.282936 0.561074 0.066244 0.153816
N9    N     N_1   0.293986 0.583236 0.101409 -0.182081
C186  C     C_1   0.451995 0.283699 0.075908 0.151809
N10   N     N_1   0.428760 0.297027 0.102349 -0.184278
C187  C     C_1   0.717244 0.439689 0.069228 0.152868
N11   N     N_1   0.706306 0.417964 0.105446 -0.182687
C188  C     C_1   0.548706 0.715938 0.073875 0.153311
N12   N     N_1   0.571891 0.702228 0.099597 -0.184417
C189  C     C_1   0.716301 0.548006 0.924092 0.151809
N13   N     N_1   0.702973 0.571240 0.897650 -0.184278
C190  C     C_1   0.560311 0.282756 0.930772 0.152868
N14   N     N_1   0.582036 0.293694 0.894554 -0.182687
C191  C     C_1   0.284062 0.451294 0.926124 0.153311
N15   N     N_1   0.297771 0.428109 0.900402 -0.184417
C192  C     C_1   0.438925 0.717064 0.933756 0.153816
N16   N     N_1   0.416764 0.706014 0.898591 -0.182081
C193  C     C_1   0.669966 0.970145 0.378033 0.155138
N17   N     N_1   0.680252 0.956860 0.326257 -0.177684
C194  C     C_1   0.048618 0.672186 0.402595 0.155921
N18   N     N_1   0.067802 0.683686 0.361198 -0.177988
C195  C     C_1   0.330080 0.029384 0.377588 0.154453
N19   N     N_1   0.319793 0.042494 0.325616 -0.177578
C196  C     C_1   0.951336 0.327472 0.402570 0.156454
N20   N     N_1   0.932147 0.315809 0.361226 -0.177964
C197  C     C_1   0.327813 0.951383 0.597406 0.155922
N21   N     N_1   0.316313 0.932199 0.638803 -0.177988
C198  C     C_1   0.970616 0.669920 0.622412 0.154453
N22   N     N_1   0.957506 0.680206 0.674384 -0.177578
C199  C     C_1   0.672527 0.048665 0.597430 0.156452
N23   N     N_1   0.684190 0.067854 0.638772 -0.177964
C200  C     C_1   0.029855 0.330034 0.621967 0.155138
N24   N     N_1   0.043139 0.319748 0.673743 -0.177684
C201  C     C_1   0.169966 0.470145 0.878033 0.155138
N25   N     N_1   0.180252 0.456860 0.826257 -0.177684
C202  C     C_1   0.548618 0.172186 0.902594 0.155921
N26   N     N_1   0.567802 0.183687 0.861197 -0.177988
C203  C     C_1   0.830079 0.529384 0.877588 0.154453
N27   N     N_1   0.819794 0.542494 0.825616 -0.177578
C204  C     C_1   0.451335 0.827473 0.902570 0.156453
N28   N     N_1   0.432146 0.815810 0.861227 -0.177964
C205  C     C_1   0.827814 0.451382 0.097405 0.155921
N29   N     N_1   0.816313 0.432198 0.138802 -0.177988
C206  C     C_1   0.470616 0.169920 0.122412 0.154453
N30   N     N_1   0.457506 0.180206 0.174384 -0.177578
C207  C     C_1   0.172527 0.548665 0.097430 0.156452
N31   N     N_1   0.184190 0.567854 0.138772 -0.177964
C208  C     C_1   0.529855 0.830034 0.121967 0.155138
N32   N     N_1   0.543140 0.819748 0.173743 -0.177684
C209  C     C_1   0.602375 0.957101 0.406253 0.218270
N33   N     N_1   0.586694 0.937964 0.372056 -0.164849
C210  C     C_1   0.039726 0.601088 0.399022 0.205873
N34   N     N_1   0.052883 0.582708 0.358249 -0.165984
C211  C     C_1   0.397492 0.043160 0.407220 0.219129
N35   N     N_1   0.413126 0.062539 0.373702 -0.164793
C212  C     C_1   0.960683 0.398855 0.398633 0.204778
N36   N     N_1   0.947896 0.417527 0.357824 -0.166040
C213  C     C_1   0.398912 0.960274 0.600978 0.205873
N37   N     N_1   0.417292 0.947117 0.641751 -0.165984
C214  C     C_1   0.956840 0.602508 0.592781 0.219129
N38   N     N_1   0.937461 0.586874 0.626298 -0.164793
C215  C     C_1   0.601145 0.039317 0.601367 0.204778
N39   N     N_1   0.582473 0.052104 0.642176 -0.166040
C216  C     C_1   0.042899 0.397625 0.593747 0.218270
N40   N     N_1   0.062036 0.413306 0.627944 -0.164849
C217  C     C_1   0.102375 0.457101 0.906253 0.218270
N41   N     N_1   0.086694 0.437964 0.872056 -0.164849
C218  C     C_1   0.539726 0.101088 0.899022 0.205873
N42   N     N_1   0.552883 0.082708 0.858248 -0.165984
C219  C     C_1   0.897492 0.543160 0.907219 0.219129
N43   N     N_1   0.913126 0.562539 0.873701 -0.164793
C220  C     C_1   0.460683 0.898855 0.898633 0.204778
N44   N     N_1   0.447896 0.917527 0.857824 -0.166040
C221  C     C_1   0.898912 0.460274 0.100978 0.205873
N45   N     N_1   0.917292 0.447117 0.141752 -0.165984
C222  C     C_1   0.456840 0.102508 0.092781 0.219129
N46   N     N_1   0.437461 0.086874 0.126298 -0.164793
C223  C     C_1   0.101145 0.539317 0.101367 0.204778
N47   N     N_1   0.082473 0.552104 0.142175 -0.166040
C224  C     C_1   0.542899 0.897625 0.093747 0.218270
N48   N     N_1   0.562036 0.913306 0.127944 -0.164849

loop_
_geom_bond_atom_site_label_1
_geom_bond_atom_site_label_2
_ccdc_geom_bond_type
C111  H15   S    
C213  N37   T    
C27   C195  S    
C23   C155  A    
C180  N4    T    
C174  H46   S    
C14   C170  A    
C42   C58   A    
C38   C70   A    
C203  N27   T    
C90   C95   T    
C25   C193  S    
C185  N9    T    
C6    O14   A    
O41   Zn11  S    
C45   C213  S    
C98   C138  A    
C103  H7    S    
C78   O42   A    
C75   C140  S    
C103  C137  A    
C73   O33   A    
C98   C114  A    
C154  C170  A    
C13   C175  A    
O3    Zn3   S    
C158  C174  A    
C7    O13   A    
C100  C116  A    
C33   C69   A    
C125  C135  A    
C8    O16   A    
C35   C71   A    
C10   C162  A    
C114  C130  A    
C17   C151  A    
C20   C132  S    
C21   C133  S    
C106  C142  A    
C40   C208  S    
C75   O39   A    
C15   C173  A    
C196  N20   T    
C102  H6    S    
O35   Zn9   S    
C106  H10   S    
C25   C41   A    
C162  H34   S    
C201  N25   T    
C148  C180  S    
C54   C62   A    
C28   C44   A    
C79   O47   A    
C104  C140  A    
C29   C45   A    
C148  C164  A    
O13   Zn5   S    
C76   O36   A    
C1    O7    A    
C212  N36   T    
C35   C203  S    
C51   C219  S    
C37   C71   A    
C35   C51   A    
C53   C221  S    
C18   C130  S    
C107  C143  A    
C4    O8    A    
C108  C144  A    
C2    O2    A    
C147  C179  S    
C31   C65   A    
C76   O38   A    
C45   C59   A    
C114  H18   S    
O1    Zn1   S    
C108  H12   S    
C41   C209  S    
C222  N46   T    
C83   C91   S    
C123  H27   S    
O11   Zn7   S    
C89   C96   T    
C121  H25   S    
C217  N41   T    
C91   C94   T    
C6    C62   S    
C145  C161  A    
C154  C186  S    
O4    Zn4   S    
C151  C167  A    
C125  H29   S    
O25   Zn5   S    
O34   Zn9   S    
C83   O21   A    
C9    C65   S    
C202  N26   T    
C122  H26   S    
C28   C196  S    
C126  C134  A    
C195  N19   T    
C83   O23   A    
C214  N38   T    
C11   C165  A    
C21   C153  A    
C145  C177  S    
C128  H32   S    
O46   Zn12  S    
C18   C150  A    
C24   C156  A    
O48   Zn12  S    
C85   O25   A    
C209  N33   T    
O10   Zn6   S    
C210  N34   T    
C151  C183  S    
C167  H39   S    
C159  C191  S    
C101  C139  A    
O38   Zn10  S    
C76   C137  S    
C12   C68   S    
C82   O18   A    
C28   C68   A    
C126  H30   S    
O14   Zn8   S    
C164  H36   S    
C81   O17   A    
C150  C166  A    
C84   O22   A    
C152  C184  S    
C122  C134  A    
C127  H31   S    
C146  C178  S    
C160  C192  S    
C85   C93   S    
C155  C187  S    
C87   C95   S    
C56   C64   A    
C98   H2    S    
C21   C159  A    
C36   C52   A    
C43   C59   A    
C38   C206  S    
C37   C53   A    
C24   C136  S    
C13   C169  A    
C6    O10   A    
C46   C58   A    
O33   Zn9   S    
C99   C139  A    
C97   C137  A    
C73   O37   A    
C10   C66   S    
C156  C188  S    
O44   Zn11  S    
C82   O20   A    
C26   C66   A    
O8    Zn2   S    
C105  C121  A    
C149  C165  A    
C156  C172  A    
C123  C135  A    
C110  H14   S    
C181  N5    T    
C1    C57   S    
C47   C57   A    
C116  C132  A    
C10   C166  A    
C4    C60   S    
C11   C163  A    
C179  N3    T    
C39   C69   A    
C5    C61   S    
C9    C161  A    
C7    C63   S    
O29   Zn5   S    
C110  C126  A    
C165  H37   S    
C8    C64   S    
C80   C141  S    
C44   C212  S    
O16   Zn6   S    
C31   C199  S    
C100  H4    S    
O19   Zn3   S    
C101  H5    S    
C26   C42   A    
C37   C205  S    
C175  H47   S    
C40   C72   A    
O6    Zn4   S    
C80   O44   A    
C30   C46   A    
C75   O35   A    
C85   O27   A    
C84   O24   A    
C168  H40   S    
C147  C163  A    
C53   C63   A    
C13   C69   S    
C23   C157  A    
C119  C129  A    
C77   O45   A    
C117  C131  A    
O27   Zn7   S    
C27   C67   A    
C111  C141  A    
C42   C210  S    
C116  H20   S    
C153  C185  S    
O20   Zn4   S    
C84   C92   S    
C54   C222  S    
C171  H43   S    
C36   C72   A    
C118  H22   S    
C169  H41   S    
C88   C96   S    
O40   Zn10  S    
C158  C190  S    
C16   C72   S    
C107  C123  A    
C206  N30   T    
C173  H45   S    
C3    O5    A    
C211  N35   T    
C224  N48   T    
C146  C162  A    
O5    Zn1   S    
O39   Zn10  S    
C119  H23   S    
C150  C182  S    
O26   Zn6   S    
C108  C124  A    
C128  C136  A    
C99   C115  A    
C33   C49   A    
C220  N44   T    
C149  C181  S    
C49   C217  S    
C183  N7    T    
C52   C220  S    
O17   Zn1   S    
C29   C67   A    
O30   Zn8   S    
C39   C55   A    
C43   C211  S    
C40   C56   A    
O15   Zn7   S    
C216  N40   T    
C78   O48   A    
C176  H48   S    
C34   C70   A    
C81   C89   S    
C16   C176  A    
C87   O31   A    
C192  N16   T    
C31   C47   A    
C14   C70   S    
C152  C168  A    
C86   O28   A    
C7    O11   A    
C49   C61   A    
C124  C136  A    
C188  N12   T    
C51   C63   A    
C52   C64   A    
C2    O6    A    
C208  N32   T    
C88   O30   A    
C22   C158  A    
C205  N29   T    
C161  H33   S    
C19   C147  A    
C20   C152  A    
C17   C145  A    
C184  N8    T    
O24   Zn2   S    
C177  N1    T    
C118  C130  A    
C12   C164  A    
C97   H1    S    
C178  N2    T    
C38   C54   A    
O43   Zn11  S    
C32   C200  S    
C30   C198  S    
C15   C171  A    
C109  C143  A    
O36   Zn9   S    
C157  C189  S    
C8    O12   A    
C104  H8    S    
C124  H28   S    
C3    O3    A    
C182  N6    T    
C74   C139  S    
C1    O1    A    
C115  H19   S    
C5    O15   A    
C113  H17   S    
C127  C133  A    
C47   C215  S    
C2    C58   S    
C15   C71   S    
C106  C122  A    
C82   C90   S    
C23   C135  S    
C101  C117  A    
C81   O19   A    
O28   Zn8   S    
C41   C57   A    
C198  N22   T    
C14   C174  A    
C191  N15   T    
C32   C48   A    
C74   O34   A    
C44   C60   A    
C92   C93   T    
C120  H24   S    
C77   O41   A    
C29   C197  S    
C4    O4    A    
C197  N21   T    
C112  C128  A    
C194  N18   T    
C56   C224  S    
C27   C43   A    
C87   O29   A    
C187  N11   T    
C153  C169  A    
O12   Zn8   S    
O2    Zn2   S    
C78   C143  S    
C157  C173  A    
C104  C120  A    
O42   Zn11  S    
C86   O26   A    
C190  N14   T    
C107  H11   S    
C34   C202  S    
C199  N23   T    
C218  N42   T    
C200  N24   T    
C88   O32   A    
C115  C131  A    
C189  N13   T    
C99   H3    S    
C113  C129  A    
C22   C134  S    
O32   Zn6   S    
C105  C141  A    
C112  H16   S    
C73   C138  S    
C55   C61   A    
O21   Zn1   S    
C102  C138  A    
C105  H9    S    
C110  C142  A    
C77   C142  S    
C100  C140  A    
C19   C149  A    
C204  N28   T    
C109  H13   S    
C79   O43   A    
O45   Zn12  S    
C86   C94   S    
C46   C214  S    
C102  C118  A    
C32   C68   A    
C186  N10   T    
C159  C175  A    
C160  C176  A    
C33   C201  S    
C50   C218  S    
C11   C67   S    
C48   C60   A    
C19   C131  S    
C34   C50   A    
C17   C129  S    
C9    C167  A    
C25   C65   A    
O18   Zn2   S    
C163  H35   S    
C39   C207  S    
C55   C223  S    
C16   C172  A    
C79   C144  S    
C20   C148  A    
O7    Zn3   S    
C26   C194  S    
C223  N47   T    
C30   C66   A    
C166  H38   S    
C109  C125  A    
C111  C127  A    
C50   C62   A    
C48   C216  S    
C36   C204  S    
C97   C113  A    
C117  H21   S    
C219  N43   T    
C22   C154  A    
O31   Zn7   S    
C120  C132  A    
C103  C119  A    
C18   C146  A    
C172  H44   S    
C12   C168  A    
C24   C160  A    
O9    Zn5   S    
C215  N39   T    
C112  C144  A    
O22   Zn4   S    
C221  N45   T    
O47   Zn12  S    
C80   O46   A    
C193  N17   T    
O37   Zn10  S    
C155  C171  A    
C5    O9    A    
C121  C133  A    
C207  N31   T    
O23   Zn3   S    
C74   O40   A    
C170  H42   S    
C3    C59   S    
