data_mof_unit_23405.cif
_audit_creation_date              2012-12-10T17:09:50-0500
_audit_creation_method            fapswitch 2.2
_symmetry_space_group_name_H-M    P1
_symmetry_Int_Tables_number       1
_space_group_crystal_system       triclinic
_cell_length_a                    10.779371
_cell_length_b                    13.001989
_cell_length_c                    11.67311
_cell_angle_alpha                 99.702597
_cell_angle_beta                  93.523075
_cell_angle_gamma                 90.407748
_cell_volume                      1609.32097506

loop_
_atom_site_label
_atom_site_type_symbol
_atom_type_description
_atom_site_fract_x
_atom_site_fract_y
_atom_site_fract_z
_atom_type_partial_charge
C1    C     C_R   0.498201 0.299094 0.478746 0.810621
C2    C     C_R   0.071078 0.593149 0.572724 0.094337
C3    C     C_R   0.129001 0.510198 0.502306 -0.097194
C4    C     C_R   0.058646 0.432791 0.428458 -0.203519
C5    C     C_R   0.930644 0.433356 0.427227 -0.200160
C6    C     C_R   0.871169 0.511382 0.499786 -0.099425
C7    C     C_R   0.502727 0.814229 0.533604 -0.047617
C8    C     C_R   0.497192 0.185710 0.466506 -0.053547
C9    C     C_R   0.488579 0.015402 0.344446 -0.216799
C10   C     C_R   0.489169 0.123479 0.355550 -0.200412
C11   C     C_R   0.504431 0.139160 0.566415 -0.267030
C12   C     C_R   0.262545 0.503328 0.500916 0.791869
C13   C     C_R   0.503911 0.031133 0.556019 0.177578
C14   C     C_R   0.495953 0.968795 0.444155 0.175503
C15   C     C_R   0.495458 0.860786 0.433733 -0.261639
C16   C     C_R   0.510717 0.876410 0.644583 -0.211106
C17   C     C_R   0.511280 0.984495 0.655722 -0.217479
C18   C     C_R   0.386957 0.398710 0.022029 -0.339206
C19   C     C_R   0.397292 0.408782 0.144201 0.090235
C20   C     C_R   0.548102 0.544347 0.156953 0.026816
C21   C     C_R   0.540821 0.536996 0.034145 0.065951
C22   C     C_R   0.459118 0.463078 0.965877 0.067238
C23   C     C_R   0.501774 0.700890 0.521275 0.783443
C24   C     C_R   0.451882 0.455679 0.843069 0.027992
C25   C     C_R   0.602588 0.591325 0.855822 0.091348
C26   C     C_R   0.612928 0.601407 0.977989 -0.337803
C27   C     C_R   0.737506 0.503776 0.499869 0.794426
C28   C     C_R   0.140051 0.677123 0.640967 -0.175767
C29   C     C_R   0.080093 0.758854 0.707512 -0.132274
C30   C     C_R   0.950976 0.759530 0.706040 -0.140261
C31   C     C_R   0.881003 0.678473 0.638027 -0.186687
C32   C     C_R   0.939794 0.593805 0.571303 0.099495
Cu1   Cu    Cu3+1 0.509250 0.507730 0.615930 0.932379
Cu2   Cu    Cu3+1 0.490750 0.492270 0.384070 0.937811
H1    H     H_    0.103340 0.370298 0.373185 0.144152
H2    H     H_    0.517438 0.031459 0.741963 0.133713
H3    H     H_    0.483431 0.158195 0.277351 0.155639
H4    H     H_    0.510521 0.186742 0.652393 0.151882
H5    H     H_    0.389061 0.399236 0.789721 0.121049
H6    H     H_    0.658356 0.641461 0.813501 0.119855
H7    H     H_    0.323125 0.340980 0.972009 0.136764
H8    H     H_    0.676716 0.659180 0.028000 0.137916
H9    H     H_    0.341428 0.358726 0.186562 0.120647
H10   H     H_    0.610932 0.600784 0.210304 0.120538
H11   H     H_    0.240262 0.681832 0.642138 0.150110
H12   H     H_    0.904720 0.823847 0.756597 0.132106
H13   H     H_    0.780971 0.684277 0.636602 0.137004
H14   H     H_    0.489378 0.813220 0.347745 0.151793
H15   H     H_    0.516462 0.841650 0.722754 0.154306
H16   H     H_    0.482411 0.968418 0.258212 0.134065
N1    N     N_R   0.523180 0.519350 0.790130 -0.180974
N2    N     N_R   0.476820 0.480650 0.209890 -0.180194
O1    O     O_R   0.506570 0.354460 0.582000 -0.586118
O2    O     O_R   0.490940 0.341410 0.386200 -0.594450
O3    O     O_R   0.327470 0.506530 0.597920 -0.587494
O4    O     O_R   0.311840 0.493480 0.402120 -0.578792
O5    O     O_R   0.509060 0.658590 0.613800 -0.607282
O6    O     O_R   0.493430 0.645540 0.418000 -0.586989
O7    O     O_R   0.688160 0.506520 0.597880 -0.582492
O8    O     O_R   0.672530 0.493470 0.402080 -0.580591
H17   H     H_    0.134044 0.822648 0.759244 0.133870
H18   H     H_    0.877668 0.371062 0.371497 0.150847

loop_
_geom_bond_atom_site_label_1
_geom_bond_atom_site_label_2
_ccdc_geom_bond_type
Cu1   O3    S    
C11   H4    S    
C2    C28   A    
C9    C14   A    
C25   N1    A    
Cu2   O4    S    
C29   C30   A    
C17   H2    S    
Cu1   N1    S    
C1    C8    S    
C9    C10   A    
Cu2   N2    S    
C31   C32   A    
C27   O7    A    
C13   C17   A    
C30   C31   A    
C1    O2    A    
C21   C22   A    
C24   N1    A    
C7    C15   A    
C2    C3    A    
C4    H1    S    
C20   N2    A    
C31   H13   S    
C13   C14   A    
C20   C21   A    
Cu2   O8    S    
C11   C13   A    
C12   O4    A    
C15   H14   S    
C8    C11   A    
C7    C23   S    
C2    C32   A    
C8    C10   A    
C28   C29   A    
C20   H10   S    
C21   C26   A    
C19   H9    S    
C5    H18   S    
Cu2   O2    S    
C23   O6    A    
C22   C24   A    
C27   O8    A    
C10   H3    S    
C25   H6    S    
Cu1   O1    S    
C5    C6    A    
Cu2   O6    S    
C29   H17   S    
C28   H11   S    
C12   O3    A    
C16   C17   A    
C3    C4    A    
C24   H5    S    
Cu1   Cu2   S    
C16   H15   S    
C26   H8    S    
Cu1   O7    S    
C18   C19   A    
C18   H7    S    
C23   O5    A    
C1    O1    A    
C14   C15   A    
C7    C16   A    
Cu1   O5    S    
C3    C12   S    
C25   C26   A    
C18   C22   A    
C19   N2    A    
C30   H12   S    
C9    H16   S    
C6    C27   S    
C4    C5    A    
C6    C32   A    
