data_mof_unit_43719.cif
_audit_creation_date              2012-12-10T17:46:13-0500
_audit_creation_method            fapswitch 2.2
_symmetry_space_group_name_H-M    P1
_symmetry_Int_Tables_number       1
_space_group_crystal_system       triclinic
_cell_length_a                    14.139773
_cell_length_b                    10.635626
_cell_length_c                    9.986195
_cell_angle_alpha                 89.857357
_cell_angle_beta                  89.39791
_cell_angle_gamma                 93.204579
_cell_volume                      1499.33906514

loop_
_atom_site_label
_atom_site_type_symbol
_atom_type_description
_atom_site_fract_x
_atom_site_fract_y
_atom_site_fract_z
_atom_type_partial_charge
C1    C     C_R   0.502684 0.260972 0.500109 0.846552
C2    C     C_R   0.438667 0.059823 0.431931 -0.219320
C3    C     C_R   0.438867 0.931346 0.431433 -0.199566
C4    C     C_R   0.329442 0.500062 0.500546 0.883160
C5    C     C_R   0.509544 0.872272 0.499187 -0.098466
C6    C     C_R   0.384040 0.326046 0.150360 -0.132955
C7    C     C_R   0.331541 0.229221 0.092005 -0.235557
C8    C     C_R   0.328660 0.221858 0.955824 -0.223478
C9    C     C_R   0.376666 0.312700 0.874495 0.141526
C10   C     C_R   0.441061 0.409922 0.931037 0.147557
C11   C     C_R   0.442515 0.412528 0.075743 0.134054
C12   C     C_1   0.772107 0.500357 0.498445 -0.209966
C13   C     C_R   0.555095 0.583514 0.069830 -0.105295
C14   C     C_R   0.555066 0.583590 0.927452 -0.114993
C15   C     C_R   0.502955 0.739387 0.499785 0.856207
C16   C     C_R   0.670586 0.500701 0.499388 0.857250
C17   C     C_1   0.227893 0.499878 0.501524 -0.221273
C18   C     C_1   0.142578 0.499705 0.501442 -0.017259
C19   C     C_1   0.042630 0.499643 0.500629 0.003006
C20   C     C_1   0.957329 0.499743 0.499696 0.001810
C21   C     C_1   0.857398 0.500028 0.498722 -0.013796
C22   C     C_R   0.659332 0.142382 0.626708 -0.173868
C23   C     C_R   0.732543 0.081974 0.687955 -0.131247
C24   C     C_R   0.732759 0.951193 0.687329 -0.140020
C25   C     C_R   0.659763 0.880338 0.625448 -0.189904
C26   C     C_R   0.584159 0.940065 0.564510 0.097613
C27   C     C_R   0.583952 0.071931 0.565063 0.097271
C28   C     C_R   0.509192 0.129028 0.500047 -0.097236
H1    H     H_    0.382218 0.105498 0.381614 0.137913
H2    H     H_    0.375193 0.329996 0.255309 0.205674
H3    H     H_    0.289438 0.162374 0.152994 0.152946
H4    H     H_    0.354417 0.214632 0.704102 0.169353
H5    H     H_    0.276008 0.323812 0.735828 0.164564
H6    H     H_    0.282598 0.148603 0.911752 0.147862
H7    H     H_    0.600238 0.652286 0.873510 0.144728
H8    H     H_    0.663421 0.244087 0.626585 0.150499
H9    H     H_    0.789815 0.136893 0.734760 0.139294
H10   H     H_    0.790195 0.904510 0.733641 0.136986
H11   H     H_    0.664186 0.779190 0.624138 0.139970
H12   H     H_    0.382570 0.877522 0.380729 0.153464
H13   H     H_    0.600366 0.652220 0.121855 0.147159
N1    N     N_R   0.499190 0.498800 0.142780 -0.112101
N2    N     N_R   0.499160 0.498720 0.857170 -0.103758
N3    N     N_3   0.348151 0.306615 0.739056 -0.369371
O1    O     O_R   0.500000 0.316780 0.614690 -0.599910
O2    O     O_R   0.499990 0.316750 0.385360 -0.624969
O3    O     O_R   0.373720 0.500010 0.614690 -0.570225
O4    O     O_R   0.373710 0.499990 0.385360 -0.620679
O5    O     O_R   0.500010 0.683250 0.614640 -0.612117
O6    O     O_R   0.500000 0.683220 0.385310 -0.605974
O7    O     O_R   0.626290 0.500010 0.614640 -0.608832
O8    O     O_R   0.626280 0.499990 0.385310 -0.585806
Zn1   Zn    Zn3+2 0.500010 0.500020 0.653130 0.945333
Zn2   Zn    Zn3+2 0.499990 0.499980 0.346870 0.936191

loop_
_geom_bond_atom_site_label_1
_geom_bond_atom_site_label_2
_ccdc_geom_bond_type
C1    C28   S    
C24   H10   S    
C23   C24   A    
C6    C7    A    
C22   H8    S    
C9    C10   A    
C10   N2    A    
C19   C20   T    
C16   O7    A    
O3    Zn1   S    
O2    Zn2   S    
C13   H13   S    
C17   C18   T    
H4    N3    S    
O1    Zn1   S    
C7    C8    A    
C8    H6    S    
C13   C14   A    
C25   H11   S    
O4    Zn2   S    
C6    C11   A    
C1    O1    A    
C26   C27   A    
O6    Zn2   S    
C2    H1    S    
O5    Zn1   S    
C4    C17   S    
C13   N1    A    
C6    H2    S    
O8    Zn2   S    
C3    H12   S    
C2    C3    A    
C22   C27   A    
C15   O5    A    
C1    O2    A    
C5    C15   S    
C7    H3    S    
C10   C11   A    
C5    C26   A    
C16   O8    A    
C14   H7    S    
C24   C25   A    
C11   N1    A    
C20   C21   S    
C18   C19   S    
C4    O4    A    
C15   O6    A    
C27   C28   A    
C22   C23   A    
C14   N2    A    
C9    N3    S    
C2    C28   A    
C3    C5    A    
C25   C26   A    
C23   H9    S    
H5    N3    S    
C12   C21   T    
N2    Zn1   S    
N1    Zn2   S    
C12   C16   S    
C8    C9    A    
O7    Zn1   S    
C4    O3    A    
