data_mof_unit_65885.cif
_audit_creation_date              2012-12-10T20:17:19-0500
_audit_creation_method            fapswitch 2.2
_symmetry_space_group_name_H-M    P1
_symmetry_Int_Tables_number       1
_space_group_crystal_system       triclinic
_cell_length_a                    35.524792
_cell_length_b                    35.524803
_cell_length_c                    23.532662
_cell_angle_alpha                 89.999978
_cell_angle_beta                  90.0
_cell_angle_gamma                 89.999978
_cell_volume                      29698.4838903

loop_
_atom_site_label
_atom_site_type_symbol
_atom_type_description
_atom_site_fract_x
_atom_site_fract_y
_atom_site_fract_z
_atom_type_partial_charge
C1    C     C_R   1.000000 0.426765 0.500000 0.882980
C2    C     C_1   0.267037 0.000000 0.500000 0.204236
C3    C     C_R   0.826341 0.999646 0.448236 0.391714
C4    C     C_R   0.000359 0.173659 0.551764 0.391715
C5    C     C_R   0.826341 0.000354 0.551764 0.391714
C6    C     C_R   0.999647 0.826341 0.551764 0.391716
C7    C     C_R   0.173659 0.999641 0.551764 0.391715
C8    C     C_R   0.499642 0.673659 0.948235 0.391715
C9    C     C_R   0.673659 0.500359 0.948236 0.391715
C10   C     C_R   0.500358 0.326341 0.948236 0.391715
C11   C     C_R   0.326341 0.499641 0.948235 0.391715
C12   C     C_R   0.500358 0.673659 0.051764 0.391715
C13   C     C_1   1.000000 0.732962 0.500000 0.204237
C14   C     C_R   0.326341 0.500359 0.051764 0.391715
C15   C     C_R   0.499642 0.326341 0.051764 0.391715
C16   C     C_R   0.673659 0.499641 0.051764 0.391715
C17   C     C_R   0.999650 0.134473 0.448439 -0.210906
C18   C     C_R   0.134473 0.000349 0.448439 -0.210906
C19   C     C_R   0.000344 0.865527 0.448439 -0.210906
C20   C     C_R   0.865527 0.999655 0.448439 -0.210909
C21   C     C_R   0.000349 0.134473 0.551561 -0.210907
C22   C     C_R   0.865527 0.000345 0.551561 -0.210908
C23   C     C_R   0.999656 0.865527 0.551561 -0.210906
C24   C     C_1   0.732962 1.000000 0.500000 0.204232
C25   C     C_R   0.134473 0.999651 0.551561 -0.210907
C26   C     C_R   0.499652 0.634473 0.948438 -0.210907
C27   C     C_R   0.634473 0.500349 0.948439 -0.210907
C28   C     C_R   0.500348 0.365527 0.948439 -0.210907
C29   C     C_R   0.365527 0.499651 0.948438 -0.210906
C30   C     C_R   0.500348 0.634473 0.051561 -0.210907
C31   C     C_R   0.365527 0.500349 0.051561 -0.210907
C32   C     C_R   0.499651 0.365527 0.051561 -0.210906
C33   C     C_R   0.634473 0.499651 0.051561 -0.210907
C34   C     C_R   1.000000 0.114660 0.500000 -0.182635
C35   C     C_1   0.500000 0.767038 1.000000 0.204235
C36   C     C_R   0.114660 0.000000 0.500000 -0.182635
C37   C     C_R   1.000000 0.885340 0.500000 -0.182636
C38   C     C_R   0.885340 1.000000 0.500000 -0.182634
C39   C     C_R   0.500000 0.614660 1.000000 -0.182635
C40   C     C_R   0.614660 0.500000 0.000000 -0.182635
C41   C     C_R   0.500000 0.385340 0.000000 -0.182635
C42   C     C_R   0.385340 0.500000 1.000000 -0.182635
C43   C     C_R   0.000000 0.193280 0.500000 -0.103006
C44   C     C_R   0.193280 0.000000 0.500000 -0.103005
C45   C     C_R   1.000000 0.806720 0.500000 -0.103004
C46   C     C_1   0.767038 0.500000 0.000000 0.204235
C47   C     C_R   0.806719 1.000000 0.500000 -0.103009
C48   C     C_R   0.500000 0.693280 1.000000 -0.103006
C49   C     C_R   0.693280 0.500000 0.000000 -0.103005
C50   C     C_R   0.500000 0.306720 0.000000 -0.103006
C51   C     C_R   0.306720 0.500000 1.000000 -0.103006
C52   C     C_1   0.000000 0.233402 0.500000 0.183730
C53   C     C_1   0.233402 0.000000 0.500000 0.183731
C54   C     C_1   1.000000 0.766598 0.500000 0.183732
C55   C     C_1   0.766598 1.000000 0.500000 0.183727
C56   C     C_1   0.500000 0.733402 1.000000 0.183730
C57   C     C_1   0.500000 0.232962 0.000000 0.204236
C58   C     C_1   0.733402 0.500000 0.000000 0.183731
C59   C     C_1   0.500000 0.266598 0.000000 0.183730
C60   C     C_1   0.266598 0.500000 1.000000 0.183731
C61   C     C_1   0.232962 0.500000 1.000000 0.204236
C62   C     C_R   0.983436 0.326673 0.454579 0.415121
C63   C     C_R   0.326673 0.016565 0.454580 0.415121
C64   C     C_R   0.016563 0.673327 0.454579 0.415122
C65   C     C_R   0.426765 0.000000 0.500000 0.882980
C66   C     C_R   0.673327 0.983449 0.454568 0.415124
C67   C     C_R   0.016564 0.326673 0.545420 0.415121
C68   C     C_R   0.673327 0.016551 0.545432 0.415124
C69   C     C_R   0.983436 0.673327 0.545421 0.415123
C70   C     C_R   0.326673 0.983435 0.545420 0.415121
C71   C     C_R   0.483437 0.826673 0.954579 0.415122
C72   C     C_R   0.826673 0.516566 0.954581 0.415121
C73   C     C_R   0.516565 0.173327 0.954580 0.415121
C74   C     C_R   0.173327 0.483435 0.954580 0.415121
C75   C     C_R   0.516563 0.826673 0.045421 0.415121
C76   C     C_R   0.000000 0.573235 0.500000 0.882978
C77   C     C_R   0.173327 0.516565 0.045420 0.415121
C78   C     C_R   0.483435 0.173327 0.045420 0.415121
C79   C     C_R   0.826673 0.483435 0.045420 0.415122
C80   C     C_R   0.983282 0.365999 0.454441 0.009368
C81   C     C_R   0.365999 0.016718 0.454442 0.009368
C82   C     C_R   0.016717 0.634001 0.454440 0.009370
C83   C     C_R   0.634000 0.983296 0.454430 0.009370
C84   C     C_R   0.016718 0.365999 0.545559 0.009369
C85   C     C_R   0.634000 0.016704 0.545570 0.009370
C86   C     C_R   0.983283 0.634001 0.545560 0.009370
C87   C     C_R   0.573235 0.000000 0.500000 0.882966
C88   C     C_R   0.365999 0.983282 0.545558 0.009369
C89   C     C_R   0.483283 0.865999 0.954440 0.009369
C90   C     C_R   0.865999 0.516719 0.954442 0.009369
C91   C     C_R   0.516718 0.134001 0.954441 0.009369
C92   C     C_R   0.134001 0.483282 0.954441 0.009369
C93   C     C_R   0.516717 0.865999 0.045560 0.009370
C94   C     C_R   0.134001 0.516718 0.045559 0.009369
C95   C     C_R   0.483282 0.134001 0.045559 0.009369
C96   C     C_R   0.865999 0.483281 0.045558 0.009369
C97   C     C_R   1.000000 0.385741 0.500000 -0.235153
C98   C     C_R   0.500000 0.926765 1.000000 0.882978
C99   C     C_R   0.385741 0.000000 0.500000 -0.235153
C100  C     C_R   1.000000 0.614259 0.500000 -0.235153
C101  C     C_R   0.614258 1.000000 0.500000 -0.235140
C102  C     C_R   0.500000 0.885741 0.000000 -0.235152
C103  C     C_R   0.885741 0.500000 0.000000 -0.235154
C104  C     C_R   0.500000 0.114259 0.000000 -0.235154
C105  C     C_R   0.114259 0.500000 0.000000 -0.235153
C106  C     C_R   0.000000 0.307187 0.500000 -0.195720
C107  C     C_R   0.307187 0.000000 0.500000 -0.195720
C108  C     C_R   1.000000 0.692812 0.500000 -0.195719
C109  C     C_R   0.926765 0.500000 0.000000 0.882979
C110  C     C_R   0.692812 1.000000 0.500000 -0.195726
C111  C     C_R   0.500000 0.807188 1.000000 -0.195720
C112  C     C_R   0.807187 0.500000 0.000000 -0.195720
C113  C     C_R   0.500000 0.192812 0.000000 -0.195719
C114  C     C_R   0.192812 0.500000 1.000000 -0.195720
C115  C     C_R   0.926559 0.000000 0.500000 0.929867
C116  C     C_R   0.000000 0.073441 0.500000 0.929866
C117  C     C_R   0.073441 0.000000 0.500000 0.929867
C118  C     C_R   1.000000 0.926559 0.500000 0.929867
C119  C     C_R   0.426559 0.500000 0.000000 0.929867
C120  C     C_R   0.500000 0.073235 0.000000 0.882979
C121  C     C_R   0.500000 0.573441 0.000000 0.929866
C122  C     C_R   0.573441 0.500000 0.000000 0.929867
C123  C     C_R   0.500000 0.426559 0.000000 0.929867
C124  C     C_R   1.000000 0.500000 0.609443 0.877851
C125  C     C_R   0.500000 0.000000 0.609443 0.877844
C126  C     C_R   0.000000 0.500000 0.390557 0.877851
C127  C     C_R   0.500000 0.000000 0.390557 0.877844
C128  C     C_R   0.500000 0.000000 0.109443 0.877850
C129  C     C_R   1.000000 0.500000 0.109443 0.877852
C130  C     C_R   0.500000 0.000000 0.890557 0.877851
C131  C     C_R   0.073235 0.500000 0.000000 0.882980
C132  C     C_R   1.000000 0.500000 0.890557 0.877852
C133  C     C_1   1.000000 0.500000 0.669619 -0.160107
C134  C     C_1   0.500000 1.000000 0.669619 -0.160107
C135  C     C_1   0.000000 0.500000 0.330381 -0.160107
C136  C     C_1   0.500000 0.000000 0.330381 -0.160107
C137  C     C_1   0.500000 0.000000 0.169619 -0.160106
C138  C     C_1   0.000000 0.500000 0.169619 -0.160107
C139  C     C_1   0.500000 1.000000 0.830381 -0.160106
C140  C     C_1   1.000000 0.500000 0.830381 -0.160107
C141  C     C_1   1.000000 0.500000 0.720379 0.045407
C142  C     C_1   0.000000 0.267037 0.500000 0.204235
C143  C     C_1   0.500000 1.000000 0.720379 0.045408
C144  C     C_1   0.000000 0.500000 0.279621 0.045407
C145  C     C_1   0.500000 0.000000 0.279621 0.045408
C146  C     C_1   0.500000 0.000000 0.220379 0.045408
C147  C     C_1   0.000000 0.500000 0.220379 0.045407
C148  C     C_1   0.500000 1.000000 0.779621 0.045408
C149  C     C_1   1.000000 0.500000 0.779621 0.045407
C150  C     C_R   0.999641 0.173659 0.448235 0.391715
C151  C     C_R   0.173659 0.000359 0.448236 0.391715
C152  C     C_R   0.000353 0.826341 0.448236 0.391715
Cl1   Cl    Cl    0.999175 0.197340 0.382433 -0.473809
Cl2   Cl    Cl    0.697340 0.500825 0.882433 -0.473811
Cl3   Cl    Cl    0.500823 0.302660 0.882433 -0.473810
Cl4   Cl    Cl    0.302660 0.499176 0.882433 -0.473810
Cl5   Cl    Cl    0.500823 0.697340 0.117567 -0.473809
Cl6   Cl    Cl    0.302660 0.500824 0.117567 -0.473810
Cl7   Cl    Cl    0.499177 0.302660 0.117567 -0.473810
Cl8   Cl    Cl    0.697340 0.499175 0.117567 -0.473811
Cl9   Cl    Cl    0.962730 0.302033 0.397266 -0.453505
Cl10  Cl    Cl    0.302033 0.037271 0.397267 -0.453506
Cl11  Cl    Cl    0.037268 0.697967 0.397265 -0.453510
Cl12  Cl    Cl    0.197340 0.000824 0.382433 -0.473810
Cl13  Cl    Cl    0.697966 0.962761 0.397241 -0.453495
Cl14  Cl    Cl    0.037270 0.302033 0.602734 -0.453505
Cl15  Cl    Cl    0.697966 0.037239 0.602759 -0.453496
Cl16  Cl    Cl    0.962732 0.697967 0.602735 -0.453510
Cl17  Cl    Cl    0.302033 0.962729 0.602733 -0.453506
Cl18  Cl    Cl    0.462732 0.802033 0.897264 -0.453505
Cl19  Cl    Cl    0.802033 0.537272 0.897268 -0.453506
Cl20  Cl    Cl    0.537271 0.197967 0.897267 -0.453507
Cl21  Cl    Cl    0.197967 0.462729 0.897267 -0.453506
Cl22  Cl    Cl    0.537268 0.802033 0.102735 -0.453506
Cl23  Cl    Cl    0.000812 0.802660 0.382433 -0.473815
Cl24  Cl    Cl    0.197967 0.537271 0.102733 -0.453506
Cl25  Cl    Cl    0.462729 0.197967 0.102733 -0.453506
Cl26  Cl    Cl    0.802033 0.462728 0.102732 -0.453507
Cl27  Cl    Cl    0.802660 0.999186 0.382433 -0.473800
Cl28  Cl    Cl    0.000826 0.197340 0.617567 -0.473810
Cl29  Cl    Cl    0.802660 0.000814 0.617567 -0.473800
Cl30  Cl    Cl    0.999188 0.802660 0.617567 -0.473814
Cl31  Cl    Cl    0.197340 0.999176 0.617567 -0.473810
Cl32  Cl    Cl    0.499177 0.697340 0.882433 -0.473809
H1    H     H_    0.999370 0.119591 0.408263 0.208789
H2    H     H_    0.619591 0.500630 0.908263 0.208789
H3    H     H_    0.500629 0.380409 0.908263 0.208789
H4    H     H_    0.380409 0.499371 0.908263 0.208789
H5    H     H_    0.500628 0.619591 0.091737 0.208789
H6    H     H_    0.380409 0.500629 0.091737 0.208789
H7    H     H_    0.499371 0.380409 0.091737 0.208789
H8    H     H_    0.619591 0.499370 0.091737 0.208789
H9    H     H_    0.944152 0.401446 0.421561 0.225576
H10   H     H_    0.987027 0.403540 0.389694 0.187058
H11   H     H_    0.401446 0.055849 0.421562 0.225577
H12   H     H_    0.119591 0.000629 0.408263 0.208789
H13   H     H_    0.403540 0.012975 0.389695 0.187058
H14   H     H_    0.055846 0.598554 0.421559 0.225575
H15   H     H_    0.012971 0.596460 0.389694 0.187058
H16   H     H_    0.598551 0.944177 0.421525 0.225558
H17   H     H_    0.596460 0.987060 0.389684 0.187056
H18   H     H_    0.055848 0.401446 0.578439 0.225576
H19   H     H_    0.012973 0.403541 0.610306 0.187058
H20   H     H_    0.598551 0.055822 0.578475 0.225558
H21   H     H_    0.596460 0.012940 0.610315 0.187056
H22   H     H_    0.944154 0.598554 0.578441 0.225575
H23   H     H_    0.000620 0.880409 0.408263 0.208790
H24   H     H_    0.987028 0.596459 0.610306 0.187058
H25   H     H_    0.401446 0.944151 0.578438 0.225577
H26   H     H_    0.403540 0.987025 0.610305 0.187058
H27   H     H_    0.444154 0.901446 0.921558 0.225575
H28   H     H_    0.487029 0.903540 0.889693 0.187058
H29   H     H_    0.901446 0.555849 0.921563 0.225577
H30   H     H_    0.903540 0.512976 0.889695 0.187058
H31   H     H_    0.555848 0.098554 0.921562 0.225577
H32   H     H_    0.512974 0.096459 0.889695 0.187057
H33   H     H_    0.098554 0.444151 0.921562 0.225577
H34   H     H_    0.880409 0.999378 0.408263 0.208789
H35   H     H_    0.096459 0.487025 0.889695 0.187058
H36   H     H_    0.555846 0.901446 0.078442 0.225575
H37   H     H_    0.512971 0.903540 0.110306 0.187058
H38   H     H_    0.098554 0.555848 0.078438 0.225577
H39   H     H_    0.096459 0.512974 0.110305 0.187058
H40   H     H_    0.444152 0.098554 0.078438 0.225576
H41   H     H_    0.487026 0.096459 0.110305 0.187058
H42   H     H_    0.901446 0.444151 0.078437 0.225577
H43   H     H_    0.903540 0.487024 0.110305 0.187058
H44   H     H_    0.000630 0.119591 0.591737 0.208789
H45   H     H_    0.880409 0.000622 0.591737 0.208789
H46   H     H_    0.999380 0.880409 0.591737 0.208789
H47   H     H_    0.119591 0.999371 0.591737 0.208789
H48   H     H_    0.499372 0.619591 0.908263 0.208789
N1    N     N_3   0.966868 0.385432 0.407048 -0.361171
N2    N     N_3   0.885431 0.533134 0.907050 -0.361170
N3    N     N_3   0.533133 0.114568 0.907049 -0.361169
N4    N     N_3   0.114568 0.466867 0.907049 -0.361170
N5    N     N_3   0.533130 0.885432 0.092953 -0.361171
N6    N     N_3   0.114568 0.533133 0.092951 -0.361170
N7    N     N_3   0.466867 0.114568 0.092951 -0.361169
N8    N     N_3   0.885432 0.466866 0.092950 -0.361170
N9    N     N_3   0.385431 0.033133 0.407049 -0.361170
N10   N     N_3   0.033130 0.614568 0.407047 -0.361171
N11   N     N_3   0.614567 0.966895 0.407027 -0.361176
N12   N     N_3   0.033132 0.385432 0.592951 -0.361170
N13   N     N_3   0.614567 0.033105 0.592973 -0.361177
N14   N     N_3   0.966869 0.614568 0.592953 -0.361171
N15   N     N_3   0.385432 0.966867 0.592951 -0.361171
N16   N     N_3   0.466870 0.885432 0.907047 -0.361170
O1    O     O_R   0.031300 0.444560 0.499980 -0.613139
O2    O     O_R   0.944560 0.468700 0.999980 -0.613139
O3    O     O_R   0.468700 0.055440 0.999980 -0.613139
O4    O     O_R   0.055440 0.531300 0.999980 -0.613139
O5    O     O_R   0.468700 0.944560 0.000020 -0.613138
O6    O     O_R   0.055440 0.468700 0.000020 -0.613139
O7    O     O_R   0.531300 0.055440 0.000020 -0.613139
O8    O     O_R   0.944560 0.531300 0.000020 -0.613139
O9    O     O_R   0.031300 0.500000 0.582760 -0.605260
O10   O     O_R   0.500000 0.968700 0.582760 -0.605262
O11   O     O_R   0.968700 0.500000 0.582760 -0.605260
O12   O     O_R   0.444560 0.968700 0.499980 -0.613139
O13   O     O_R   0.500000 0.031300 0.582760 -0.605258
O14   O     O_R   0.968700 0.500000 0.417240 -0.605260
O15   O     O_R   0.500000 0.968700 0.417240 -0.605257
O16   O     O_R   0.031300 0.500000 0.417240 -0.605260
O17   O     O_R   0.500000 0.031300 0.417240 -0.605262
O18   O     O_R   0.531300 0.000000 0.082760 -0.605259
O19   O     O_R   1.000000 0.468700 0.082760 -0.605259
O20   O     O_R   0.468700 0.000000 0.082760 -0.605260
O21   O     O_R   1.000000 0.531300 0.082760 -0.605260
O22   O     O_R   0.468700 0.000000 0.917240 -0.605260
O23   O     O_R   0.968700 0.555440 0.499980 -0.613138
O24   O     O_R   1.000000 0.468700 0.917240 -0.605259
O25   O     O_R   0.531300 0.000000 0.917240 -0.605259
O26   O     O_R   1.000000 0.531300 0.917240 -0.605260
O27   O     O_R   0.944690 0.999980 0.546690 -0.615505
O28   O     O_R   0.999980 0.055310 0.546690 -0.615505
O29   O     O_R   0.055310 0.000020 0.546690 -0.615506
O30   O     O_R   0.000020 0.944690 0.546690 -0.615506
O31   O     O_R   0.055310 0.999980 0.453310 -0.615505
O32   O     O_R   0.000020 0.055310 0.453310 -0.615506
O33   O     O_R   0.944690 0.000020 0.453310 -0.615505
O34   O     O_R   0.555440 0.031300 0.499980 -0.613128
O35   O     O_R   0.999980 0.944690 0.453310 -0.615505
O36   O     O_R   0.444690 0.499980 0.046690 -0.615506
O37   O     O_R   0.499980 0.555310 0.046690 -0.615506
O38   O     O_R   0.555310 0.500020 0.046690 -0.615506
O39   O     O_R   0.500020 0.444690 0.046690 -0.615505
O40   O     O_R   0.555310 0.499980 0.953310 -0.615505
O41   O     O_R   0.500020 0.555310 0.953310 -0.615505
O42   O     O_R   0.444690 0.500020 0.953310 -0.615505
O43   O     O_R   0.499980 0.444690 0.953310 -0.615505
O44   O     O_R   0.968700 0.444560 0.500020 -0.613139
O45   O     O_R   0.555440 0.968700 0.500020 -0.613127
O46   O     O_R   0.031300 0.555440 0.500020 -0.613139
O47   O     O_R   0.444560 0.031300 0.500020 -0.613140
O48   O     O_R   0.531300 0.944560 0.999980 -0.613138
Zn1   Zn    Zn3+2 0.041800 0.500000 0.500000 1.024528
Zn2   Zn    Zn3+2 0.000000 0.000000 0.437610 1.038718
Zn3   Zn    Zn3+2 0.500000 0.500000 0.062390 1.038718
Zn4   Zn    Zn3+2 0.500000 0.500000 0.937610 1.038718
Zn5   Zn    Zn3+2 0.500000 0.958200 0.500000 1.024534
Zn6   Zn    Zn3+2 0.958200 0.500000 0.500000 1.024527
Zn7   Zn    Zn3+2 0.500000 0.041800 0.500000 1.024533
Zn8   Zn    Zn3+2 0.541800 0.000000 0.000000 1.024531
Zn9   Zn    Zn3+2 0.000000 0.458200 0.000000 1.024527
Zn10  Zn    Zn3+2 0.458200 0.000000 0.000000 1.024528
Zn11  Zn    Zn3+2 1.000000 0.541800 0.000000 1.024527
Zn12  Zn    Zn3+2 1.000000 0.000000 0.562390 1.038718

loop_
_geom_bond_atom_site_label_1
_geom_bond_atom_site_label_2
_ccdc_geom_bond_type
C72   C112  A    
C131  O4    A    
C31   C42   A    
C46   C112  S    
C29   C42   A    
O32   Zn2   S    
C145  C146  S    
C15   C32   A    
C105  C131  S    
H14   N10   S    
O13   Zn7   S    
C87   O45   A    
O31   Zn2   S    
C124  C133  S    
C14   Cl6   S    
C50   C59   S    
O15   Zn5   S    
H21   N13   S    
C70   C107  A    
C144  C147  S    
C130  O22   A    
C42   C119  S    
C57   C59   T    
C74   C114  A    
C8    C26   A    
C82   N10   S    
O6    Zn9   S    
C30   H5    S    
C74   C92   A    
C116  O28   A    
C19   C37   A    
C134  C143  T    
C44   C53   S    
C12   Cl5   S    
C127  O17   A    
C106  C142  S    
C18   H12   S    
C137  C146  T    
C24   C110  S    
C16   C49   A    
C65   C99   S    
C28   H3    S    
C118  O30   A    
C81   C99   A    
C23   C37   A    
C92   N4    S    
C32   H7    S    
H37   N5    S    
C65   O47   A    
H18   N12   S    
O40   Zn4   S    
C71   Cl18  S    
O42   Zn4   S    
C84   N12   S    
C68   C110  A    
C66   C110  A    
C130  O25   A    
C36   C117  S    
C124  O9    A    
O17   Zn7   S    
O18   Zn8   S    
C129  C138  S    
C78   C113  A    
C17   C34   A    
C75   C93   A    
C13   C54   T    
O14   Zn6   S    
C133  C141  T    
C2    C53   T    
C7    C25   A    
O33   Zn2   S    
C132  O24   A    
C62   C106  A    
C4    C43   A    
C76   C100  S    
C40   C122  S    
O36   Zn3   S    
C29   H4    S    
C7    Cl31  S    
C69   Cl16  S    
C79   C96   A    
O28   Zn12  S    
H43   N8    S    
H24   N14   S    
C88   C99   A    
C25   C36   A    
H32   N3    S    
O29   Zn12  S    
H15   N10   S    
C22   C38   A    
O2    Zn9   S    
C80   C97   A    
C16   Cl8   S    
C78   Cl25  S    
C14   C31   A    
H28   N16   S    
O8    Zn11  S    
C31   H6    S    
C6    Cl30  S    
C62   C80   A    
C70   Cl17  S    
C1    O1    A    
C43   C52   S    
C62   Cl9   S    
C76   O23   A    
C91   N3    S    
C77   C94   A    
C87   C101  S    
C124  O11   A    
C93   N5    S    
C32   C41   A    
H20   N13   S    
C46   C58   T    
C75   Cl22  S    
C85   N13   S    
C68   C85   A    
C13   C108  S    
O27   Zn12  S    
C64   C108  A    
C143  C148  S    
C139  C148  T    
C33   C40   A    
C116  O32   A    
C9    C49   A    
C57   C113  S    
H19   N12   S    
C125  O10   A    
C72   C90   A    
C27   C40   A    
C73   Cl20  S    
O43   Zn4   S    
C43   C150  A    
C77   Cl24  S    
O38   Zn3   S    
O45   Zn5   S    
C86   C100  A    
O47   Zn7   S    
O48   Zn8   S    
O4    Zn11  S    
C83   C101  A    
C66   Cl13  S    
C35   C56   T    
C10   Cl3   S    
C9    Cl2   S    
C109  O8    A    
C87   O34   A    
C118  O35   A    
C38   C115  S    
O22   Zn10  S    
C3    C47   A    
C30   C39   A    
C151  Cl12  S    
C125  O13   A    
C61   C114  S    
C128  O18   A    
C51   C60   S    
C140  C149  T    
C98   O5    A    
C125  C134  S    
C94   C105  A    
C6    C45   A    
C17   C150  A    
O25   Zn8   S    
C12   C48   A    
C85   C101  A    
C115  O33   A    
H13   N9    S    
O39   Zn3   S    
C79   C112  A    
C84   C97   A    
H22   N14   S    
C26   C39   A    
H9    N1    S    
C83   N11   S    
C28   C41   A    
C73   C113  A    
C81   N9    S    
C66   C83   A    
C152  Cl23  S    
C17   H1    S    
C150  Cl1   S    
C123  O43   A    
H11   N9    S    
C96   N8    S    
H30   N2    S    
C4    Cl28  S    
C64   Cl11  S    
C130  C139  S    
C5    Cl29  S    
O26   Zn11  S    
O12   Zn5   S    
C109  O2    A    
H42   N8    S    
C72   Cl19  S    
O24   Zn9   S    
O46   Zn1   S    
C21   C34   A    
C60   C61   T    
C8    C48   A    
C76   O46   A    
O19   Zn9   S    
C14   C51   A    
C78   C95   A    
C128  O20   A    
C126  O16   A    
C3    C20   A    
C121  O37   A    
C127  C136  S    
C123  O39   A    
O34   Zn7   S    
O9    Zn1   S    
C126  C135  S    
C129  O21   A    
H36   N5    S    
H10   N1    S    
H29   N2    S    
C10   C50   A    
C9    C27   A    
O30   Zn12  S    
C10   C28   A    
C21   H44   S    
C25   H47   S    
C12   C30   A    
C20   H34   S    
C80   N1    S    
C98   O48   A    
C93   C102  A    
O20   Zn10  S    
C67   C106  A    
C119  O36   A    
C132  C140  S    
O11   Zn6   S    
C75   C111  A    
C39   C121  S    
C103  C109  S    
C45   C152  A    
C98   C102  S    
C22   H45   S    
C127  O15   A    
C77   C114  A    
C90   C103  A    
C120  O7    A    
C92   C105  A    
C96   C103  A    
O5    Zn10  S    
O23   Zn6   S    
C18   C36   A    
C104  C120  S    
C63   Cl10  S    
O1    Zn1   S    
C89   C102  A    
C120  O3    A    
C91   C104  A    
C70   C88   A    
C131  O6    A    
C141  C149  S    
C24   C55   T    
C15   Cl7   S    
C5    C47   A    
C90   N2    S    
C63   C81   A    
C33   H8    S    
C119  O42   A    
C34   C116  S    
C2    C107  S    
C126  O14   A    
C15   C50   A    
O7    Zn8   S    
C3    Cl27  S    
C122  O40   A    
C94   N6    S    
C37   C118  S    
C71   C111  A    
C117  O29   A    
O44   Zn6   S    
H25   N15   S    
C136  C145  T    
C129  O19   A    
C8    Cl32  S    
C67   C84   A    
C86   N14   S    
O21   Zn11  S    
O37   Zn3   S    
C19   H23   S    
H26   N15   S    
H33   N4    S    
C69   C108  A    
O10   Zn5   S    
C44   C151  A    
C5    C22   A    
C65   O12   A    
H31   N3    S    
O16   Zn1   S    
C73   C91   A    
C74   Cl21  S    
C1    C97   S    
C95   N7    S    
C26   H48   S    
H38   N6    S    
C52   C142  T    
C49   C58   S    
C1    O44   A    
C27   H2    S    
H27   N16   S    
C128  C137  S    
C16   C33   A    
C20   C38   A    
C71   C89   A    
C138  C147  T    
C132  O26   A    
C19   C152  A    
C79   Cl26  S    
C7    C44   A    
H16   N11   S    
C64   C82   A    
C11   Cl4   S    
C67   Cl14  S    
C135  C144  T    
C45   C54   S    
C63   C107  A    
C35   C111  S    
C95   C104  A    
C47   C55   S    
C48   C56   S    
O41   Zn4   S    
C82   C100  A    
H35   N4    S    
H39   N6    S    
H17   N11   S    
C89   N16   S    
C121  O41   A    
C41   C123  S    
C122  O38   A    
C117  O31   A    
C88   N15   S    
C4    C21   A    
O35   Zn2   S    
O3    Zn10  S    
H41   N7    S    
C6    C23   A    
H40   N7    S    
C23   H46   S    
C11   C51   A    
C68   Cl15  S    
C115  O27   A    
C11   C29   A    
C69   C86   A    
C18   C151  A    
