data_mof_unit_41644.cif
_audit_creation_date              2012-12-10T18:16:30-0500
_audit_creation_method            fapswitch 2.2
_symmetry_space_group_name_H-M    P1
_symmetry_Int_Tables_number       1
_space_group_crystal_system       triclinic
_cell_length_a                    12.753981
_cell_length_b                    12.979593
_cell_length_c                    26.60388
_cell_angle_alpha                 92.787809
_cell_angle_beta                  99.843031
_cell_angle_gamma                 83.994957
_cell_volume                      4313.28073958

loop_
_atom_site_label
_atom_site_type_symbol
_atom_type_description
_atom_site_fract_x
_atom_site_fract_y
_atom_site_fract_z
_atom_type_partial_charge
C1    C     C_R   0.440908 0.691424 0.494956 0.880182
C2    C     C_R   0.505233 0.761341 0.033780 0.015973
C3    C     C_R   0.324688 0.701971 0.014287 -0.062803
C4    C     C_R   0.498552 0.503614 0.594131 0.841488
C5    C     C_R   0.416782 0.723094 0.050060 -0.003099
C6    C     C_R   0.585042 0.802222 0.071285 0.140561
C7    C     C_R   0.593974 0.773145 0.121910 -0.151311
C8    C     C_R   0.515721 0.719395 0.137089 -0.046333
C9    C     C_R   0.423450 0.700848 0.102016 -0.064117
C10   C     C_R   0.340269 0.655910 0.118574 -0.089589
C11   C     C_R   0.352258 0.627377 0.169576 0.537492
C12   C     C_R   0.409830 0.663784 0.701046 -0.166845
C13   C     C_R   0.526612 0.685509 0.187042 0.515336
C14   C     C_R   0.484664 0.673829 0.294615 -0.225951
C15   C     C_R   0.505396 0.639763 0.344914 0.428432
C16   C     C_R   0.556252 0.313082 0.514878 0.879398
C17   C     C_R   0.462307 0.467358 0.312665 -0.331854
C18   C     C_R   0.449190 0.500612 0.262764 -0.093856
C19   C     C_R   0.459406 0.604338 0.253561 0.253427
C20   C     C_R   0.513620 0.748373 0.981419 0.052390
C21   C     C_R   0.421677 0.729301 0.945471 0.080929
C22   C     C_R   0.324020 0.719647 0.961917 -0.016355
C23   C     C_R   0.464552 0.612355 0.744030 0.170931
C24   C     C_R   0.613202 0.741526 0.964692 -0.252630
C25   C     C_R   0.234082 0.713547 0.872645 0.143019
C26   C     C_R   0.241904 0.654946 0.031867 0.442110
C27   C     C_R   0.249120 0.636262 0.083640 -0.235849
C28   C     C_R   0.499240 0.504066 0.405828 0.901338
C29   C     C_R   0.230484 0.724440 0.925206 -0.157601
C30   C     C_R   0.693564 0.074957 0.586886 -0.335219
C31   C     C_R   0.579482 0.212775 0.540223 -0.184392
C32   C     C_R   0.320174 0.839399 0.452984 0.159353
C33   C     C_R   0.298658 0.946650 0.447167 -0.114965
C34   C     C_R   0.428777 0.712971 0.893213 -0.082335
C35   C     C_R   0.362246 0.014736 0.476336 -0.268226
C36   C     C_R   0.446240 0.978941 0.514877 0.077984
C37   C     C_R   0.465550 0.872708 0.524435 0.048869
C38   C     C_R   0.517171 0.046535 0.541426 0.039856
C39   C     C_R   0.613772 0.008053 0.571156 0.095134
C40   C     C_R   0.537964 0.681501 0.826979 0.577985
C41   C     C_R   0.625323 0.905452 0.585934 -0.211680
C42   C     C_R   0.547836 0.840013 0.565138 -0.207441
C43   C     C_R   0.493403 0.152790 0.540088 0.040688
C44   C     C_R   0.681118 0.176252 0.567455 0.430204
C45   C     C_R   0.529517 0.708095 0.877672 -0.028632
C46   C     C_R   0.405652 0.802320 0.491952 -0.164282
C47   C     C_R   0.108056 0.312641 0.448434 0.386977
C48   C     C_R   0.790829 0.651133 0.545913 -0.001867
C49   C     C_R   0.878373 0.699921 0.538586 -0.261486
C50   C     C_R   0.956613 0.644680 0.514908 -0.190769
C51   C     C_R   0.954368 0.537375 0.504510 0.018183
C52   C     C_R   0.351233 0.661595 0.807288 0.470487
C53   C     C_R   0.855033 0.496891 0.502466 0.195911
C54   C     C_R   0.042797 0.472775 0.490500 -0.074710
C55   C     C_R   0.028721 0.370725 0.471626 0.008381
C56   C     C_R   0.620750 0.723602 0.913560 -0.138094
C57   C     C_R   0.933303 0.330442 0.473245 -0.298774
C58   C     C_R   0.842046 0.398287 0.475785 0.166043
C59   C     C_R   0.148438 0.499895 0.499774 0.212548
C60   C     C_R   0.203282 0.354888 0.448075 -0.170129
C61   C     C_R   0.531947 0.520206 0.738397 0.508437
C62   C     C_R   0.548706 0.483622 0.689249 -0.009489
C63   C     C_R   0.420342 0.624359 0.652773 -0.281584
C64   C     C_3   0.517851 0.404154 0.797538 0.066748
C65   C     C_3   0.576790 0.348948 0.844801 -0.794672
C66   C     C_3   0.130429 0.719445 0.833873 -0.326794
C67   C     C_R   0.336312 0.696564 0.857060 -0.086073
C68   C     C_3   0.029660 0.768633 0.853210 -0.924886
C69   C     C_3   0.183614 0.515895 0.984054 0.088459
C70   C     C_3   0.096079 0.481464 0.942292 -0.803620
C71   C     C_3   0.858630 0.206450 0.574176 0.126312
C72   C     C_3   0.938799 0.282765 0.596133 -0.808397
C73   C     C_3   0.389517 0.196148 0.558604 -0.343990
C74   C     C_3   0.411778 0.237031 0.613741 -0.884956
C75   C     C_3   0.256238 0.764513 0.416800 -0.347606
C76   C     C_3   0.179460 0.812391 0.371430 -0.913372
C77   C     C_3   0.054286 0.225167 0.374237 0.082021
C78   C     C_R   0.488091 0.534400 0.646417 -0.111251
C79   C     C_3   0.029563 0.119618 0.350527 -0.833673
C80   C     C_3   0.187965 0.554848 0.550277 -0.362335
C81   C     C_3   0.202407 0.479171 0.593834 -0.803827
C82   C     C_3   0.764064 0.384185 0.426282 -0.328098
C83   C     C_3   0.768147 0.468645 0.388403 -0.817580
C84   C     C_3   0.609286 0.770445 0.379372 0.100893
C85   C     C_3   0.662628 0.810729 0.430994 -0.793889
C86   C     C_3   0.653835 0.884413 0.060036 -0.437057
C87   C     C_3   0.636313 0.984343 0.091735 -0.847290
C88   C     C_3   0.630774 0.392142 0.683525 -0.377386
C89   C     C_R   0.490738 0.536340 0.353564 -0.116749
C90   C     C_3   0.744245 0.424206 0.696616 -0.703111
H1    H     H_    0.377321 0.666065 0.620000 0.150566
H2    H     H_    0.235283 0.979578 0.418592 0.173726
H3    H     H_    0.555875 0.762913 0.579813 0.158722
H4    H     H_    0.266371 0.311528 0.431175 0.159911
H5    H     H_    0.924258 0.251374 0.459259 0.183825
H6    H     H_    0.727671 0.694475 0.562406 0.139194
H7    H     H_    0.699281 0.717428 0.902660 0.188875
H8    H     H_    0.018313 0.686600 0.504495 0.137211
H9    H     H_    0.883433 0.780992 0.549339 0.151356
H10   H     H_    0.487677 0.754452 0.286955 0.145896
H11   H     H_    0.660529 0.795901 0.149793 0.190892
H12   H     H_    0.451367 0.387859 0.319443 0.159308
H13   H     H_    0.687294 0.743389 0.991231 0.154297
H14   H     H_    0.493343 0.344583 0.767430 0.130813
H15   H     H_    0.444956 0.449283 0.807803 0.155123
H16   H     H_    0.600525 0.406695 0.875783 0.259673
H17   H     H_    0.523944 0.297051 0.858107 0.203362
H18   H     H_    0.649519 0.301847 0.835812 0.257517
H19   H     H_    0.004623 0.717234 0.880226 0.271959
H20   H     H_    0.043368 0.845702 0.871774 0.264588
H21   H     H_    0.963141 0.779538 0.820447 0.271597
H22   H     H_    0.140493 0.767367 0.801830 0.237707
H23   H     H_    0.184931 0.600321 0.095675 0.206068
H24   H     H_    0.115194 0.640062 0.818870 0.246320
H25   H     H_    0.190830 0.464448 0.017018 0.147585
H26   H     H_    0.260152 0.506880 0.968600 0.144288
H27   H     H_    0.088879 0.530141 0.908441 0.256363
H28   H     H_    0.115905 0.399284 0.930830 0.206560
H29   H     H_    0.018414 0.488880 0.956349 0.261713
H30   H     H_    0.857574 0.195415 0.532448 0.135440
H31   H     H_    0.887572 0.131747 0.592751 0.123181
H32   H     H_    0.950062 0.284215 0.638473 0.238443
H33   H     H_    0.017047 0.259061 0.583897 0.210885
H34   H     H_    0.430154 0.446044 0.231247 0.158115
H35   H     H_    0.909711 0.361992 0.583008 0.263178
H36   H     H_    0.451136 0.309186 0.615758 0.253128
H37   H     H_    0.335552 0.253981 0.628748 0.242547
H38   H     H_    0.463847 0.178650 0.638236 0.265416
H39   H     H_    0.341209 0.255805 0.534033 0.236536
H40   H     H_    0.335614 0.134187 0.558513 0.205813
H41   H     H_    0.142828 0.749673 0.346795 0.269408
H42   H     H_    0.113921 0.863949 0.384771 0.256817
H43   H     H_    0.223127 0.856063 0.348122 0.266860
H44   H     H_    0.313014 0.706848 0.400517 0.243895
H45   H     H_    0.154388 0.738394 0.937783 0.220218
H46   H     H_    0.208224 0.723001 0.438919 0.214845
H47   H     H_    0.114928 0.254868 0.354562 0.145340
H48   H     H_    0.979032 0.278357 0.367740 0.145791
H49   H     H_    0.971309 0.086667 0.370307 0.252534
H50   H     H_    0.994758 0.127572 0.309532 0.215042
H51   H     H_    0.103948 0.066048 0.353662 0.247961
H52   H     H_    0.123250 0.458010 0.599678 0.245270
H53   H     H_    0.251445 0.407204 0.584991 0.274255
H54   H     H_    0.241313 0.515465 0.629861 0.263217
H55   H     H_    0.260585 0.591257 0.548436 0.243540
H56   H     H_    0.693790 0.875838 0.613108 0.143703
H57   H     H_    0.136175 0.621342 0.561734 0.178235
H58   H     H_    0.752141 0.547567 0.405081 0.276152
H59   H     H_    0.848788 0.462774 0.377364 0.236034
H60   H     H_    0.708659 0.457863 0.353382 0.243877
H61   H     H_    0.784730 0.310485 0.405226 0.157818
H62   H     H_    0.684852 0.368318 0.432285 0.221184
H63   H     H_    0.572839 0.838436 0.356491 0.147258
H64   H     H_    0.672630 0.726612 0.360422 0.151151
H65   H     H_    0.697660 0.744567 0.455205 0.274591
H66   H     H_    0.727290 0.858390 0.425993 0.194561
H67   H     H_    0.764445 0.047426 0.613001 0.146617
H68   H     H_    0.603222 0.859272 0.450103 0.261114
H69   H     H_    0.550041 0.012974 0.085985 0.264835
H70   H     H_    0.665417 0.971872 0.132946 0.255632
H71   H     H_    0.681345 0.044761 0.079515 0.250631
H72   H     H_    0.739573 0.854054 0.068084 0.210365
H73   H     H_    0.633792 0.907199 0.019643 0.224989
H74   H     H_    0.755404 0.485262 0.670685 0.255839
H75   H     H_    0.760865 0.453898 0.736737 0.277943
H76   H     H_    0.802417 0.356078 0.691847 0.241725
H77   H     H_    0.621358 0.328936 0.708567 0.212021
H78   H     H_    0.358723 0.734695 0.705154 0.173203
H79   H     H_    0.620341 0.358617 0.644098 0.217366
H80   H     H_    0.346817 0.095854 0.467157 0.167151
N1    N     N_R   0.450808 0.653845 0.793768 -0.334223
N2    N     N_R   0.445735 0.639582 0.202289 -0.338588
N3    N     N_R   0.222180 0.444690 0.474320 -0.135326
N4    N     N_R   0.776980 0.554780 0.525420 -0.127138
O1    O     O_R   0.366730 0.627160 0.487740 -0.655616
O2    O     O_R   0.410930 0.482330 0.420550 -0.605404
O3    O     O_R   0.589030 0.517690 0.436960 -0.583635
O4    O     O_2   0.633101 0.680851 0.811109 -0.550721
O5    O     O_3   0.586356 0.469371 0.781065 -0.592585
O6    O     O_3   0.156213 0.619881 0.998865 -0.629854
O7    O     O_3   0.756169 0.246188 0.583636 -0.597719
O8    O     O_3   0.093620 0.214943 0.426875 -0.625656
O9    O     O_3   0.529243 0.707511 0.386527 -0.621847
O10   O     O_2   0.618297 0.696521 0.219829 -0.589403
O11   O     O_2   0.268870 0.630197 0.773290 -0.607202
O12   O     O_2   0.271427 0.587315 0.186275 -0.570265
O13   O     O_R   0.544830 0.662520 0.504140 -0.592943
O14   O     O_R   0.410970 0.482310 0.563040 -0.617407
O15   O     O_R   0.589070 0.517670 0.579450 -0.598223
O16   O     O_R   0.455170 0.337480 0.495860 -0.628291
O17   O     O_R   0.633270 0.372840 0.512260 -0.589135
Zn1   Zn    Zn3+2 0.381080 0.476390 0.489050 0.902758
Zn2   Zn    Zn3+2 0.618920 0.523610 0.510950 0.956141

loop_
_geom_bond_atom_site_label_1
_geom_bond_atom_site_label_2
_ccdc_geom_bond_type
C10   C27   A    
C43   C73   S    
C30   H67   S    
C66   C68   S    
C90   H75   S    
C69   H26   S    
C8    C13   A    
C22   C29   A    
C11   O12   S    
C41   C42   A    
C71   O7    S    
C79   H49   S    
C35   C36   A    
C25   C67   A    
C75   C76   S    
C32   C75   S    
C75   H44   S    
C7    C8    A    
C39   C41   A    
C74   H36   S    
C16   C31   S    
C4    C78   S    
C12   C23   A    
C26   C27   A    
O3    Zn2   S    
C71   H30   S    
C36   C37   A    
C77   H47   S    
C58   C82   S    
C69   O6    S    
C85   H65   S    
C38   C39   A    
C76   H41   S    
C1    C46   S    
O2    Zn1   S    
C49   H9    S    
C61   C62   A    
C70   H27   S    
C42   H3    S    
C87   H70   S    
C18   C19   A    
C73   C74   S    
C37   C42   A    
C3    C26   A    
C47   C60   A    
C54   C55   A    
C84   H64   S    
C84   C85   S    
C80   H57   S    
C74   H38   S    
C41   H56   S    
C20   C24   A    
C45   C56   A    
C8    C9    A    
C15   O9    S    
C28   C89   S    
C86   H72   S    
C77   O8    S    
C48   H6    S    
C28   O3    A    
C65   H18   S    
C82   H61   S    
C83   H60   S    
C65   H17   S    
C13   N2    A    
C1    O13   A    
C79   H50   S    
C11   N2    A    
C21   C22   A    
C90   H76   S    
C60   N3    A    
C30   C44   A    
C2    C6    A    
C56   H7    S    
C47   O8    S    
C14   C19   A    
C52   N1    A    
C81   H54   S    
C71   H31   S    
C53   N4    A    
C50   C51   A    
C48   N4    A    
C54   C59   A    
C77   C79   S    
C25   C29   A    
C40   C45   A    
C73   H39   S    
C50   H8    S    
C31   C44   A    
C2    C20   A    
C64   H15   S    
C17   C89   A    
C77   H48   S    
C33   H2    S    
O1    Zn1   S    
C64   O5    S    
C75   H46   S    
C28   O2    A    
C21   C34   A    
C3    C5    A    
C62   C88   S    
C82   C83   S    
C90   H74   S    
C51   C53   A    
C68   H21   S    
C34   C67   A    
C17   H12   S    
O17   Zn2   S    
C5    C9    A    
C16   O17   A    
C15   C89   A    
C84   H63   S    
C74   H37   S    
C81   H53   S    
C70   H29   S    
C53   C58   A    
C13   O10   S    
C17   C18   A    
C34   C45   A    
C68   H20   S    
C19   N2    S    
C52   C67   A    
C16   O16   A    
C40   O4    S    
C27   H23   S    
C48   C49   A    
C29   H45   S    
C88   C90   S    
C61   O5    S    
C55   C57   A    
C72   H33   S    
C57   H5    S    
C2    C5    A    
C85   H68   S    
C65   H16   S    
O13   Zn2   S    
C47   C55   A    
C9    C10   A    
C64   H14   S    
C73   H40   S    
C1    O1    A    
O16   Zn1   S    
C88   H79   S    
C66   H24   S    
C72   H32   S    
C86   C87   S    
C88   H77   S    
C32   C46   A    
C4    O15   A    
C62   C78   A    
C84   O9    S    
C25   C66   S    
C80   C81   S    
C59   N3    A    
C59   C80   S    
C12   H78   S    
C76   H43   S    
C14   H10   S    
C6    C7    A    
C26   O6    S    
C24   C56   A    
C69   H25   S    
N3    Zn1   S    
C6    C86   S    
C72   H35   S    
O14   Zn1   S    
C51   C54   A    
C71   C72   S    
C64   C65   S    
C24   H13   S    
C36   C38   A    
C38   C43   A    
C87   H71   S    
C81   H52   S    
C32   C33   A    
C76   H42   S    
C4    O14   A    
C57   C58   A    
C79   H51   S    
C70   H28   S    
C33   C35   A    
C87   H69   S    
C30   C39   A    
C68   H19   S    
C52   O11   S    
C69   C70   S    
C31   C43   A    
C80   H55   S    
C10   C11   A    
C83   H58   S    
O15   Zn2   S    
C23   C61   A    
C23   N1    S    
C20   C21   A    
N4    Zn2   S    
C49   C50   A    
C7    H11   S    
C63   H1    S    
C35   H80   S    
C14   C15   A    
C3    C22   A    
C86   H73   S    
C66   H22   S    
C37   C46   A    
C12   C63   A    
C44   O7    S    
C85   H66   S    
C40   N1    A    
C82   H62   S    
C18   H34   S    
C83   H59   S    
C63   C78   A    
C60   H4    S    
