data_mof_unit_45523.cif
_audit_creation_date              2012-12-11T17:43:13-0500
_audit_creation_method            fapswitch 2.2
_symmetry_space_group_name_H-M    P1
_symmetry_Int_Tables_number       1
_space_group_crystal_system       triclinic
_cell_length_a                    15.052985
_cell_length_b                    15.153149
_cell_length_c                    16.967896
_cell_angle_alpha                 108.529774
_cell_angle_beta                  106.350777
_cell_angle_gamma                 108.744816
_cell_volume                      3141.89100267

loop_
_atom_site_label
_atom_site_type_symbol
_atom_type_description
_atom_site_fract_x
_atom_site_fract_y
_atom_site_fract_z
_atom_type_partial_charge
C1    C     C_R   0.091025 0.278148 0.044880 -0.113851
C2    C     C_R   0.068550 0.055194 0.943097 -0.223206
C3    C     C_R   0.992379 0.887579 0.939390 0.087205
C4    C     C_R   0.002582 0.082248 0.978609 0.072773
C5    C     C_R   0.064412 0.957138 0.923261 0.099446
C6    C     C_R   0.930360 0.011492 0.993781 0.083594
C7    C     C_R   0.766094 0.011950 0.995468 -0.257155
C8    C     C_R   0.244098 0.988606 0.947316 -0.243035
C9    C     C_R   0.738639 0.045551 0.133685 0.181155
C10   C     C_R   0.283099 0.884690 0.833466 0.200759
C11   C     C_R   0.486379 0.763368 0.310326 -0.143121
C12   C     C_R   0.911988 0.706828 0.917495 -0.137492
C13   C     C_R   0.570274 0.458264 0.730870 -0.179152
C14   C     C_R   0.503722 0.723547 0.232845 -0.112199
C15   C     C_R   0.556054 0.450874 0.806898 -0.129344
C16   C     C_R   0.935947 0.453090 0.735334 -0.082777
C17   C     C_R   0.063980 0.480354 0.253137 -0.116927
C18   C     C_R   0.516716 0.632382 0.210374 0.107836
C19   C     C_R   0.564631 0.537845 0.876681 0.113142
C20   C     C_R   0.512518 0.581759 0.266583 -0.211361
C21   C     C_R   0.586029 0.631243 0.868764 -0.220238
C22   C     C_R   0.495072 0.621601 0.344520 0.366473
C23   C     C_R   0.027818 0.468238 0.725726 0.066936
C24   C     C_R   0.601382 0.638769 0.792934 0.341225
C25   C     C_R   0.481917 0.712677 0.366021 -0.126032
C26   C     C_R   0.593197 0.551584 0.723892 -0.116185
C27   C     C_R   0.623415 0.593104 0.126623 0.212852
C28   C     C_R   0.451871 0.509427 0.954786 0.238390
C29   C     C_R   0.632869 0.563701 0.042952 -0.029854
C30   C     C_R   0.442853 0.540922 0.037941 -0.048573
C31   C     C_R   0.549916 0.533424 0.958674 -0.050759
C32   C     C_R   0.527787 0.586749 0.124164 -0.054624
C33   C     C_R   0.702027 0.018730 0.039996 -0.177826
C34   C     C_R   0.973156 0.421795 0.255287 0.079402
C35   C     C_R   0.315867 0.965340 0.919700 -0.183869
C36   C     C_R   0.964504 0.383507 0.323205 0.111051
C37   C     C_R   0.035936 0.424430 0.639110 0.120027
C38   C     C_R   0.139170 0.437083 0.552840 -0.154349
C39   C     C_R   0.860024 0.320886 0.397047 -0.131474
C40   C     C_R   0.721308 0.217648 0.827475 0.284349
C41   C     C_R   0.230738 0.797351 0.189508 0.308086
C42   C     C_R   0.133071 0.452764 0.636137 -0.124934
C43   C     C_R   0.866892 0.335214 0.321907 -0.150563
C44   C     C_R   0.945245 0.366051 0.556863 -0.222062
C45   C     C_R   0.668458 0.214848 0.745149 0.030401
C46   C     C_R   0.054455 0.405962 0.395909 -0.198708
C47   C     C_R   0.950703 0.357267 0.474843 0.185673
C48   C     C_R   0.048519 0.396685 0.473347 0.186586
C49   C     C_R   0.566973 0.132041 0.674952 0.122714
C50   C     C_R   0.284949 0.890414 0.364257 0.118821
C51   C     C_R   0.366044 0.077376 0.457306 -0.198141
C52   C     C_R   0.448517 0.948304 0.596217 -0.180500
C53   C     C_R   0.298788 0.989855 0.373073 -0.133481
C54   C     C_R   0.537145 0.031310 0.668677 -0.141081
C55   C     C_R   0.323533 0.877953 0.442947 -0.250096
C56   C     C_R   0.240487 0.800012 0.274851 0.019372
C57   C     C_R   0.504974 0.149232 0.608547 -0.270809
C58   C     C_R   0.393464 0.963688 0.525219 0.173580
C59   C     C_R   0.419370 0.064674 0.531797 0.178168
C60   C     C_R   0.842123 0.068743 0.184325 0.182352
C61   C     C_R   0.176465 0.826200 0.773341 0.184628
C62   C     C_R   0.909279 0.068996 0.140424 0.148360
C63   C     C_R   0.103178 0.849491 0.801323 0.150427
C64   C     C_R   0.295834 0.581689 0.993383 -0.152808
C65   C     C_R   0.742512 0.469109 0.051626 -0.128125
C66   C     C_R   0.870273 0.038762 0.045003 0.015033
C67   C     C_R   0.345414 0.534707 0.033263 0.113088
C68   C     C_R   0.137698 0.930843 0.889387 -0.007369
C69   C     C_R   0.727604 0.306740 0.745176 -0.203128
C70   C     C_R   0.212335 0.698704 0.263372 -0.183460
C71   C     C_R   0.286812 0.481833 0.066805 -0.130175
C72   C     C_R   0.764358 0.573692 0.983973 -0.107048
C73   C     C_R   0.109351 0.538040 0.811879 -0.108981
C74   C     C_R   0.891954 0.398094 0.176447 -0.136598
C75   C     C_R   0.917480 0.194414 0.963779 -0.114822
C76   C     C_R   0.083073 0.792324 0.993706 -0.104202
C77   C     C_R   0.004914 0.181424 0.993726 0.063228
C78   C     C_R   0.721021 0.547753 0.038722 0.085523
C79   C     C_R   0.997025 0.795662 0.942076 0.078514
C80   C     C_3   0.489458 0.565862 0.403259 -1.026586
C81   C     C_3   0.627661 0.739946 0.787037 -0.998000
C82   C     C_3   0.714927 0.636504 0.217952 -0.904183
C83   C     C_3   0.358479 0.452041 0.861371 -0.959645
C84   C     C_3   0.670641 0.171742 0.879495 -1.029110
C85   C     C_3   0.291255 0.886124 0.175211 -1.031234
C86   C     C_R   0.924076 0.913685 0.970996 -0.219704
H1    H     H_    0.170361 0.294985 0.082099 0.107070
H2    H     H_    0.539220 0.378261 0.811832 0.130671
H3    H     H_    0.520706 0.510403 0.248672 0.132699
H4    H     H_    0.592363 0.698493 0.922431 0.150033
H5    H     H_    0.130107 0.440043 0.396960 0.118124
H6    H     H_    0.869514 0.338026 0.556730 0.116589
H7    H     H_    0.795754 0.314409 0.265998 0.134154
H8    H     H_    0.204531 0.493633 0.698128 0.125652
H9    H     H_    0.214802 0.465829 0.552362 0.136434
H10   H     H_    0.784409 0.289193 0.397062 0.148258
H11   H     H_    0.857457 0.404743 0.683220 0.095830
H12   H     H_    0.833376 0.680681 0.869528 0.124294
H13   H     H_    0.142160 0.499792 0.296589 0.093587
H14   H     H_    0.622051 0.998645 0.000534 0.187913
H15   H     H_    0.397664 0.010394 0.965825 0.175138
H16   H     H_    0.527987 0.225831 0.611819 0.114000
H17   H     H_    0.311381 0.802436 0.439556 0.120240
H18   H     H_    0.585844 0.013972 0.715289 0.149363
H19   H     H_    0.262275 0.000816 0.314775 0.160996
H20   H     H_    0.382401 0.154415 0.462049 0.140988
H21   H     H_    0.429740 0.870727 0.591067 0.151556
H22   H     H_    0.327319 0.638719 0.970708 0.123092
H23   H     H_    0.733558 0.983098 0.921571 0.155725
H24   H     H_    0.717220 0.428420 0.089242 0.114770
H25   H     H_    0.703273 0.336507 0.697400 0.111761
H26   H     H_    0.209448 0.670118 0.313471 0.123504
H27   H     H_    0.308733 0.446531 0.110328 0.101711
H28   H     H_    0.763508 0.632804 0.962123 0.111595
H29   H     H_    0.191165 0.568174 0.829352 0.107027
H30   H     H_    0.812100 0.341142 0.148562 0.095315
H31   H     H_    0.838865 0.135024 0.922270 0.121353
H32   H     H_    0.161840 0.843670 0.011991 0.124593
H33   H     H_    0.871778 0.860947 0.986778 0.139158
H34   H     H_    0.271459 0.051058 0.014902 0.161773
H35   H     H_    0.122789 0.110295 0.930760 0.140598
H36   H     H_    0.475123 0.606220 0.462059 0.251013
H37   H     H_    0.425347 0.485244 0.361320 0.253038
H38   H     H_    0.563756 0.562301 0.430835 0.266394
H39   H     H_    0.635676 0.733442 0.722581 0.258662
H40   H     H_    0.565737 0.763940 0.789140 0.281234
H41   H     H_    0.702212 0.800829 0.846067 0.248904
H42   H     H_    0.699688 0.582453 0.249300 0.238070
H43   H     H_    0.788758 0.648280 0.211746 0.250549
H44   H     H_    0.727092 0.713869 0.265236 0.265367
H45   H     H_    0.467827 0.744288 0.425551 0.114177
H46   H     H_    0.283702 0.415615 0.864566 0.251902
H47   H     H_    0.355126 0.506508 0.830970 0.245458
H48   H     H_    0.364666 0.386481 0.814249 0.252261
H49   H     H_    0.590482 0.163617 0.859239 0.269397
H50   H     H_    0.667882 0.094401 0.866647 0.244815
H51   H     H_    0.714807 0.223436 0.954569 0.253668
H52   H     H_    0.249696 0.933755 0.168355 0.254213
H53   H     H_    0.368754 0.936397 0.234392 0.267408
H54   H     H_    0.304882 0.855965 0.113267 0.258807
H55   H     H_    0.604735 0.555703 0.664727 0.131689
H56   H     H_    0.475621 0.833217 0.326875 0.146241
H57   H     H_    0.563866 0.391994 0.677010 0.119191
H58   H     H_    0.505667 0.762850 0.189567 0.145792
I1    I     I_    0.630503 0.043344 0.191703 -0.454632
I2    I     I_    0.400445 0.857825 0.799369 -0.479156
I3    I     I_    0.892446 0.089770 0.322639 -0.322956
I4    I     I_    0.127531 0.704554 0.640755 -0.345810
I5    I     I_    0.068108 0.108255 0.215333 -0.417950
I6    I     I_    0.941530 0.766771 0.709613 -0.383258
N1    N     N_R   0.055660 0.348550 0.045620 -0.043714
N2    N     N_R   0.185200 0.638170 0.176300 -0.053388
N3    N     N_R   0.201680 0.494570 0.045620 -0.043255
N4    N     N_R   0.798320 0.505430 0.954380 -0.044240
N5    N     N_R   0.068420 0.560530 0.871650 -0.044443
N6    N     N_R   0.931580 0.439470 0.128350 -0.040293
N7    N     N_R   0.948070 0.295860 0.997670 -0.043132
N8    N     N_R   0.051930 0.704140 0.002330 -0.042770
N9    N     N_R   0.944340 0.651450 0.954380 -0.045183
N10   N     N_R   0.960830 0.507850 0.823700 -0.041070
N11   N     N_R   0.039170 0.492150 0.176300 -0.041072
N12   N     N_R   0.811290 0.303410 0.871650 -0.053801
N13   N     N_R   0.188710 0.696590 0.128350 -0.056566
N14   N     N_R   0.205200 0.552990 0.997670 -0.046597
N15   N     N_R   0.794800 0.447010 0.002330 -0.044867
N16   N     N_R   0.814800 0.361830 0.823700 -0.052412
Ni1   Ni    Ni4+2 0.119340 0.493420 0.109960 0.218016
Ni2   Ni    Ni4+2 0.880660 0.506580 0.890040 0.223782
Ni3   Ni    Ni4+2 0.872590 0.372590 0.000000 0.212612
Ni4   Ni    Ni4+2 0.127410 0.627410 0.000000 0.220128

loop_
_geom_bond_atom_site_label_1
_geom_bond_atom_site_label_2
_ccdc_geom_bond_type
C1    H1    S    
N16   Ni2   S    
C84   H49   S    
C62   I5    S    
C55   H17   S    
C81   H40   S    
C27   C29   A    
C1    C77   A    
C14   C18   A    
N14   Ni4   S    
C75   H31   S    
C76   C79   A    
C64   N14   A    
C19   C31   S    
C41   C56   A    
C80   H36   S    
C15   C19   A    
C57   H16   S    
C76   N8    A    
N1    N7    A    
C54   H18   S    
C19   C21   A    
C61   I4    S    
C24   C26   A    
C38   C42   A    
C11   C14   A    
C16   H11   S    
C57   C59   A    
C16   N10   A    
C11   C25   A    
C49   C54   A    
C71   N3    A    
C12   C79   A    
C72   H28   S    
N6    Ni3   S    
C49   C57   A    
N9    Ni2   S    
C71   H27   S    
C60   C62   A    
C9    I1    S    
C37   C42   A    
C61   C63   A    
N13   Ni4   S    
C40   C84   S    
C69   N16   A    
C83   H48   S    
C72   C78   A    
N7    Ni3   S    
N12   N16   A    
C29   C78   S    
C52   H21   S    
C83   H46   S    
C22   C25   A    
C38   H9    S    
N4    N15   A    
C36   C46   A    
C10   C35   A    
C60   I3    S    
C82   H44   S    
C26   H55   S    
C85   H53   S    
C18   C20   A    
C30   C67   S    
C44   H6    S    
C44   C47   A    
C17   N11   A    
C75   N7    A    
C13   H57   S    
N5    N10   A    
C3    C79   S    
C81   H41   S    
C3    C86   A    
C9    C33   A    
C7    C33   A    
N4    Ni2   S    
C23   C73   A    
C5    C68   S    
C52   C54   A    
C64   H22   S    
C46   C48   A    
C21   H4    S    
C28   C31   A    
N15   Ni3   S    
C40   C45   A    
C65   H24   S    
C14   H58   S    
C50   C53   A    
C72   N4    A    
C62   C66   A    
N3    N14   A    
C45   C69   A    
C64   C67   A    
C70   N2    A    
C4    C6    A    
N8    Ni4   S    
C39   C43   A    
C46   H5    S    
C3    C5    A    
C58   C59   A    
C23   C37   S    
C50   C56   S    
C7    H23   S    
C51   C53   A    
C8    C35   A    
C2    C4    A    
C24   C81   S    
C63   I6    S    
C40   N12   A    
C75   C77   A    
C47   C48   A    
C45   C49   S    
C74   H30   S    
C73   N5    A    
C74   N6    A    
N11   Ni1   S    
C82   H43   S    
C17   H13   S    
C85   H54   S    
C82   H42   S    
C86   H33   S    
C52   C58   A    
C10   I2    S    
C34   C74   A    
N6    N11   A    
C8    C68   A    
C16   C23   A    
C56   C70   A    
C13   C15   A    
N8    N9    A    
C13   C26   A    
C21   C24   A    
C10   C61   A    
C18   C32   S    
C17   C34   A    
C25   H45   S    
N2    Ni1   S    
C8    H34   S    
C39   C47   A    
C80   H38   S    
C2    H35   S    
C63   C68   A    
C84   H50   S    
C65   C78   A    
C81   H39   S    
C27   C32   A    
C42   H8    S    
C12   H12   S    
C27   C82   S    
C20   C22   A    
C35   H15   S    
C6    C86   A    
C84   H51   S    
C41   C85   S    
C20   H3    S    
C50   C55   A    
C73   H29   S    
C33   H14   S    
C9    C60   A    
C37   C44   A    
C41   N13   A    
C22   C80   S    
C4    C77   S    
C29   C31   A    
C7    C66   A    
C30   C32   A    
C69   H25   S    
N5    Ni4   S    
N12   Ni3   S    
C51   H20   S    
N1    Ni1   S    
C28   C30   A    
C43   H7    S    
C34   C36   S    
C38   C48   A    
C1    N1    A    
C67   C71   A    
N10   Ni2   S    
C12   N9    A    
C70   H26   S    
C11   H56   S    
C76   H32   S    
C39   H10   S    
C83   H47   S    
N2    N13   A    
C2    C5    A    
C53   H19   S    
C6    C66   S    
C65   N15   A    
C51   C59   A    
C55   C58   A    
C36   C43   A    
C85   H52   S    
N3    Ni1   S    
C15   H2    S    
C28   C83   S    
C80   H37   S    
