data_mof_unit_32150.cif
_audit_creation_date              2013-03-05T16:09:47-0500
_audit_creation_method            fapswitch 2.2
_symmetry_space_group_name_H-M    P1
_symmetry_Int_Tables_number       1
_space_group_crystal_system       triclinic
_cell_length_a                    8.154987
_cell_length_b                    15.201909
_cell_length_c                    26.90228
_cell_angle_alpha                 98.769015
_cell_angle_beta                  92.351015
_cell_angle_gamma                 80.972093
_cell_volume                      3254.79637192

loop_
_atom_site_label
_atom_site_type_symbol
_atom_site_description
_atom_site_fract_x
_atom_site_fract_y
_atom_site_fract_z
_atom_type_partial_charge
P1    P     P_3+3 0.071950 0.575820 0.612140 0.478684
O1    O     O_2   0.906480 0.548660 0.619050 -0.361210
O2    O     O_3   0.138490 0.548590 0.558870 -0.407187
O3    O     O_3   0.686300 0.382310 0.585700 -0.384068
O4    O     O_2   0.850428 0.429841 0.670578 -0.426362
O5    O     O_3   0.032784 0.693235 0.626602 -0.553949
O6    O     O_3   0.669570 0.306262 0.676283 -0.520771
H1    H     H_    0.801749 0.224172 0.617969 0.166583
C1    C     C_3   0.667187 0.148249 0.658711 -1.028533
H2    H     H_    0.676338 0.089699 0.628170 0.224701
H3    H     H_    0.767429 0.136015 0.687034 0.269306
P2    P     P_3+3 0.664370 0.290050 0.457240 0.455896
P3    P     P_3+3 0.145873 0.222498 0.564747 0.494724
O7    O     O_2   0.844040 0.276390 0.471470 -0.392298
O8    O     O_3   0.101510 0.335500 0.560330 -0.397352
O9    O     O_2   0.005228 0.178439 0.535277 -0.352019
O10   O     O_3   0.664138 0.260730 0.391821 -0.573434
O11   O     O_3   0.117944 0.213770 0.627807 -0.513762
C2    C     C_3   0.188193 0.281857 0.658706 0.297339
H4    H     H_    0.134730 0.349119 0.649658 0.087227
H5    H     H_    0.324689 0.272166 0.654233 0.060570
C3    C     C_3   0.147916 0.280568 0.713379 0.097807
H6    H     H_    0.013828 0.274694 0.715517 0.114585
C4    C     C_3   0.216727 0.267514 0.414264 0.443349
H7    H     H_    0.337190 0.289031 0.425837 0.092708
H8    H     H_    0.129729 0.286591 0.446053 0.131452
C5    C     C_3   0.240918 0.165537 0.400146 -1.001066
H9    H     H_    0.335118 0.143945 0.370304 0.273861
H10   H     H_    0.283567 0.132503 0.433346 0.223296
H11   H     H_    0.121599 0.143508 0.386187 0.259605
Ba1   Ba    Ba6+2 0.860050 0.456430 0.522530 1.542662
C6    C     C_3   0.978989 0.731078 0.583496 0.445050
H12   H     H_    0.857005 0.712562 0.571544 0.090863
H13   H     H_    0.066993 0.708369 0.552237 0.141212
C7    C     C_3   0.965370 0.832626 0.596358 -0.999603
H14   H     H_    0.872112 0.858226 0.626137 0.267134
H15   H     H_    0.927826 0.865571 0.562860 0.236781
H16   H     H_    0.088319 0.849975 0.609923 0.263447
C8    C     C_3   0.714124 0.328472 0.369189 0.428349
H17   H     H_    0.823785 0.352799 0.388817 0.107355
H18   H     H_    0.609841 0.384924 0.369396 0.099328
C9    C     C_3   0.760266 0.289196 0.315171 -0.963665
H19   H     H_    0.858149 0.229389 0.314826 0.276851
H20   H     H_    0.808783 0.339073 0.296118 0.224372
H21   H     H_    0.649390 0.268659 0.293925 0.261723
P4    P     P_3+3 0.117760 0.424110 0.387850 0.477862
O12   O     O_2   0.283210 0.451310 0.380920 -0.364346
O13   O     O_3   0.051220 0.451340 0.441120 -0.409661
O14   O     O_3   0.503410 0.617620 0.414290 -0.385479
O15   O     O_3   0.154554 0.306634 0.372199 -0.555548
P5    P     P_3+3 0.053146 0.780637 0.437416 0.444419
O16   O     O_3   0.617150 0.609960 0.527100 -0.382141
O17   O     O_3   0.088210 0.664420 0.439670 -0.363805
O18   O     O_2   0.190812 0.821633 0.469882 -0.385740
O19   O     O_3   0.094621 0.795169 0.376244 -0.511123
Ba2   Ba    Ba6+2 0.329780 0.543490 0.477460 1.548396
P6    P     P_3+3 0.679656 0.405384 0.651481 0.459614
C10   C     C_3   0.681024 0.233409 0.637093 0.478082
H22   H     H_    0.577986 0.244005 0.609521 0.044292
H23   H     H_    0.546580 0.155947 0.677626 0.289492
O20   O     O_3   0.572560 0.389960 0.472890 -0.387734
C11   C     C_3   0.482853 0.690933 0.632016 0.424873
H24   H     H_    0.366521 0.670353 0.614487 0.110195
H25   H     H_    0.581836 0.631501 0.630258 0.099499
C12   C     C_3   0.447966 0.729736 0.686759 -0.978236
H26   H     H_    0.354880 0.791901 0.688876 0.267987
H27   H     H_    0.397673 0.680505 0.706005 0.233456
H28   H     H_    0.564196 0.746240 0.706389 0.265251
P7    P     P_3+3 0.533382 0.723658 0.543196 0.420191
O21   O     O_2   0.345660 0.723580 0.528500 -0.381070
O22   O     O_3   0.536590 0.756915 0.608354 -0.582582
H29   H     H_    0.169514 0.345438 0.735784 0.086433
C13   C     C_3   0.961066 0.772722 0.344950 0.383462
H30   H     H_    0.929970 0.705682 0.349612 0.090509
H31   H     H_    0.851564 0.825674 0.353207 0.050922
C14   C     C_3   0.007591 0.768913 0.290472 -0.867176
H32   H     H_    0.112646 0.713764 0.280442 0.277199
H33   H     H_    0.899455 0.756274 0.265544 0.252925
H34   H     H_    0.044362 0.833912 0.284716 0.246351
P8    P     P_3+3 0.506916 0.601444 0.348574 0.487970
C15   C     C_3   0.512907 0.772464 0.368619 0.521044
H35   H     H_    0.639148 0.759885 0.385340 -0.014440
O23   O     O_2   0.339470 0.571507 0.330216 -0.377583
O24   O     O_3   0.495820 0.705761 0.327335 -0.505416
H36   H     H_    0.418831 0.774203 0.397566 0.167350
H37   H     H_    0.508295 0.916921 0.383136 0.223771
C16   C     C_3   0.486794 0.864283 0.351136 -0.988887
H38   H     H_    0.357547 0.879871 0.336715 0.284847
H39   H     H_    0.574147 0.864963 0.320665 0.259614
C17   C     C_R   0.054180 0.437914 0.179465 0.558086
O25   O     O_2   0.112984 0.374259 0.200699 -0.598797
N1    N     N_R   0.938428 0.505974 0.203805 -0.163425
C18   C     C_R   0.867329 0.575873 0.178340 0.515521
C19   C     C_2   0.731738 0.521671 0.270320 -0.162338
C20   C     C_3   0.687145 0.516928 0.324027 0.138347
C21   C     C_1   0.982349 0.482672 0.342774 0.301834
C22   C     C_2   0.024378 0.482766 0.295473 -0.184910
C23   C     C_2   0.893300 0.504427 0.255956 0.101696
C24   C     C_R   0.027294 0.508888 0.103223 -0.064430
C25   C     C_R   0.103349 0.440185 0.129728 -0.081327
C26   C     C_R   0.232342 0.376932 0.107013 -0.284918
C27   C     C_R   0.908153 0.577129 0.127802 -0.033316
C28   C     C_2   0.835919 0.523496 0.359005 -0.473736
H40   H     H_    0.153872 0.467434 0.285208 0.190682
H41   H     H_    0.301164 0.330050 0.129497 0.169589
C29   C     C_2   0.356677 0.485052 0.641240 -0.475625
C30   C     C_R   0.219308 0.437262 0.975324 0.072544
C31   C     C_R   0.045143 0.585209 0.976585 0.045678
C32   C     C_R   0.152615 0.511560 0.950611 0.076885
C33   C     C_R   0.305055 0.360428 0.945610 -0.131376
C34   C     C_R   0.344193 0.360999 0.895744 -0.154182
C35   C     C_R   0.291404 0.436815 0.872129 -0.049614
C36   C     C_R   0.191910 0.511518 0.899125 -0.065468
C37   C     C_R   0.130915 0.585894 0.874595 -0.058312
C38   C     C_R   0.171409 0.585054 0.823766 0.525559
N2    N     N_R   0.270372 0.511482 0.797591 -0.165409
C39   C     C_R   0.331489 0.438106 0.821556 0.489784
C40   C     C_2   0.468619 0.495325 0.729311 -0.148039
C41   C     C_3   0.507809 0.495621 0.674534 0.173117
C42   C     C_1   0.210444 0.523825 0.658312 0.292613
C43   C     C_2   0.172832 0.527478 0.706300 -0.253636
C44   C     C_2   0.308905 0.511081 0.744910 0.110729
O26   O     O_2   0.419766 0.373351 0.798729 -0.573309
C45   C     C_R   0.191127 0.440133 0.027902 -0.104646
C46   C     C_R   0.071423 0.510013 0.052380 0.033416
C47   C     C_R   0.996804 0.581905 0.026693 0.081436
C48   C     C_R   0.281297 0.377112 0.057237 0.516919
H42   H     H_    0.570292 0.486526 0.756326 0.156390
H43   H     H_    0.413572 0.300575 0.875348 0.167129
H44   H     H_    0.336392 0.296992 0.959348 0.163818
O27   O     O_2   0.769569 0.637871 0.199781 -0.599663
C49   C     C_R   0.832652 0.645970 0.101534 -0.083674
H45   H     H_    0.632173 0.532515 0.242867 0.170306
H46   H     H_    0.738972 0.698869 0.119084 0.165657
C50   C     C_R   0.988880 0.659622 0.951139 -0.210749
C51   C     C_R   0.030979 0.659832 0.901446 -0.088246
O28   O     O_2   0.120040 0.650448 0.803040 -0.589691
C52   C     C_R   0.875156 0.648227 0.052202 -0.208315
H47   H     H_    0.913962 0.720055 0.968898 0.125787
H48   H     H_    0.983804 0.718661 0.883973 0.165032
H49   H     H_    0.044147 0.540623 0.717641 0.183195
H50   H     H_    0.807393 0.702458 0.034745 0.124539
H51   H     H_    0.822652 0.559777 0.397010 0.171642
H52   H     H_    0.367913 0.446036 0.603839 0.169948
C53   C     C_R   0.845660 0.831600 0.462720 0.139183
C54   C     C_R   0.780612 0.924956 0.468525 0.009579
C55   C     C_R   0.645982 0.112113 0.481879 0.013654
C56   C     C_R   0.788472 0.077630 0.452776 -0.082030
C57   C     C_R   0.856633 0.986500 0.447308 -0.187079
C58   C     C_R   0.579668 0.205497 0.489127 0.266193
H53   H     H_    0.850658 0.120258 0.433834 0.164787
H54   H     H_    0.967496 0.964463 0.425244 0.163833
C59   C     C_R   0.436318 0.234701 0.517516 -0.562731
C60   C     C_R   0.614903 0.803432 0.509105 0.276732
C61   C     C_R   0.551181 0.895866 0.516471 -0.068121
C62   C     C_R   0.632908 0.957294 0.496256 0.027223
C63   C     C_R   0.409204 0.928021 0.544737 -0.258334
C64   C     C_R   0.350735 0.019318 0.556903 0.505436
C65   C     C_R   0.421582 0.082314 0.533707 -0.170317
C66   C     C_R   0.567198 0.050883 0.504208 -0.037795
C67   C     C_R   0.353096 0.174859 0.538157 0.228630
C68   C     C_R   0.757589 0.772374 0.481380 -0.533505
H55   H     H_    0.339594 0.882690 0.558659 0.194827
H56   H     H_    0.384149 0.305298 0.521552 0.178761
H57   H     H_    0.806432 0.701310 0.477280 0.173252
O29   O     O_3   0.433637 0.329182 0.040193 -0.629902
C69   C     C_3   0.459473 0.239721 0.051012 0.233948
H58   H     H_    0.343916 0.208466 0.045226 0.085296
H59   H     H_    0.507030 0.238250 0.090224 0.120250
C70   C     C_3   0.591696 0.182992 0.016430 -0.879937
H60   H     H_    0.708276 0.212859 0.020983 0.265654
H61   H     H_    0.617548 0.113604 0.026057 0.213813
H62   H     H_    0.548795 0.179335 0.976588 0.240572
O30   O     O_3   0.215416 0.044253 0.588336 -0.584468
C71   C     C_3   0.258146 0.021381 0.637009 0.318451
H63   H     H_    0.343093 0.066202 0.656529 0.134703
H64   H     H_    0.319552 0.950614 0.636401 0.064257
C72   C     C_3   0.102034 0.032332 0.667969 -0.806519
H65   H     H_    0.129768 0.998986 0.701971 0.197543
H66   H     H_    0.055674 0.104211 0.680310 0.276333
H67   H     H_    0.002358 0.002371 0.645475 0.255923
O31   O     O_3   0.251605 0.208563 0.731554 -0.597056
C73   C     C_3   0.196536 0.197882 0.779014 0.339405
H68   H     H_    0.074516 0.173089 0.775101 0.079120
H69   H     H_    0.184429 0.262303 0.805545 0.102723
C74   C     C_3   0.322020 0.128783 0.801232 -0.883634
H70   H     H_    0.445587 0.151518 0.805182 0.270343
H71   H     H_    0.281156 0.120536 0.838908 0.202605
H72   H     H_    0.332760 0.062798 0.776314 0.251097

loop_
_geom_bond_atom_site_label_1
_geom_bond_atom_site_label_2
_geom_bond_distance
_ccdc_geom_bond_type
C2    H5    1.108754 S    
O5    C6    1.396679 S    
C16   H38   1.110728 S    
C63   C64   1.388285 A    
C29   C41   1.508228 S    
C5    H10   1.107856 S    
C30   C32   1.421266 A    
C13   H30   1.114171 S    
Ba1   O20   2.894160 S    
C2    H4    1.105497 S    
C4    C5    1.522192 S    
O7    Ba1   2.888933 S    
C51   H48   1.083559 S    
C15   H35   1.106910 S    
N1    C23   1.469516 S    
C50   C51   1.394399 A    
C8    H18   1.108884 S    
C31   C32   1.419038 A    
C50   H47   1.076797 S    
C40   H42   1.085790 S    
P3    O11   1.748491 S    
C7    H15   1.106127 S    
C14   H33   1.108899 S    
O11   C2    1.405417 S    
C73   H69   1.113812 S    
P5    C53   1.857134 S    
C53   C54   1.422264 A    
C35   C39   1.415946 A    
O30   C71   1.421371 S    
C61   C63   1.392483 A    
C53   C68   1.395996 A    
C19   C23   1.362512 D    
C49   C52   1.392108 A    
C38   N2    1.386118 Am   
C68   H57   1.081715 S    
C22   C23   1.511386 S    
P1    Ba1   3.376417 S    
C19   H45   1.085263 S    
N2    C39   1.388078 Am   
C71   H64   1.111126 S    
P1    O1    1.498250 D    
O10   C8    1.393079 S    
C3    H29   1.109676 S    
P7    O22   1.749018 S    
C8    C9    1.523055 S    
C40   C41   1.521463 S    
N1    C18   1.389460 Am   
C11   H25   1.109659 S    
O16   P7    1.751326 S    
H1    C10   1.108974 S    
C33   C34   1.393252 A    
C64   O30   1.387099 S    
C55   C56   1.412925 A    
C12   H27   1.108293 S    
C58   C59   1.397857 A    
P2    O10   1.748365 S    
C14   H34   1.110724 S    
C2    C3    1.523823 S    
Ba1   Ba2   4.511864 S    
C71   C72   1.523289 S    
C1    H2    1.110880 S    
C63   H55   1.075312 S    
O6    C10   1.402298 S    
C11   C12   1.521381 S    
P8    O24   1.754000 S    
P6    C41   1.854433 S    
C5    H11   1.110823 S    
C4    O15   1.398157 S    
C13   H31   1.109458 S    
P7    O21   1.565454 D    
C9    H20   1.106106 S    
C30   C45   1.435310 A    
P8    O23   1.544935 D    
C55   C66   1.424730 A    
C17   C25   1.419423 A    
C35   C36   1.408241 A    
C20   C28   1.510990 S    
C72   H65   1.110517 S    
C69   C70   1.522430 S    
C26   H41   1.080209 S    
P4    O13   1.527080 S    
C59   H56   1.081450 S    
P1    O5    1.748970 S    
O3    Ba1   2.729055 S    
C6    C7    1.517110 S    
C43   H49   1.084512 S    
C62   C66   1.426333 A    
C56   H53   1.077875 S    
C14   H32   1.110962 S    
C31   C50   1.416422 A    
C24   C46   1.431810 A    
C52   H50   1.076738 S    
C73   C74   1.520461 S    
C69   H58   1.115336 S    
H37   C16   1.110752 S    
C27   C49   1.400450 A    
C10   H22   1.106802 S    
C69   H59   1.111115 S    
C59   C67   1.405421 A    
O1    Ba1   2.797759 S    
P1    O2    1.527078 S    
C9    H21   1.110619 S    
C6    H13   1.106645 S    
C64   C65   1.423294 A    
O3    P6    1.752223 S    
C73   H68   1.113699 S    
C38   O28   1.222210 D    
C11   H24   1.109841 S    
P2    C58   1.878452 S    
C54   C57   1.399752 A    
O2    Ba2   2.725194 S    
C17   N1    1.388503 Am   
C65   C66   1.432434 A    
C12   H28   1.110594 S    
C21   C22   1.331646 D    
C7    H16   1.109798 S    
C65   C67   1.418825 A    
C43   C44   1.506645 S    
P4    C21   1.842068 S    
C4    H7    1.101674 S    
P8    C20   1.864220 S    
O2    Ba1   2.910873 S    
C1    H3    1.108071 S    
C60   C61   1.406487 A    
C15   C16   1.521026 S    
N2    C44   1.463072 S    
C45   C48   1.429415 A    
P2    O7    1.489710 D    
Ba2   O21   2.889242 S    
Ba1   O13   2.724633 S    
P3    O8    1.720362 S    
P2    Ba1   3.422144 S    
O29   C69   1.415768 S    
C30   C33   1.413186 A    
C57   H54   1.081787 S    
C9    H19   1.110920 S    
C74   H71   1.110702 S    
P3    C67   1.857182 S    
C55   C58   1.424466 A    
C8    H17   1.104929 S    
C15   O24   1.403361 S    
C42   C43   1.330081 D    
C34   H43   1.083339 S    
C36   C37   1.409033 A    
O17   Ba2   2.750093 S    
O13   Ba2   2.911611 S    
P4    O12   1.498471 D    
C47   C52   1.415132 A    
C34   C35   1.400844 A    
C29   C42   1.312346 D    
Ba2   O20   2.804392 S    
C60   C68   1.387308 A    
C29   H52   1.086809 S    
C4    H8    1.108329 S    
C28   H51   1.086131 S    
C18   C27   1.416583 A    
C72   H66   1.103266 S    
O14   P8    1.748194 S    
O8    Ba1   2.749678 S    
C37   C38   1.417549 A    
C32   C36   1.434309 A    
O14   Ba2   2.728551 S    
P4    O15   1.752013 S    
P7    C60   1.842813 S    
Ba1   O16   2.804956 S    
O4    P6    1.545051 D    
C22   H40   1.082972 S    
C1    H23   1.107599 S    
C31   C47   1.430239 A    
C6    H12   1.098295 S    
P5    O18   1.544277 D    
C74   H72   1.111514 S    
C16   H39   1.110115 S    
C39   O26   1.222292 D    
C3    O31   1.411057 S    
C71   H63   1.108653 S    
C18   O27   1.221780 D    
C24   C25   1.404076 A    
P2    O20   1.587028 S    
C17   O25   1.221928 D    
C46   C47   1.424523 A    
C70   H61   1.110508 S    
C48   O29   1.394746 S    
C40   C44   1.358745 D    
C25   C26   1.400261 A    
C26   C48   1.413462 A    
O6    P6    1.752857 S    
C11   O22   1.399603 S    
C33   H44   1.074936 S    
P5    O19   1.746816 S    
C56   C57   1.397403 A    
C19   C20   1.519250 S    
C72   H67   1.107327 S    
O19   C13   1.401875 S    
O16   Ba2   2.893333 S    
C24   C27   1.408784 A    
C54   C62   1.423094 A    
C13   C14   1.519227 S    
C1    C10   1.519121 S    
C49   H46   1.083625 S    
C12   H26   1.111104 S    
C70   H60   1.110836 S    
P3    O9    1.548309 D    
P4    Ba2   3.376894 S    
C61   C62   1.411342 A    
C37   C51   1.400934 A    
C3    H6    1.115514 S    
C45   C46   1.424457 A    
C7    H14   1.110720 S    
P5    O17   1.754835 S    
C74   H70   1.111522 S    
C21   C28   1.315049 D    
P1    C42   1.829574 S    
C15   H36   1.109989 S    
O31   C73   1.411139 S    
O12   Ba2   2.798127 S    
C5    H9    1.110631 S    
C70   H62   1.109723 S    
