data_mof_unit_34863.cif
_audit_creation_date              2012-12-10T18:03:34-0500
_audit_creation_method            fapswitch 2.2
_symmetry_space_group_name_H-M    P1
_symmetry_Int_Tables_number       1
_space_group_crystal_system       triclinic
_cell_length_a                    10.834369
_cell_length_b                    9.510087
_cell_length_c                    19.394013
_cell_angle_alpha                 89.964272
_cell_angle_beta                  90.141212
_cell_angle_gamma                 89.992838
_cell_volume                      1998.27101166

loop_
_atom_site_label
_atom_site_type_symbol
_atom_type_description
_atom_site_fract_x
_atom_site_fract_y
_atom_site_fract_z
_atom_type_partial_charge
C1    C     C_R   0.871798 0.499994 0.500041 -0.021567
C2    C     C_R   0.128202 0.500006 0.499933 -0.022153
C3    C     C_R   0.398735 0.554662 0.963968 -0.022542
C4    C     C_R   0.600579 0.444148 0.036296 -0.024697
C5    C     C_R   0.398763 0.555425 0.035740 -0.025159
C6    C     C_R   0.601204 0.444976 0.964525 -0.022942
C7    C     C_R   0.499529 0.499786 0.071942 0.134197
C8    C     C_R   0.500123 0.499846 0.928300 0.147975
C9    C     C_R   0.262030 0.500005 0.499950 0.795829
C10   C     C_R   0.737970 0.499995 0.500040 0.795511
C11   C     C_R   0.499878 0.500036 0.367595 0.846388
C12   C     C_R   0.500103 0.499960 0.632445 0.851096
C13   C     C_R   0.063862 0.372216 0.499944 -0.165378
C14   C     C_R   0.936137 0.627784 0.500023 -0.166021
C15   C     C_R   0.936170 0.372210 0.500017 -0.166228
C16   C     C_R   0.063830 0.627789 0.499951 -0.165640
C17   C     C_R   0.466950 0.378322 0.744377 -0.232591
C18   C     C_R   0.540745 0.618434 0.255761 -0.257631
C19   C     C_R   0.458160 0.381753 0.255808 -0.255086
C20   C     C_R   0.533829 0.621327 0.744410 -0.230707
C21   C     C_R   0.465377 0.377276 0.816365 0.388230
C22   C     C_R   0.542320 0.619255 0.183770 0.351405
C23   C     C_R   0.456339 0.380812 0.183817 0.353570
C24   C     C_R   0.535462 0.622302 0.816403 0.390266
C25   C     C_R   0.500373 0.499795 0.852755 -0.197127
C26   C     C_R   0.499336 0.499970 0.147456 -0.159130
C27   C     C_R   0.424119 0.074517 0.456629 -0.019617
C28   C     C_R   0.575892 0.925484 0.543364 -0.002968
C29   C     C_R   0.575893 0.074379 0.543362 -0.003045
C30   C     C_R   0.424114 0.925622 0.456633 -0.020025
C31   C     C_R   0.500294 0.499868 0.708157 -0.187367
C32   C     C_R   0.499593 0.500088 0.291961 -0.138451
Cu1   Cu    Cu3+1 0.500000 0.640660 0.500000 0.958523
Cu2   Cu    Cu3+1 0.500000 0.359340 0.500000 0.958706
H1    H     H_    0.363356 0.130751 0.421899 0.125605
H2    H     H_    0.636666 0.869249 0.578086 0.127708
H3    H     H_    0.636680 0.130504 0.578074 0.129283
H4    H     H_    0.363332 0.869498 0.421918 0.128251
H5    H     H_    0.111906 0.272312 0.499906 0.154570
H6    H     H_    0.888094 0.727688 0.500059 0.153642
H7    H     H_    0.888152 0.272304 0.500049 0.153582
H8    H     H_    0.111848 0.727696 0.499918 0.154479
H9    H     H_    0.440347 0.284711 0.716323 0.216080
H10   H     H_    0.573303 0.709461 0.283888 0.182374
H11   H     H_    0.425664 0.290784 0.283975 0.175232
H12   H     H_    0.560462 0.714944 0.716379 0.210181
H13   H     H_    0.320248 0.596908 0.936135 0.159490
H14   H     H_    0.678755 0.401201 0.064144 0.164683
H15   H     H_    0.320385 0.598404 0.063155 0.164368
H16   H     H_    0.679911 0.402739 0.937126 0.159303
N1    N     N_R   0.500000 0.852070 0.500000 -0.163891
N2    N     N_R   0.500000 0.147930 0.500000 -0.163681
O1    O     O_R   0.319640 0.618740 0.500000 -0.587052
O2    O     O_R   0.680360 0.381260 0.500000 -0.588743
O3    O     O_R   0.680360 0.618740 0.500000 -0.590588
O4    O     O_R   0.319640 0.381260 0.500000 -0.588809
O5    O     O_R   0.500020 0.618830 0.400190 -0.584828
O6    O     O_R   0.499980 0.381170 0.599810 -0.581482
O7    O     O_R   0.499980 0.618830 0.599810 -0.579937
O8    O     O_R   0.500020 0.381170 0.400190 -0.583093
S1    S     S_3+6 0.416971 0.222264 0.859334 0.055071
O9    O     O_2   0.522058 0.164657 0.901413 -0.221509
O10   O     O_2   0.311266 0.256894 0.906424 -0.239669
O11   O     O_3   0.371311 0.099995 0.802030 -0.516316
H17   H     H_    0.330751 0.026071 0.829923 0.407440
S2    S     S_3+6 0.598122 0.770807 0.140565 0.071797
O12   O     O_2   0.694179 0.728997 0.088730 -0.198371
O13   O     O_2   0.493153 0.841127 0.103272 -0.205151
O14   O     O_3   0.662087 0.884983 0.196441 -0.484755
H18   H     H_    0.591697 0.932959 0.218787 0.333485
S3    S     S_3+6 0.400359 0.229195 0.140684 0.070880
O15   O     O_2   0.304623 0.270995 0.088374 -0.198693
O16   O     O_2   0.505327 0.158354 0.103962 -0.204149
O17   O     O_3   0.335884 0.115541 0.196533 -0.490898
H19   H     H_    0.406052 0.067543 0.219308 0.330878
S4    S     S_3+6 0.584012 0.777224 0.859431 0.054516
O18   O     O_2   0.479013 0.834881 0.901237 -0.220078
O19   O     O_2   0.689743 0.742439 0.906787 -0.240039
O20   O     O_3   0.629699 0.899503 0.802186 -0.523515
H20   H     H_    0.670019 0.973562 0.830169 0.406726

loop_
_geom_bond_atom_site_label_1
_geom_bond_atom_site_label_2
_ccdc_geom_bond_type
Cu1   O3    S    
S2    O13   D    
C30   N1    A    
Cu2   O4    S    
S4    O20   S    
C7    C26   S    
C28   C29   A    
S4    O19   D    
C28   N1    A    
S2    O14   S    
C30   H4    S    
C23   C26   A    
S1    O10   D    
C2    C13   A    
C22   S2    S    
C12   O7    A    
C20   C24   A    
C1    C15   A    
C2    C16   A    
C21   S1    S    
C12   O6    A    
S2    O12   D    
Cu1   O7    S    
C27   C30   A    
Cu2   O8    S    
C8    C25   S    
C5    H15   S    
O14   H18   S    
C4    C7    A    
C19   C32   A    
Cu1   O1    S    
O17   H19   S    
C23   S3    S    
C24   C25   A    
C15   H7    S    
C4    C6    A    
C3    C8    A    
C5    C7    A    
C24   S4    S    
C6    C8    A    
C27   H1    S    
C17   C21   A    
S1    O11   S    
C19   C23   A    
C17   H9    S    
C18   H10   S    
Cu1   Cu2   S    
C9    O4    A    
S4    O18   D    
C10   O3    A    
C11   C32   S    
Cu2   O2    S    
C13   C15   A    
C12   C31   S    
C17   C31   A    
C14   C16   A    
C18   C32   A    
C11   O8    A    
C16   H8    S    
C27   N2    A    
S3    O16   D    
C4    H14   S    
C21   C25   A    
Cu1   O5    S    
C6    H16   S    
C18   C22   A    
C1    C10   S    
C3    C5    A    
S3    O17   S    
C19   H11   S    
Cu1   N1    S    
Cu2   N2    S    
O11   H17   S    
S3    O15   D    
C3    H13   S    
S1    O9    D    
C10   O2    A    
C13   H5    S    
C14   H6    S    
O20   H20   S    
C9    O1    A    
C28   H2    S    
C22   C26   A    
C29   H3    S    
Cu2   O6    S    
C1    C14   A    
C11   O5    A    
C2    C9    S    
C29   N2    A    
C20   H12   S    
C20   C31   A    
