data_mof_unit_38817.cif
_audit_creation_date              2012-12-10T17:50:15-0500
_audit_creation_method            fapswitch 2.2
_symmetry_space_group_name_H-M    P1
_symmetry_Int_Tables_number       1
_space_group_crystal_system       triclinic
_cell_length_a                    10.615062
_cell_length_b                    14.706727
_cell_length_c                    14.747179
_cell_angle_alpha                 65.13742
_cell_angle_beta                  103.379653
_cell_angle_gamma                 102.717548
_cell_volume                      2012.37664343

loop_
_atom_site_label
_atom_site_type_symbol
_atom_type_description
_atom_site_fract_x
_atom_site_fract_y
_atom_site_fract_z
_atom_type_partial_charge
C1    C     C_R   0.477718 0.119656 0.312343 0.790147
C2    C     C_R   0.522282 0.880344 0.687657 0.790147
C3    C     C_R   0.487358 0.291561 0.178409 -0.243518
C4    C     C_R   0.512639 0.708439 0.821591 -0.243518
C5    C     C_R   0.479796 0.360320 0.076898 0.078296
C6    C     C_R   0.520199 0.639680 0.923102 0.078296
C7    C     C_R   0.433093 0.321258 0.999896 0.099533
C8    C     C_R   0.566903 0.678742 0.000104 0.099533
C9    C     C_R   0.513279 0.466580 0.050999 0.009092
C10   C     C_R   0.486716 0.533420 0.949001 0.009092
C11   C     C_R   0.425313 0.492575 0.875638 -0.213775
C12   C     C_R   0.574682 0.507425 0.124362 -0.213775
C13   C     C_R   0.404269 0.388273 0.897980 0.125869
C14   C     C_R   0.595725 0.611728 0.102020 0.125869
C15   C     C_R   0.729678 0.290633 0.658438 -0.325135
C16   C     C_R   0.270321 0.709366 0.341562 -0.325136
C17   C     C_R   0.690694 0.206532 0.633029 0.076527
C18   C     C_R   0.309306 0.793468 0.366971 0.076527
C19   C     C_R   0.514791 0.283332 0.512248 -0.003361
C20   C     C_R   0.485209 0.716668 0.487752 -0.003362
C21   C     C_R   0.548705 0.371241 0.535153 -0.022455
C22   C     C_R   0.451294 0.628758 0.464848 -0.022455
C23   C     C_R   0.259545 0.000494 0.500021 0.784244
C24   C     C_R   0.740455 0.999506 0.499979 0.784245
C25   C     C_R   0.659660 0.373341 0.609507 0.171763
C26   C     C_R   0.340339 0.626658 0.390494 0.171764
C27   C     C_R   0.478072 0.456606 0.486986 0.069040
C28   C     C_R   0.521927 0.543393 0.513015 0.069040
C29   C     C_R   0.634288 0.541574 0.586711 -0.251926
C30   C     C_R   0.365711 0.458425 0.413291 -0.251926
C31   C     C_R   0.700751 0.457994 0.634238 -0.189758
C32   C     C_R   0.299248 0.542005 0.365763 -0.189758
C33   C     C_3   0.016057 0.010688 0.408149 -0.172274
C34   C     C_3   0.983943 0.989312 0.591851 -0.172274
C35   C     C_3   0.961728 0.087467 0.430028 -0.165501
C36   C     C_3   0.038272 0.912533 0.569972 -0.165501
C37   C     C_3   0.877142 0.998880 0.499759 0.023131
C38   C     C_3   0.122858 0.001120 0.500241 0.023131
C39   C     C_3   0.929157 0.922047 0.477868 -0.137100
C40   C     C_3   0.070843 0.077953 0.522132 -0.137100
C41   C     C_R   0.464422 0.187174 0.204737 -0.053681
C42   C     C_R   0.535576 0.812826 0.795263 -0.053681
C43   C     C_R   0.411440 0.215205 0.027647 -0.213109
C44   C     C_R   0.588556 0.784795 0.972353 -0.213110
C45   C     C_R   0.428751 0.149203 0.128787 -0.192072
C46   C     C_R   0.571246 0.850797 0.871213 -0.192072
Cu1   Cu    Cu3+1 0.465750 0.918270 0.475680 0.929497
Cu2   Cu    Cu3+1 0.534250 0.081730 0.524320 0.929497
H1    H     H_    0.927104 0.158904 0.372730 0.130269
H2    H     H_    0.072896 0.841096 0.627270 0.130269
H3    H     H_    0.566752 0.724520 0.544063 0.123109
H4    H     H_    0.433248 0.275480 0.455937 0.123109
H5    H     H_    0.255202 0.857280 0.329462 0.122277
H6    H     H_    0.744797 0.142720 0.670538 0.122277
H7    H     H_    0.814455 0.291190 0.715744 0.136013
H8    H     H_    0.185545 0.708809 0.284256 0.136014
H9    H     H_    0.673738 0.603798 0.609936 0.133376
H10   H     H_    0.326261 0.396201 0.390066 0.133376
H11   H     H_    0.032535 0.019567 0.333036 0.124688
H12   H     H_    0.967465 0.980433 0.666964 0.124688
H13   H     H_    0.868488 0.858165 0.459812 0.136161
H14   H     H_    0.131512 0.141835 0.540188 0.136161
H15   H     H_    0.494004 0.682486 0.760956 0.148602
H16   H     H_    0.505994 0.317513 0.239044 0.148602
H17   H     H_    0.589116 0.931582 0.852564 0.151282
H18   H     H_    0.410882 0.068418 0.147436 0.151282
H19   H     H_    0.379581 0.181612 0.972102 0.128147
H20   H     H_    0.620414 0.818389 0.027897 0.128147
H21   H     H_    0.389683 0.541457 0.800392 0.158873
H22   H     H_    0.610311 0.458543 0.199608 0.158873
H23   H     H_    0.786052 0.459950 0.690798 0.139622
H24   H     H_    0.213947 0.540049 0.309203 0.139622
N1    N     N_R   0.585750 0.204560 0.560800 -0.175963
N2    N     N_R   0.414250 0.795440 0.439200 -0.175962
O1    O     O_R   0.454850 0.022100 0.338110 -0.587931
O2    O     O_R   0.545150 0.977900 0.661890 -0.587932
O3    O     O_R   0.512700 0.160150 0.379180 -0.589158
O4    O     O_R   0.487300 0.839850 0.620820 -0.589158
O5    O     O_R   0.287930 0.931000 0.479440 -0.584312
O6    O     O_R   0.712070 0.069000 0.520560 -0.584313
O7    O     O_R   0.345780 0.069050 0.520520 -0.589458
O8    O     O_R   0.654220 0.930950 0.479480 -0.589458
C47   C     C_3   0.347503 0.346957 0.815148 -0.409324
C48   C     C_3   0.315556 0.424791 0.707411 -0.830008
H25   H     H_    0.236228 0.465735 0.702353 0.245217
H26   H     H_    0.403938 0.479224 0.683828 0.260761
H27   H     H_    0.281648 0.385526 0.654337 0.248666
H28   H     H_    0.418816 0.302792 0.813340 0.207176
H29   H     H_    0.255649 0.294992 0.834865 0.198441
C49   C     C_3   0.652492 0.653043 0.184852 -0.409324
C50   C     C_3   0.684439 0.575210 0.292589 -0.830007
H30   H     H_    0.596057 0.520776 0.316172 0.260761
H31   H     H_    0.763768 0.534266 0.297647 0.245217
H32   H     H_    0.718347 0.614474 0.345662 0.248667
H33   H     H_    0.744346 0.705009 0.165135 0.198441
H34   H     H_    0.581179 0.697208 0.186660 0.207176

loop_
_geom_bond_atom_site_label_1
_geom_bond_atom_site_label_2
_ccdc_geom_bond_type
C25   C31   A    
C17   N1    A    
C26   C32   A    
C34   C37   S    
C1    O3    A    
Cu2   O2    S    
C48   H27   S    
Cu1   O5    S    
C36   H2    S    
C49   H33   S    
C32   H24   S    
C3    H16   S    
C4    H15   S    
C33   C39   S    
C34   C40   S    
C28   C29   A    
C35   C37   S    
C48   H26   S    
C20   H3    S    
C15   C25   A    
C40   H14   S    
Cu2   O7    S    
C42   C46   A    
Cu1   O8    S    
C24   O8    A    
C14   C49   S    
C12   H22   S    
C18   H5    S    
C33   H11   S    
C19   H4    S    
C24   O6    A    
C47   C48   S    
C35   H1    S    
C7    C43   A    
C9    C10   A    
C31   H23   S    
C47   H28   S    
C21   C27   A    
C18   N2    A    
C38   C40   S    
C22   C28   A    
C27   C30   A    
C34   H12   S    
C47   H29   S    
C44   C46   A    
C16   C26   A    
C39   H13   S    
C1    O1    A    
C19   N1    A    
C48   H25   S    
C46   H17   S    
C4    C6    A    
C50   H30   S    
C5    C7    A    
C6    C8    A    
C15   H7    S    
Cu2   O3    S    
C16   H8    S    
C43   H19   S    
C5    C9    A    
C2    O4    A    
C50   H31   S    
Cu1   Cu2   S    
C7    C13   A    
C24   C37   S    
C20   N2    A    
C43   C45   A    
C1    C41   S    
C29   H9    S    
C44   H20   S    
C45   H18   S    
C2    O2    A    
C15   C17   A    
C21   C25   A    
C3    C41   A    
C8    C14   A    
C23   O7    A    
C19   C21   A    
Cu2   N1    S    
C36   C39   S    
C8    C44   A    
Cu1   N2    S    
C20   C22   A    
C3    C5    A    
C6    C10   A    
C11   H21   S    
C49   H34   S    
C23   C38   S    
C13   C47   S    
C33   C38   S    
Cu2   O6    S    
C36   C38   S    
C35   C40   S    
C12   C14   A    
Cu1   O1    S    
C29   C31   A    
C50   H32   S    
C30   C32   A    
C11   C13   A    
C49   C50   S    
C4    C42   A    
C2    C42   S    
C30   H10   S    
C33   C35   S    
C34   C36   S    
C9    C12   A    
C10   C11   A    
C37   C39   S    
C16   C18   A    
C22   C26   A    
C27   C28   A    
C41   C45   A    
Cu1   O4    S    
C23   O5    A    
C17   H6    S    
