data_mof_unit_55986.cif
_audit_creation_date              2012-12-11T21:25:41-0500
_audit_creation_method            fapswitch 2.2
_symmetry_space_group_name_H-M    P1
_symmetry_Int_Tables_number       1
_space_group_crystal_system       triclinic
_cell_length_a                    23.165892
_cell_length_b                    29.362527
_cell_length_c                    8.50122
_cell_angle_alpha                 90.0
_cell_angle_beta                  93.469006
_cell_angle_gamma                 90.000043
_cell_volume                      5772.01184648

loop_
_atom_site_label
_atom_site_type_symbol
_atom_type_description
_atom_site_fract_x
_atom_site_fract_y
_atom_site_fract_z
_atom_type_partial_charge
Ba1   Ba    Ba6+2 0.999920 0.467660 0.844980 1.678332
Ba2   Ba    Ba6+2 0.999920 0.532340 0.344980 1.678341
Ba3   Ba    Ba6+2 0.499920 0.967660 0.844980 1.678335
Ba4   Ba    Ba6+2 0.499920 0.032340 0.344980 1.678342
C1    C     C_3   0.040663 0.252009 0.714294 -0.168284
C2    C     C_3   0.040645 0.747997 0.214317 -0.168129
C3    C     C_3   0.540655 0.752006 0.714307 -0.168240
C4    C     C_3   0.540650 0.247994 0.214316 -0.168140
C5    C     C_R   0.760921 0.330400 0.919487 -0.070266
C6    C     C_R   0.760932 0.669607 0.419464 -0.070271
C7    C     C_R   0.260921 0.830399 0.919484 -0.070245
C8    C     C_R   0.260934 0.169608 0.419462 -0.070295
C9    C     C_R   0.201551 0.750545 0.780176 -0.082434
C10   C     C_R   0.201575 0.249467 0.280144 -0.082864
C11   C     C_R   0.701551 0.250545 0.780177 -0.082502
C12   C     C_R   0.701570 0.749465 0.280149 -0.082734
C13   C     C_R   0.225560 0.750931 0.936924 0.040781
C14   C     C_R   0.225577 0.249077 0.436898 0.040704
C15   C     C_R   0.725560 0.250932 0.936925 0.040767
C16   C     C_R   0.725575 0.749076 0.436901 0.040730
C17   C     C_R   0.166714 0.714954 0.723042 -0.020502
C18   C     C_R   0.166734 0.285056 0.223013 -0.020861
C19   C     C_R   0.666714 0.214954 0.723042 -0.020570
C20   C     C_R   0.666730 0.785054 0.223019 -0.020742
C21   C     C_R   0.154077 0.677993 0.819250 0.015042
C22   C     C_R   0.154088 0.322013 0.319232 0.015055
C23   C     C_R   0.654078 0.177992 0.819250 0.015043
C24   C     C_R   0.654086 0.822012 0.319236 0.015054
C25   C     C_R   0.181607 0.675419 0.972671 0.020987
C26   C     C_R   0.181616 0.324586 0.472654 0.021008
C27   C     C_R   0.681608 0.175419 0.972670 0.020996
C28   C     C_R   0.681615 0.824585 0.472657 0.021000
C29   C     C_R   0.217959 0.711764 0.031210 0.038880
C30   C     C_R   0.217972 0.288243 0.531190 0.038926
C31   C     C_R   0.717959 0.211764 0.031210 0.038885
C32   C     C_R   0.717970 0.788242 0.531192 0.038915
C33   C     C_R   0.113721 0.644074 0.767915 0.061342
C34   C     C_R   0.113725 0.355928 0.267903 0.061411
C35   C     C_R   0.613722 0.144074 0.767913 0.061350
C36   C     C_R   0.613724 0.855927 0.267906 0.061390
C37   C     C_R   0.101298 0.608386 0.870391 -0.245546
C38   C     C_R   0.101300 0.391615 0.370383 -0.245513
C39   C     C_R   0.601299 0.108385 0.870389 -0.245537
C40   C     C_R   0.601299 0.891614 0.370386 -0.245525
C41   C     C_R   0.131555 0.603136 0.017239 0.042477
C42   C     C_R   0.131557 0.396865 0.517233 0.042469
C43   C     C_R   0.631555 0.103136 0.017238 0.042476
C44   C     C_R   0.631556 0.896864 0.517235 0.042473
C45   C     C_3   0.976507 0.304439 0.078865 0.318374
C46   C     C_3   0.976514 0.695564 0.578871 0.318415
C47   C     C_3   0.476508 0.804440 0.078873 0.318394
C48   C     C_3   0.476513 0.195564 0.578870 0.318395
C49   C     C_R   0.172947 0.636537 0.067625 -0.043297
C50   C     C_R   0.172952 0.363466 0.567615 -0.043303
C51   C     C_R   0.672948 0.136536 0.067624 -0.043298
C52   C     C_R   0.672951 0.863466 0.567617 -0.043299
C53   C     C_R   0.786722 0.285412 0.152085 0.046093
C54   C     C_R   0.786734 0.714594 0.652063 0.046178
C55   C     C_R   0.286723 0.785412 0.152082 0.046111
C56   C     C_R   0.286735 0.214595 0.652062 0.046177
C57   C     C_R   0.822877 0.321944 0.210612 -0.009475
C58   C     C_R   0.822888 0.678061 0.710592 -0.009463
C59   C     C_R   0.322879 0.821944 0.210609 -0.009471
C60   C     C_R   0.322888 0.178061 0.710591 -0.009464
C61   C     C_R   0.830306 0.361345 0.117347 -0.022217
C62   C     C_R   0.830313 0.638659 0.617331 -0.022204
C63   C     C_R   0.330307 0.861345 0.117345 -0.022212
C64   C     C_R   0.330314 0.138659 0.617331 -0.022205
C65   C     C_R   0.795295 0.365950 0.978715 0.025430
C66   C     C_R   0.795303 0.634055 0.478698 0.025467
C67   C     C_R   0.295296 0.865949 0.978712 0.025434
C68   C     C_R   0.295303 0.134056 0.478697 0.025473
C69   C     C_R   0.206444 0.632173 0.209656 -0.026173
C70   C     C_R   0.206447 0.367829 0.709650 -0.026182
C71   C     C_R   0.706444 0.132173 0.209656 -0.026174
C72   C     C_R   0.706447 0.867829 0.709650 -0.026179
C73   C     C_R   0.241746 0.667372 0.267011 -0.071898
C74   C     C_R   0.241751 0.332632 0.767001 -0.071906
C75   C     C_R   0.741746 0.167372 0.267012 -0.071895
C76   C     C_R   0.741751 0.832631 0.767001 -0.071907
C77   C     C_R   0.246143 0.708705 0.183849 0.025169
C78   C     C_R   0.246153 0.291301 0.683833 0.025180
C79   C     C_R   0.746143 0.208705 0.183850 0.025163
C80   C     C_R   0.746152 0.791300 0.683834 0.025182
C81   C     C_R   0.779424 0.246127 0.246079 0.028307
C82   C     C_R   0.779435 0.753879 0.746060 0.028328
C83   C     C_R   0.279425 0.746127 0.246077 0.028313
C84   C     C_R   0.279436 0.253879 0.746059 0.028326
C85   C     C_R   0.804110 0.246361 0.402052 -0.069547
C86   C     C_R   0.804118 0.753643 0.902035 -0.069650
C87   C     C_R   0.304110 0.746361 0.402050 -0.069579
C88   C     C_R   0.304119 0.253644 0.902035 -0.069638
C89   C     C_3   0.945621 0.257794 0.092334 0.651965
C90   C     C_3   0.945633 0.742213 0.592331 0.651922
C91   C     C_3   0.445624 0.757793 0.092343 0.651938
C92   C     C_3   0.445632 0.242213 0.592325 0.651926
C93   C     C_R   0.850883 0.319224 0.363039 -0.043437
C94   C     C_R   0.850891 0.680779 0.863023 -0.043445
C95   C     C_R   0.350884 0.819224 0.363037 -0.043442
C96   C     C_R   0.350891 0.180779 0.863023 -0.043443
C97   C     C_R   0.838825 0.281987 0.458772 -0.040558
C98   C     C_R   0.838831 0.718016 0.958758 -0.040666
C99   C     C_R   0.338825 0.781987 0.458771 -0.040592
C100  C     C_R   0.338832 0.218016 0.958757 -0.040651
C101  C     C_R   0.890158 0.353674 0.415105 0.034751
C102  C     C_R   0.890161 0.646328 0.915095 0.034732
C103  C     C_R   0.390158 0.853674 0.415104 0.034742
C104  C     C_R   0.390161 0.146328 0.915096 0.034736
C105  C     C_R   0.901483 0.390097 0.314410 -0.246520
C106  C     C_R   0.901484 0.609904 0.814403 -0.246514
C107  C     C_R   0.401483 0.890097 0.314408 -0.246523
C108  C     C_R   0.401484 0.109904 0.814404 -0.246512
C109  C     C_R   0.871072 0.395410 0.167665 0.092009
C110  C     C_R   0.871075 0.604591 0.667657 0.092026
C111  C     C_R   0.371072 0.895410 0.167663 0.092013
C112  C     C_R   0.371075 0.104591 0.667657 0.092024
C113  C     C_3   0.166810 0.472102 0.201622 0.294410
C114  C     C_3   0.166807 0.527899 0.701621 0.294414
C115  C     C_3   0.666809 0.972102 0.201621 0.294412
C116  C     C_3   0.666808 0.027899 0.701621 0.294412
C117  C     C_3   0.221487 0.443211 0.211588 -0.357186
C118  C     C_3   0.221484 0.556791 0.711587 -0.357181
C119  C     C_3   0.721486 0.943211 0.211588 -0.357184
C120  C     C_3   0.721485 0.056790 0.711586 -0.357179
C121  C     C_3   0.821056 0.529568 0.023421 0.635494
C122  C     C_3   0.821055 0.470433 0.523416 0.635514
C123  C     C_3   0.321056 0.029568 0.023421 0.635487
C124  C     C_3   0.321055 0.970433 0.523417 0.635517
C125  C     C_3   0.786664 0.552961 0.146426 -0.204042
C126  C     C_3   0.786667 0.447039 0.646426 -0.204077
C127  C     C_3   0.286664 0.052961 0.146426 -0.204028
C128  C     C_3   0.286666 0.947039 0.646426 -0.204080
C129  C     C_3   0.016663 0.297260 0.650365 0.620178
C130  C     C_3   0.016655 0.702745 0.150371 0.620047
C131  C     C_3   0.516659 0.797257 0.650371 0.620144
C132  C     C_3   0.516657 0.202743 0.150371 0.620058
C133  C     C_R   0.758163 0.288564 0.000090 0.039123
C134  C     C_R   0.758177 0.711443 0.500067 0.039193
C135  C     C_R   0.258164 0.788563 0.000088 0.039147
C136  C     C_R   0.258179 0.211444 0.500064 0.039183
H1    H     H_    0.039959 0.325584 0.712815 0.052904
H2    H     H_    0.039954 0.674422 0.212817 0.052885
H3    H     H_    0.539956 0.825580 0.712821 0.052899
H4    H     H_    0.539954 0.174420 0.212819 0.052892
H5    H     H_    0.255370 0.460050 0.289237 0.148890
H6    H     H_    0.255366 0.539954 0.789240 0.148887
H7    H     H_    0.755368 0.960049 0.289240 0.148890
H8    H     H_    0.755368 0.039953 0.789237 0.148888
H9    H     H_    0.212776 0.409155 0.260566 0.042357
H10   H     H_    0.212771 0.590847 0.760561 0.042339
H11   H     H_    0.712774 0.909154 0.260564 0.042351
H12   H     H_    0.712772 0.090846 0.760562 0.042342
H13   H     H_    0.237709 0.438823 0.092194 0.125740
H14   H     H_    0.237707 0.561178 0.592194 0.125741
H15   H     H_    0.737708 0.938823 0.092195 0.125740
H16   H     H_    0.737707 0.061178 0.592193 0.125742
H17   H     H_    0.866632 0.541459 0.030106 -0.031160
H18   H     H_    0.866631 0.458542 0.530092 -0.031176
H19   H     H_    0.366632 0.041459 0.030105 -0.031163
H20   H     H_    0.366631 0.958542 0.530095 -0.031172
H21   H     H_    0.739641 0.545775 0.126776 0.166728
H22   H     H_    0.739643 0.454221 0.626779 0.166704
H23   H     H_    0.239641 0.045775 0.126776 0.166739
H24   H     H_    0.239642 0.954223 0.626779 0.166702
H25   H     H_    0.793411 0.590340 0.142007 0.061296
H26   H     H_    0.793418 0.409660 0.642012 0.061274
H27   H     H_    0.293411 0.090340 0.142007 0.061297
H28   H     H_    0.293416 0.909661 0.642011 0.061275
H29   H     H_    0.799273 0.539757 0.263204 0.152192
H30   H     H_    0.799275 0.460244 0.763202 0.152205
H31   H     H_    0.299273 0.039757 0.263204 0.152189
H32   H     H_    0.299275 0.960244 0.763202 0.152204
H33   H     H_    0.088570 0.251752 0.711643 0.061164
H34   H     H_    0.088554 0.748254 0.211731 0.061262
H35   H     H_    0.588562 0.751748 0.711680 0.061190
H36   H     H_    0.588558 0.248250 0.211729 0.061252
H37   H     H_    0.029044 0.246020 0.836346 0.175344
H38   H     H_    0.029000 0.753987 0.336345 0.175343
H39   H     H_    0.529026 0.746016 0.836351 0.175335
H40   H     H_    0.529006 0.253985 0.336343 0.175363
H41   H     H_    0.069135 0.583338 0.832459 0.056550
H42   H     H_    0.069134 0.416661 0.332456 0.056556
H43   H     H_    0.569136 0.083337 0.832457 0.056550
H44   H     H_    0.569133 0.916661 0.332458 0.056555
H45   H     H_    0.149381 0.717259 0.602425 0.119236
H46   H     H_    0.149402 0.282751 0.102395 0.119296
H47   H     H_    0.649381 0.217259 0.602425 0.119254
H48   H     H_    0.649397 0.782749 0.102401 0.119272
H49   H     H_    0.793551 0.397245 0.914404 0.096032
H50   H     H_    0.793555 0.602759 0.414392 0.096023
H51   H     H_    0.293551 0.897245 0.914402 0.096028
H52   H     H_    0.293555 0.102759 0.414391 0.096025
H53   H     H_    0.206092 0.601592 0.279801 0.102899
H54   H     H_    0.206091 0.398409 0.779801 0.102901
H55   H     H_    0.706092 0.101592 0.279802 0.102900
H56   H     H_    0.706092 0.898409 0.779800 0.102901
H57   H     H_    0.855869 0.279602 0.579371 0.160869
H58   H     H_    0.855871 0.720400 0.079360 0.160922
H59   H     H_    0.355867 0.779602 0.579370 0.160884
H60   H     H_    0.355872 0.220400 0.079359 0.160918
H61   H     H_    0.932041 0.416054 0.354810 0.067352
H62   H     H_    0.932040 0.583945 0.854809 0.067342
H63   H     H_    0.432041 0.916054 0.354809 0.067350
H64   H     H_    0.432039 0.083945 0.854809 0.067343
H65   H     H_    0.209652 0.777173 0.697045 0.073136
H66   H     H_    0.209683 0.222841 0.197009 0.073423
H67   H     H_    0.709652 0.277173 0.697046 0.073172
H68   H     H_    0.709677 0.722839 0.197014 0.073341
H69   H     H_    0.735576 0.337307 0.811595 0.068572
H70   H     H_    0.735588 0.662701 0.311572 0.068608
H71   H     H_    0.235577 0.837307 0.811593 0.068556
H72   H     H_    0.235589 0.162702 0.311569 0.068637
H73   H     H_    0.265920 0.660647 0.376780 0.078092
H74   H     H_    0.265923 0.339357 0.876774 0.078085
H75   H     H_    0.765919 0.160647 0.376781 0.078097
H76   H     H_    0.765924 0.839357 0.876772 0.078083
H77   H     H_    0.022704 0.223186 0.642273 0.191886
H78   H     H_    0.022698 0.776819 0.142275 0.191916
H79   H     H_    0.522699 0.723183 0.642277 0.191890
H80   H     H_    0.522704 0.276817 0.142273 0.191911
H81   H     H_    0.796583 0.219725 0.485498 0.088154
H82   H     H_    0.796589 0.780278 0.985484 0.088182
H83   H     H_    0.296582 0.719725 0.485498 0.088154
H84   H     H_    0.296590 0.280279 0.985483 0.088187
H85   H     H_    0.953490 0.324765 0.984406 0.037607
H86   H     H_    0.953495 0.675236 0.484421 0.037653
H87   H     H_    0.453490 0.824766 0.984418 0.037615
H88   H     H_    0.453496 0.175236 0.484418 0.037651
H89   H     H_    0.971842 0.323317 0.189978 -0.019192
H90   H     H_    0.971848 0.676687 0.689987 -0.019269
H91   H     H_    0.471845 0.823317 0.189988 -0.019216
H92   H     H_    0.471846 0.176688 0.689986 -0.019255
H93   H     H_    0.910715 0.262382 0.173898 -0.033206
H94   H     H_    0.910773 0.737646 0.674056 -0.033073
H95   H     H_    0.410731 0.762377 0.173955 -0.033162
H96   H     H_    0.410767 0.237645 0.674033 -0.033090
H97   H     H_    0.151083 0.475960 0.321265 0.016701
H98   H     H_    0.151080 0.524041 0.821264 0.016701
H99   H     H_    0.651081 0.975960 0.321264 0.016700
H100  H     H_    0.651081 0.024040 0.821264 0.016701
H101  H     H_    0.133775 0.454780 0.122402 0.049090
H102  H     H_    0.133773 0.545220 0.622399 0.049097
H103  H     H_    0.633774 0.954780 0.122400 0.049092
H104  H     H_    0.633773 0.045220 0.622401 0.049095
O1    O     O_2   0.885810 0.435270 0.885040 -0.492345
O2    O     O_2   0.885810 0.564730 0.385040 -0.492347
O3    O     O_2   0.385810 0.935270 0.885040 -0.492344
O4    O     O_2   0.385810 0.064730 0.385040 -0.492349
O5    O     O_3   0.180670 0.485253 0.641906 -0.634752
O6    O     O_3   0.180671 0.514748 0.141904 -0.634751
O7    O     O_3   0.680671 0.985253 0.641905 -0.634752
O8    O     O_3   0.680671 0.014747 0.141905 -0.634751
O9    O     O_3   0.035197 0.299999 0.046072 -0.567938
O10   O     O_3   0.035203 0.699999 0.546070 -0.567883
O11   O     O_3   0.535198 0.800000 0.046068 -0.567924
O12   O     O_3   0.535204 0.200000 0.546074 -0.567890
O13   O     O_3   0.066460 0.522600 0.056690 -0.494237
O14   O     O_3   0.066460 0.477400 0.556690 -0.494238
O15   O     O_3   0.566460 0.022600 0.056690 -0.494238
O16   O     O_3   0.566460 0.977400 0.556690 -0.494238
O17   O     O_3   0.933490 0.477290 0.133000 -0.497692
O18   O     O_3   0.933490 0.522710 0.633000 -0.497693
O19   O     O_3   0.433490 0.977290 0.133000 -0.497692
O20   O     O_3   0.433490 0.022710 0.633000 -0.497693
O21   O     O_3   0.980190 0.395350 0.639000 -0.480225
O22   O     O_3   0.980190 0.604650 0.139000 -0.480234
O23   O     O_3   0.480190 0.895350 0.639000 -0.480228
O24   O     O_3   0.480190 0.104650 0.139000 -0.480233
O25   O     O_2   0.883252 0.361505 0.737879 -0.498540
O26   O     O_2   0.883247 0.638491 0.237860 -0.498485
O27   O     O_2   0.383250 0.861507 0.737874 -0.498523
O28   O     O_2   0.383248 0.138492 0.237863 -0.498492
O29   O     O_3   0.815080 0.482183 0.039935 -0.582281
O30   O     O_3   0.815079 0.517818 0.539936 -0.582277
O31   O     O_3   0.315080 0.982182 0.039936 -0.582281
O32   O     O_3   0.315079 0.017818 0.539936 -0.582276
O33   O     O_3   0.956928 0.299316 0.670195 -0.564269
O34   O     O_3   0.956920 0.700684 0.170199 -0.564346
O35   O     O_3   0.456924 0.799315 0.670196 -0.564291
O36   O     O_3   0.456922 0.200684 0.170196 -0.564334
O37   O     O_2   0.113920 0.434910 0.804950 -0.471839
O38   O     O_2   0.113920 0.565090 0.304950 -0.471837
O39   O     O_2   0.613920 0.934910 0.804950 -0.471838
O40   O     O_2   0.613920 0.065090 0.304950 -0.471838
O41   O     O_3   0.019410 0.395290 0.051170 -0.496829
O42   O     O_3   0.019410 0.604710 0.551170 -0.496837
O43   O     O_3   0.519410 0.895290 0.051170 -0.496832
O44   O     O_3   0.519410 0.104710 0.551170 -0.496835
O45   O     O_2   0.110591 0.356192 0.936614 -0.515810
O46   O     O_2   0.110596 0.643805 0.436628 -0.515808
O47   O     O_2   0.610592 0.856193 0.936617 -0.515809
O48   O     O_2   0.610595 0.143806 0.436627 -0.515808
P1    P     P_3+3 0.880180 0.450420 0.058010 1.020548
P2    P     P_3+3 0.880180 0.549580 0.558010 1.020552
P3    P     P_3+3 0.380180 0.950420 0.058010 1.020549
P4    P     P_3+3 0.380180 0.049580 0.558010 1.020552
P5    P     P_3+3 0.119600 0.450040 0.631910 0.973846
P6    P     P_3+3 0.119600 0.549960 0.131910 0.973844
P7    P     P_3+3 0.619600 0.950040 0.631910 0.973845
P8    P     P_3+3 0.619600 0.049960 0.131910 0.973844
P9    P     P_3+3 0.070905 0.352430 0.075877 0.969665
P10   P     P_3+3 0.070907 0.647568 0.575882 0.969672
P11   P     P_3+3 0.570906 0.852431 0.075878 0.969669
P12   P     P_3+3 0.570907 0.147568 0.575882 0.969665
P13   P     P_3+3 0.927981 0.647217 0.114096 0.995174
P14   P     P_3+3 0.927982 0.352782 0.614103 0.995193
P15   P     P_3+3 0.427981 0.147217 0.114097 0.995179
P16   P     P_3+3 0.427982 0.852782 0.614102 0.995187
Cl1   Cl    Cl    0.783921 0.546597 0.844827 -0.755155
Cl2   Cl    Cl    0.783917 0.453404 0.344825 -0.755163
Cl3   Cl    Cl    0.283921 0.046597 0.844827 -0.755143
Cl4   Cl    Cl    0.283918 0.953404 0.344826 -0.755167
Cl5   Cl    Cl    0.029816 0.297849 0.448671 -0.769385
Cl6   Cl    Cl    0.029811 0.702163 0.948676 -0.768997
Cl7   Cl    Cl    0.529815 0.797844 0.448678 -0.769262
Cl8   Cl    Cl    0.529814 0.202159 0.948676 -0.769061
S1    S     S_3+6 0.989001 0.211240 0.172332 0.025821
O49   O     O_2   0.976832 0.205488 0.342834 -0.261440
O50   O     O_2   0.972317 0.167982 0.086562 -0.207001
O51   O     O_3   0.060272 0.219703 0.158374 -0.490506
H105  H     H_    0.079387 0.196309 0.227464 0.361335
S2    S     S_3+6 0.989047 0.788792 0.672012 0.025745
O52   O     O_2   0.972217 0.832037 0.586358 -0.207514
O53   O     O_2   0.977071 0.794536 0.842644 -0.260943
O54   O     O_3   0.060298 0.780380 0.657467 -0.490789
H106  H     H_    0.079443 0.804099 0.725063 0.361214
S3    S     S_3+6 0.489014 0.711233 0.172256 0.025798
O55   O     O_2   0.476884 0.705475 0.342782 -0.261294
O56   O     O_2   0.472304 0.667981 0.086485 -0.207164
O57   O     O_3   0.560281 0.719689 0.158191 -0.490549
H107  H     H_    0.579403 0.696192 0.226834 0.361282
S4    S     S_3+6 0.489042 0.288790 0.672034 0.025758
O58   O     O_2   0.472207 0.332040 0.586414 -0.207432
O59   O     O_2   0.477067 0.294523 0.842671 -0.261016
O60   O     O_3   0.560293 0.280384 0.657470 -0.490776
H108  H     H_    0.579441 0.304050 0.725298 0.361231
Cl9   Cl    Cl    0.908824 0.241272 0.910793 -0.663013
Cl10  Cl    Cl    0.908747 0.758685 0.410854 -0.663181
Cl11  Cl    Cl    0.408799 0.741286 0.910820 -0.663068
Cl12  Cl    Cl    0.408756 0.258689 0.410838 -0.663155

loop_
_geom_bond_atom_site_label_1
_geom_bond_atom_site_label_2
_ccdc_geom_bond_type
C95   C99   A    
C70   H54   S    
C89   S1    S    
C74   C78   A    
O44   P12   S    
S2    O53   D    
O8    P8    S    
O9    P9    S    
C74   H74   S    
C76   H76   S    
C121  O29   S    
C127  H31   S    
C80   C82   A    
C83   C87   A    
S2    O54   S    
C24   C36   A    
C25   C29   A    
C96   C100  A    
C129  O33   S    
O23   P16   S    
C50   C70   A    
C1    H77   S    
O6    P6    S    
C130  Cl6   S    
C93   C101  A    
C47   O11   S    
Ba4   O16   S    
O33   P14   S    
C21   C25   A    
C57   C93   A    
O57   H107  S    
C23   C27   A    
C88   H84   S    
C82   C86   A    
C107  H63   S    
C26   C30   A    
C22   C34   A    
C2    H34   S    
C128  H28   S    
C94   C98   A    
C111  P3    S    
O2    P2    D    
C115  H103  S    
S1    O51   S    
Ba3   O43   S    
C4    H40   S    
C64   C68   A    
C9    C17   A    
Ba3   P7    S    
C64   C112  A    
C131  Cl7   S    
C92   S4    S    
C10   H66   S    
C46   H86   S    
C108  H64   S    
C121  Cl1   S    
C66   H50   S    
C91   S3    S    
Ba1   O14   S    
C85   C97   A    
C61   C109  A    
C87   C99   A    
C113  O6    S    
C53   C57   A    
C115  C119  S    
C103  P16   S    
C55   C59   A    
C94   C102  A    
C106  H62   S    
C56   C60   A    
C41   P6    S    
C43   P8    S    
C15   C31   A    
Ba1   O37   S    
C62   C66   A    
Ba3   O15   S    
C39   H43   S    
C117  H9    S    
C121  H17   S    
C118  H6    S    
O30   P2    S    
C55   C83   A    
O12   P12   S    
C88   C100  A    
O60   H108  S    
O26   P13   D    
C121  C125  S    
O13   P6    S    
C37   C41   A    
Ba1   O1    S    
C6    C134  A    
C45   C89   S    
C71   C75   A    
C40   C44   A    
C47   C91   S    
O17   P1    S    
C56   C84   A    
C1    C129  S    
C26   C50   A    
C60   C64   A    
C85   H81   S    
O32   P4    S    
C97   H57   S    
Ba2   O22   S    
C114  C118  S    
C86   C98   A    
C59   C95   A    
C6    H70   S    
C53   C81   A    
C92   Cl12  S    
C106  C110  A    
O10   P10   S    
C51   C71   A    
C126  H22   S    
C131  H3    S    
C122  O30   S    
C127  H27   S    
O11   P11   S    
C100  H60   S    
C54   C82   A    
C24   C28   A    
C123  C127  S    
C109  P1    S    
C96   C104  A    
C58   C62   A    
C47   H91   S    
S4    O58   D    
C13   C135  A    
S3    O56   D    
C46   C90   S    
C33   P10   S    
C90   S2    S    
O41   P9    S    
C35   P12   S    
C18   H46   S    
C36   P11   S    
O39   P7    D    
C57   C61   A    
C103  C107  A    
C15   C133  A    
C8    C136  A    
C53   C133  A    
C13   C29   A    
O29   P1    S    
C14   C136  A    
O31   P3    S    
C56   C136  A    
O34   P13   S    
C22   C26   A    
C18   C22   A    
C48   O12   S    
C45   H85   S    
Ba3   Ba4   S    
C108  C112  A    
O24   P15   S    
C101  C105  A    
C69   C73   A    
C1    H33   S    
O21   P14   S    
C20   C24   A    
C4    H36   S    
O16   P7    S    
C128  H32   S    
C9    C13   A    
C10   C18   A    
Ba3   P3    S    
C19   H47   S    
C115  H99   S    
C39   C43   A    
C78   C84   A    
Ba4   O40   S    
C46   H90   S    
C33   C37   A    
C122  Cl2   S    
C113  H97   S    
Ba1   O18   S    
C36   C40   A    
Ba2   O13   S    
Ba3   O20   S    
O19   P3    S    
C30   C78   A    
C67   H51   S    
C68   H52   S    
C11   H67   S    
C114  H102  S    
C54   C58   A    
C69   H53   S    
C4    C132  S    
O45   P9    D    
S4    O60   S    
C129  Cl5   S    
C76   C80   A    
O47   P11   D    
Ba1   O41   S    
C73   H73   S    
Ba2   O38   S    
C119  H15   S    
C38   H42   S    
C11   C15   A    
C120  H8    S    
C124  H20   S    
C117  H13   S    
C131  O35   S    
C118  H10   S    
Ba1   P5    S    
C132  O36   S    
C5    C65   A    
C7    C67   A    
C122  C126  S    
O14   P5    S    
C38   C42   A    
C16   C134  A    
S1    O50   D    
C7    C135  A    
C17   C21   A    
C72   H56   S    
C2    H78   S    
C5    C133  A    
C48   H88   S    
O18   P2    S    
C42   P5    S    
C101  P14   S    
C114  H98   S    
O36   P15   S    
S2    O52   D    
C8    C68   A    
C2    H38   S    
C37   H41   S    
Ba3   O3    S    
Ba2   P2    S    
C90   Cl10  S    
Ba1   O13   S    
C119  H11   S    
Ba3   O23   S    
C23   C35   A    
C130  O34   S    
C72   C76   A    
O37   P5    D    
C31   C79   A    
C89   H93   S    
O40   P8    D    
O7    P7    S    
C104  C108  A    
C128  H24   S    
C46   O10   S    
C130  H2    S    
C126  H26   S    
C73   C77   A    
C91   Cl11  S    
C42   C50   A    
C77   C83   A    
C116  H100  S    
C6    C66   A    
C79   C81   A    
C110  P2    S    
Ba4   O15   S    
C47   H87   S    
C9    H65   S    
C87   H83   S    
C28   C32   A    
C112  P4    S    
C34   P9    S    
C81   C85   A    
C62   C110  A    
O42   P10   S    
C90   H94   S    
C114  O5    S    
C17   H45   S    
Ba1   P1    S    
Ba4   O24   S    
C95   C103  A    
C129  H1    S    
C125  H25   S    
C20   H48   S    
C105  H61   S    
Ba2   O2    S    
S3    O55   D    
C132  H4    S    
C75   C79   A    
O35   P16   S    
C126  H30   S    
C61   C65   A    
C125  H21   S    
C63   C67   A    
C45   H89   S    
O54   H106  S    
O25   P14   D    
C16   C32   A    
C60   C96   A    
C70   C74   A    
O20   P4    S    
C27   C51   A    
O22   P13   S    
C28   C52   A    
C71   H55   S    
O5    P5    S    
C52   C72   A    
C10   C14   A    
O28   P15   D    
Ba4   P8    S    
C132  Cl8   S    
Ba4   O44   S    
C125  H29   S    
S4    O59   D    
C86   H82   S    
C98   H58   S    
Ba2   O17   S    
Ba3   O16   S    
O3    P3    D    
O4    P4    D    
Ba1   Ba2   S    
C116  H104  S    
C63   C111  A    
Ba4   O4    S    
C113  C117  S    
C7    H71   S    
C58   C94   A    
C124  O32   S    
C84   C88   A    
C104  P15   S    
O1    P1    D    
C3    H35   S    
C48   C92   S    
O46   P10   D    
C19   C23   A    
C44   P7    S    
C40   H44   S    
C12   C16   A    
Ba2   O42   S    
C21   C33   A    
C75   H75   S    
C120  H12   S    
C12   C20   A    
O43   P11   S    
C89   Cl9   S    
C118  H14   S    
C91   H95   S    
Ba2   P6    S    
C124  C128  S    
C122  H18   S    
C59   C63   A    
O15   P8    S    
C8    H72   S    
C55   C135  A    
C5    H69   S    
C48   H92   S    
C35   C39   A    
C3    C131  S    
C4    H80   S    
C45   O9    S    
C102  P13   S    
C92   H96   S    
C3    H39   S    
C99   H59   S    
O27   P16   D    
C14   C30   A    
C1    H37   S    
Ba2   O14   S    
C119  H7    S    
C120  H16   S    
C117  H5    S    
C123  H19   S    
O38   P6    D    
C43   C51   A    
C102  C106  A    
C44   C52   A    
C49   C69   A    
Ba4   P4    S    
C123  O31   S    
C12   H68   S    
S3    O57   S    
C116  O7    S    
C105  C109  A    
C123  Cl3   S    
C124  Cl4   S    
O51   H105  S    
C3    H79   S    
C2    C130  S    
C115  O8    S    
C54   C134  A    
C25   C49   A    
C32   C80   A    
Ba4   O19   S    
C11   C19   A    
O48   P12   D    
C27   C31   A    
S1    O49   D    
C41   C49   A    
C34   C38   A    
C65   H49   S    
Ba1   O21   S    
Ba3   O39   S    
C127  H23   S    
C107  C111  A    
C29   C77   A    
C93   C97   A    
C116  C120  S    
C113  H101  S    
