data_mof_unit_61541.cif
_audit_creation_date              2012-12-10T17:11:56-0500
_audit_creation_method            fapswitch 2.2
_symmetry_space_group_name_H-M    P1
_symmetry_Int_Tables_number       1
_space_group_crystal_system       triclinic
_cell_length_a                    21.667382
_cell_length_b                    21.694509
_cell_length_c                    22.194886
_cell_angle_alpha                 59.283723
_cell_angle_beta                  118.584377
_cell_angle_gamma                 90.2106
_cell_volume                      7464.97541772

loop_
_atom_site_label
_atom_site_type_symbol
_atom_type_description
_atom_site_fract_x
_atom_site_fract_y
_atom_site_fract_z
_atom_type_partial_charge
C1    C     C_R   0.621514 0.498472 0.503154 0.864950
C2    C     C_R   0.804161 0.291244 0.678189 -0.142023
C3    C     C_R   0.862302 0.288720 0.667853 -0.137421
C4    C     C_R   0.418647 0.582081 0.337462 0.898145
C5    C     C_R   0.865552 0.354848 0.608981 -0.173967
C6    C     C_R   0.810583 0.424963 0.559384 0.099823
C7    C     C_R   0.748812 0.426476 0.565208 0.099779
C8    C     C_R   0.690286 0.495449 0.508828 -0.104482
C9    C     C_R   0.694997 0.562210 0.452442 -0.206200
C10   C     C_R   0.757042 0.561369 0.449663 -0.203442
C11   C     C_R   0.814664 0.493643 0.502705 -0.111866
C12   C     C_3   0.289084 0.712978 0.082083 0.205317
C13   C     C_3   0.708646 0.237826 0.029243 -0.160913
C14   C     C_3   0.713527 0.314409 0.970287 -0.161206
C15   C     C_1   0.626620 0.371529 0.751683 -0.186869
C16   C     C_R   0.378488 0.501525 0.496850 0.864964
C17   C     C_1   0.875684 0.124664 0.248385 -0.188009
C18   C     C_3   0.705248 0.211148 0.975313 -0.162618
C19   C     C_3   0.710910 0.286983 0.917915 0.205110
C20   C     C_3   0.790935 0.178096 0.030006 -0.166461
C21   C     C_3   0.793483 0.205617 0.082284 0.205914
C22   C     C_3   0.795757 0.254771 0.970918 -0.164855
C23   C     C_3   0.195851 0.722555 0.975097 -0.162558
C24   C     C_3   0.799137 0.281434 0.024864 -0.162247
C25   C     C_1   0.664836 0.332892 0.826869 -0.078376
C26   C     C_1   0.838732 0.161127 0.173269 -0.079366
C27   C     C_R   0.252298 0.640634 0.372530 -0.174091
C28   C     C_R   0.581353 0.417919 0.662537 0.898126
C29   C     C_R   0.195834 0.708745 0.321781 -0.142169
C30   C     C_R   0.137695 0.711277 0.332118 -0.137378
C31   C     C_R   0.134450 0.645155 0.391003 -0.173933
C32   C     C_R   0.189418 0.575038 0.440607 0.099816
C33   C     C_R   0.251188 0.573520 0.434783 0.099813
C34   C     C_3   0.206503 0.794291 0.917715 0.205785
C35   C     C_R   0.309716 0.504548 0.491175 -0.104489
C36   C     C_R   0.305008 0.437791 0.547570 -0.206194
C37   C     C_R   0.242962 0.438637 0.550348 -0.203419
C38   C     C_R   0.185338 0.506363 0.497296 -0.111871
C39   C     C_R   0.000063 0.879923 0.500494 0.862986
C40   C     C_3   0.290476 0.755589 0.971091 -0.160889
C41   C     C_R   0.080816 0.918545 0.662551 0.889634
C42   C     C_R   0.999931 0.119952 0.499495 0.862746
C43   C     C_R   0.919184 0.081307 0.337449 0.889592
C44   C     C_R   0.002150 0.621606 0.498142 0.875033
C45   C     C_3   0.205102 0.751682 0.028753 -0.165595
C46   C     C_R   0.879973 0.497434 0.500718 0.878947
C47   C     C_R   0.997864 0.378393 0.501853 0.874824
C48   C     C_R   0.120028 0.502577 0.499281 0.878899
C49   C     C_R   0.968351 0.897582 0.350219 -0.168426
C50   C     C_R   0.957720 0.905018 0.279639 -0.131802
C51   C     C_R   0.963179 0.841740 0.279031 -0.162449
C52   C     C_3   0.299739 0.784734 0.024715 -0.161769
C53   C     C_R   0.978126 0.770987 0.348400 -0.187916
C54   C     C_R   0.987861 0.761601 0.420996 0.109729
C55   C     C_R   0.984575 0.826092 0.421832 0.097160
C56   C     C_3   0.214919 0.824277 0.969697 -0.166455
C57   C     C_R   0.996951 0.817792 0.494228 -0.085502
C58   C     C_R   0.009753 0.748942 0.563540 -0.219376
C59   C     C_R   0.012200 0.685934 0.563249 -0.195961
C60   C     C_R   0.001547 0.690861 0.493368 -0.127500
C61   C     C_R   0.031661 0.102366 0.649762 -0.168496
C62   C     C_R   0.042311 0.094934 0.720347 -0.132318
C63   C     C_R   0.036851 0.158213 0.720952 -0.162447
C64   C     C_1   0.373379 0.628468 0.248314 -0.186868
C65   C     C_R   0.021892 0.228967 0.651578 -0.187922
C66   C     C_R   0.012148 0.238356 0.578980 0.109882
C67   C     C_1   0.335161 0.667094 0.173129 -0.078369
C68   C     C_R   0.015425 0.173853 0.578141 0.097400
C69   C     C_R   0.003032 0.182131 0.505745 -0.085776
C70   C     C_R   0.990213 0.251003 0.436430 -0.219203
C71   C     C_R   0.987775 0.314024 0.436726 -0.195838
C72   C     C_R   0.998458 0.309111 0.506615 -0.127707
C73   C     C_1   0.124313 0.875200 0.751616 -0.188014
C74   C     C_3   0.280601 0.683087 0.030008 -0.161319
C75   C     C_1   0.161259 0.838754 0.826731 -0.079397
C76   C     C_R   0.747699 0.359355 0.627451 -0.174190
H1    H     H_    0.343125 0.809415 0.046669 0.134515
H2    H     H_    0.665959 0.183146 0.953387 0.134521
H3    H     H_    0.350145 0.385059 0.590623 0.158184
H4    H     H_    0.324673 0.757959 0.945863 0.136736
H5    H     H_    0.295963 0.641177 0.361677 0.150050
H6    H     H_    0.197610 0.759814 0.274905 0.134464
H7    H     H_    0.094782 0.764489 0.294095 0.136151
H8    H     H_    0.089544 0.649471 0.398494 0.134360
H9    H     H_    0.239579 0.386080 0.593602 0.160337
H10   H     H_    0.018956 0.743832 0.618649 0.145509
H11   H     H_    0.963249 0.948440 0.347785 0.138913
H12   H     H_    0.905216 0.235509 0.705871 0.136195
H13   H     H_    0.945486 0.960005 0.225407 0.131358
H14   H     H_    0.955634 0.847430 0.224344 0.129304
H15   H     H_    0.981928 0.725534 0.342282 0.160711
H16   H     H_    0.187122 0.882978 0.943246 0.128798
H17   H     H_    0.021746 0.633017 0.618051 0.170559
H18   H     H_    0.980993 0.256120 0.381313 0.145433
H19   H     H_    0.036758 0.051505 0.652199 0.138920
H20   H     H_    0.054556 0.039946 0.774587 0.131668
H21   H     H_    0.044404 0.152523 0.775643 0.129334
H22   H     H_    0.018078 0.274425 0.657686 0.160695
H23   H     H_    0.910465 0.350535 0.601496 0.134398
H24   H     H_    0.978214 0.366946 0.381919 0.170472
H25   H     H_    0.170955 0.749278 0.054044 0.132747
H26   H     H_    0.152473 0.697858 0.953158 0.134485
H27   H     H_    0.308330 0.624426 0.056302 0.136834
H28   H     H_    0.649862 0.614943 0.409397 0.158160
H29   H     H_    0.704034 0.358805 0.638304 0.150091
H30   H     H_    0.802382 0.240171 0.725055 0.134624
H31   H     H_    0.760426 0.613929 0.406416 0.160325
H32   H     H_    0.680991 0.371069 0.944235 0.136831
H33   H     H_    0.673737 0.230101 0.054746 0.136754
H34   H     H_    0.838415 0.309456 0.046768 0.134367
H35   H     H_    0.830623 0.262522 0.945360 0.133197
H36   H     H_    0.823527 0.121390 0.056216 0.128131
O1    O     O_R   0.591660 0.448290 0.500000 -0.623161
O2    O     O_R   0.034730 0.556800 0.569600 -0.617260
O3    O     O_R   0.873600 0.534810 0.430420 -0.616204
O4    O     O_R   0.591590 0.551700 0.500020 -0.619592
O5    O     O_R   0.943150 0.465220 0.569550 -0.629293
O6    O     O_R   0.965270 0.443220 0.430400 -0.617148
O7    O     O_R   0.034830 0.373630 0.569530 -0.642440
O8    O     O_R   0.056850 0.534790 0.430450 -0.629291
O9    O     O_R   0.126400 0.465210 0.569580 -0.616226
O10   O     O_R   0.438430 0.509910 0.376770 -0.609902
O11   O     O_R   0.438360 0.613320 0.376790 -0.627706
O12   O     O_R   0.948250 0.908380 0.499990 -0.617732
O13   O     O_R   0.408410 0.448300 0.499980 -0.619584
O14   O     O_R   0.408340 0.551710 0.500000 -0.623175
O15   O     O_R   0.561640 0.386680 0.623210 -0.627729
O16   O     O_R   0.561570 0.490090 0.623230 -0.609890
O17   O     O_R   0.051700 0.908270 0.500000 -0.620904
O18   O     O_R   0.113330 0.938270 0.623230 -0.611330
O19   O     O_R   0.009880 0.938380 0.623210 -0.623970
O20   O     O_R   0.051750 0.091470 0.500010 -0.617619
O21   O     O_R   0.948300 0.091580 0.500000 -0.620785
O22   O     O_R   0.990120 0.061470 0.376790 -0.623968
O23   O     O_R   0.886670 0.061580 0.376770 -0.611349
O24   O     O_R   0.965170 0.626380 0.430470 -0.642499
Zn1   Zn    Zn3+2 0.500040 0.430950 0.499990 0.956958
Zn2   Zn    Zn3+2 0.499960 0.569050 0.500010 0.956985
Zn3   Zn    Zn3+2 0.069070 0.999850 0.500010 0.961686
Zn4   Zn    Zn3+2 0.930930 0.000000 0.499990 0.961664
Zn5   Zn    Zn3+2 0.953560 0.546470 0.407100 0.943450
Zn6   Zn    Zn3+2 0.046440 0.453550 0.592900 0.943438

loop_
_geom_bond_atom_site_label_1
_geom_bond_atom_site_label_2
_ccdc_geom_bond_type
C44   O24   A    
C66   C68   A    
C21   C26   S    
C63   C65   A    
C34   C56   S    
C76   H29   S    
C23   C45   S    
C62   H20   S    
C27   C29   A    
C1    C8    S    
C49   H11   S    
C35   C36   A    
O6    Zn5   S    
O3    Zn5   S    
C15   C28   S    
C7    C8    A    
C48   O8    A    
C54   C60   A    
C53   C54   A    
C27   C33   A    
O20   Zn3   S    
O11   Zn2   S    
C37   C38   A    
C13   C18   S    
C42   O21   A    
C34   C40   S    
C17   C26   T    
O2    Zn6   S    
C22   C24   S    
C37   H9    S    
C36   C37   A    
C70   H18   S    
C65   H22   S    
C12   C74   S    
C51   H14   S    
C41   O18   A    
C15   C25   T    
C23   H26   S    
C39   C57   S    
C18   C19   S    
C14   C24   S    
C30   H7    S    
O16   Zn2   S    
C13   H33   S    
O19   Zn4   S    
C20   H36   S    
C47   O6    A    
C66   C72   A    
C5    H23   S    
C45   C56   S    
C68   C69   A    
C53   H15   S    
C40   H4    S    
C70   C71   A    
C1    O4    A    
C32   C38   A    
C29   C30   A    
C9    C10   A    
C38   C48   S    
C28   O15   A    
C34   C75   S    
C47   O7    A    
C44   O2    A    
C59   C60   A    
C13   C14   S    
C73   C75   T    
C10   H31   S    
C61   C62   A    
C1    O1    A    
O18   Zn3   S    
C58   H10   S    
C12   C52   S    
O4    Zn2   S    
O23   Zn4   S    
C12   C67   S    
C4    O10   A    
C64   C67   T    
C27   H5    S    
C19   C22   S    
C24   H34   S    
C6    C11   A    
C41   O19   A    
C14   C19   S    
C8    C9    A    
C39   O17   A    
O13   Zn1   S    
C58   C59   A    
C49   C55   A    
C2    H30   S    
C42   C69   S    
C39   O12   A    
C46   O5    A    
C51   C53   A    
C43   O22   A    
C17   C43   S    
C62   C63   A    
C50   H13   S    
C31   C32   A    
O17   Zn3   S    
C30   C31   A    
C18   H2    S    
C23   C34   S    
C50   C51   A    
C13   C21   S    
C43   O23   A    
C6    C7    A    
C45   H25   S    
C46   O3    A    
C20   C22   S    
C65   C66   A    
C55   C57   A    
O1    Zn1   S    
C23   C74   S    
C52   H1    S    
C48   O9    A    
O22   Zn3   S    
C2    C76   A    
C16   O13   A    
C54   C55   A    
O14   Zn2   S    
C3    H12   S    
O9    Zn6   S    
O12   Zn4   S    
O8    Zn5   S    
O10   Zn1   S    
C12   C45   S    
C3    C5    A    
C36   H3    S    
C61   H19   S    
C7    C76   A    
C59   H17   S    
C71   H24   S    
C4    C64   S    
C22   H35   S    
C32   C33   A    
C2    C3    A    
C29   H6    S    
C16   C35   S    
C40   C52   S    
C61   C68   A    
C57   C58   A    
C5    C6    A    
C44   C60   S    
C9    H28   S    
C14   H32   S    
C33   C35   A    
O24   Zn5   S    
C40   C74   S    
O5    Zn6   S    
C18   C20   S    
C69   C70   A    
C19   C25   S    
C47   C72   S    
C10   C11   A    
C31   H8    S    
C41   C73   S    
C52   C56   S    
C56   H16   S    
C71   C72   A    
C20   C21   S    
C4    O11   A    
O21   Zn4   S    
C63   H21   S    
C49   C50   A    
C21   C24   S    
O7    Zn6   S    
C11   C46   S    
C42   O20   A    
O15   Zn1   S    
C16   O14   A    
C28   O16   A    
C74   H27   S    
