data_mof_unit_45889.cif
_audit_creation_date              2012-12-10T19:47:24-0500
_audit_creation_method            fapswitch 2.2
_symmetry_space_group_name_H-M    P1
_symmetry_Int_Tables_number       1
_space_group_crystal_system       triclinic
_cell_length_a                    15.002142
_cell_length_b                    14.151558
_cell_length_c                    10.6373
_cell_angle_alpha                 89.946312
_cell_angle_beta                  89.985233
_cell_angle_gamma                 89.923789
_cell_volume                      2258.33489981

loop_
_atom_site_label
_atom_site_type_symbol
_atom_type_description
_atom_site_fract_x
_atom_site_fract_y
_atom_site_fract_z
_atom_type_partial_charge
C1    C     C_R   0.327700 0.500041 0.500559 0.866450
C2    C     C_R   0.951732 0.499394 0.510892 0.109571
C3    C     C_R   0.429512 0.104591 0.556605 0.406252
C4    C     C_R   0.570771 0.104480 0.444054 0.405473
C5    C     C_R   0.432844 0.204848 0.558025 -0.110580
C6    C     C_R   0.567279 0.204736 0.442254 -0.107483
C7    C     C_R   0.500175 0.053823 0.500394 -0.111726
C8    C     C_R   0.564202 0.894741 0.570404 -0.148114
C9    C     C_R   0.436019 0.895246 0.430086 -0.150499
C10   C     C_R   0.562952 0.795021 0.566715 -0.017708
C11   C     C_R   0.437110 0.795515 0.433472 -0.015864
C12   C     C_R   0.672235 0.499949 0.500513 0.832607
C13   C     C_R   0.500146 0.946913 0.500310 0.070598
C14   C     C_R   0.502748 0.500042 0.260303 0.870341
C15   C     C_R   0.502637 0.499976 0.739682 0.874219
C16   C     C_R   0.651511 0.588277 0.130690 -0.176686
C17   C     C_R   0.651304 0.588398 0.868582 -0.183359
C18   C     C_R   0.720925 0.631262 0.064857 -0.114967
C19   C     C_R   0.720801 0.631356 0.934028 -0.120496
C20   C     C_R   0.579807 0.545424 0.933916 0.100622
C21   C     C_R   0.579867 0.545432 0.065708 0.092016
C22   C     C_R   0.508945 0.499826 0.128153 -0.101493
C23   C     C_R   0.231897 0.500088 0.503834 -0.032328
C24   C     C_R   0.508917 0.499678 0.871780 -0.094621
C25   C     C_R   0.442024 0.451882 0.064286 -0.190886
C26   C     C_R   0.442029 0.451773 0.935899 -0.194104
C27   C     C_R   0.093155 0.580533 0.468264 -0.165266
C28   C     C_R   0.904904 0.577696 0.556692 -0.167645
C29   C     C_R   0.185146 0.580671 0.465374 -0.175980
C30   C     C_R   0.812944 0.578169 0.552434 -0.195321
C31   C     C_2   0.632956 0.941516 0.649114 0.951006
C32   C     C_2   0.367316 0.942612 0.351598 0.952268
C33   C     C_3   0.277782 0.091594 0.592991 -0.241626
C34   C     C_R   0.767896 0.499821 0.503790 -0.023453
C35   C     C_3   0.722538 0.091024 0.408383 -0.241645
C36   C     C_R   0.186726 0.419760 0.546550 -0.190907
C37   C     C_R   0.814589 0.421006 0.459493 -0.184729
C38   C     C_R   0.094760 0.420053 0.550754 -0.171002
C39   C     C_R   0.906566 0.421041 0.462345 -0.170704
C40   C     C_R   0.047963 0.500226 0.510915 0.107624
H1    H     H_    0.388665 0.416271 0.114191 0.159214
H2    H     H_    0.939457 0.638032 0.595919 0.143837
H3    H     H_    0.219541 0.642967 0.431440 0.166472
H4    H     H_    0.777167 0.638987 0.588398 0.157617
H5    H     H_    0.222375 0.357384 0.577859 0.142754
H6    H     H_    0.780130 0.360305 0.421024 0.143335
H7    H     H_    0.060179 0.358091 0.585343 0.135449
H8    H     H_    0.942421 0.360774 0.425006 0.135455
H9    H     H_    0.382106 0.245307 0.606018 0.142871
H10   H     H_    0.618015 0.245100 0.394224 0.145689
H11   H     H_    0.544892 0.023877 0.742576 0.321726
H12   H     H_    0.388674 0.416092 0.886187 0.151645
H13   H     H_    0.455559 0.024487 0.257905 0.321483
H14   H     H_    0.269731 0.112921 0.492725 0.173782
H15   H     H_    0.263043 0.151765 0.656665 0.144204
H16   H     H_    0.227536 0.036008 0.612285 0.209977
H17   H     H_    0.730353 0.111989 0.508761 0.175066
H18   H     H_    0.737472 0.151359 0.344996 0.146513
H19   H     H_    0.772799 0.035327 0.389147 0.208661
H20   H     H_    0.611608 0.754803 0.619686 0.140436
H21   H     H_    0.388347 0.755696 0.380481 0.146492
H22   H     H_    0.655433 0.587771 0.232157 0.151721
H23   H     H_    0.655059 0.588006 0.767127 0.139121
H24   H     H_    0.775414 0.663751 0.115534 0.148023
H25   H     H_    0.775169 0.663919 0.883034 0.147302
H26   H     H_    0.057305 0.642323 0.435470 0.144754
N1    N     N_R   0.500000 0.252470 0.500000 -0.126427
N2    N     N_R   0.500000 0.747550 0.500000 -0.103131
O1    O     O_R   0.369060 0.579480 0.500010 -0.619099
O2    O     O_R   0.611398 0.014590 0.732149 -0.765385
O3    O     O_2   0.290042 0.916003 0.357449 -0.586610
O4    O     O_R   0.389031 0.015626 0.268463 -0.767292
O5    O     O_3   0.363172 0.054067 0.618393 -0.601498
O6    O     O_3   0.637193 0.053879 0.382431 -0.602347
O7    O     O_R   0.630940 0.579480 0.499990 -0.639167
O8    O     O_R   0.369050 0.420520 0.500010 -0.627253
O9    O     O_R   0.630950 0.420520 0.499990 -0.620783
O10   O     O_R   0.500000 0.579490 0.316770 -0.619098
O11   O     O_R   0.500000 0.579490 0.683230 -0.617490
O12   O     O_R   0.499990 0.420540 0.316770 -0.606073
O13   O     O_R   0.500010 0.420540 0.683230 -0.605985
O14   O     O_2   0.710123 0.914310 0.643601 -0.591403
Zn1   Zn    Zn3+2 0.500000 0.606140 0.500000 0.957227
Zn2   Zn    Zn3+2 0.500000 0.393860 0.500000 0.958365

loop_
_geom_bond_atom_site_label_1
_geom_bond_atom_site_label_2
_ccdc_geom_bond_type
C33   H15   S    
C38   C40   A    
C35   O6    S    
C16   C21   A    
C27   C29   A    
C34   C37   A    
C5    N1    A    
C5    H9    S    
O8    Zn2   S    
C15   O13   A    
C8    C13   A    
C31   O14   D    
C35   H18   S    
C23   C29   A    
C8    C31   S    
C24   C26   A    
C3    C7    A    
C17   C20   A    
C35   H19   S    
C18   C19   A    
C9    C13   A    
C9    C32   S    
O10   Zn1   S    
O7    Zn1   S    
C31   O2    S    
C15   O11   A    
C20   C24   A    
C22   C25   A    
H11   O2    S    
C14   O12   A    
C4    O6    S    
O12   Zn2   S    
C33   H16   S    
N1    Zn2   S    
C21   C22   A    
C29   H3    S    
N2    Zn1   S    
C30   H4    S    
C16   H22   S    
C4    C7    A    
C2    C39   A    
C32   O3    D    
C30   C34   A    
C4    C6    A    
C25   H1    S    
O9    Zn2   S    
C3    C5    A    
C25   C26   A    
C1    O1    A    
C10   H20   S    
O1    Zn1   S    
C26   H12   S    
C27   C40   A    
C12   O9    A    
C36   H5    S    
C16   C18   A    
C6    H10   S    
C9    C11   A    
C38   H7    S    
C33   O5    S    
C15   C24   S    
C1    C23   S    
C12   C34   S    
O13   Zn2   S    
C11   N2    A    
C33   H14   S    
C6    N1    A    
C1    O8    A    
C11   H21   S    
C10   N2    A    
C35   H17   S    
C14   C22   S    
C36   C38   A    
C28   C30   A    
C37   C39   A    
C27   H26   S    
C17   H23   S    
O11   Zn1   S    
C18   H24   S    
C28   H2    S    
C17   C19   A    
C19   H25   S    
C14   O10   A    
C3    O5    S    
C2    C40   S    
C7    C13   S    
C20   C21   A    
C8    C10   A    
C23   C36   A    
C12   O7    A    
C2    C28   A    
C37   H6    S    
H13   O4    S    
C39   H8    S    
C32   O4    S    
