data_mof_unit_67299.cif
_audit_creation_date              2012-12-11T18:22:17-0500
_audit_creation_method            fapswitch 2.2
_symmetry_space_group_name_H-M    P1
_symmetry_Int_Tables_number       1
_space_group_crystal_system       triclinic
_cell_length_a                    8.312832
_cell_length_b                    14.358351
_cell_length_c                    15.118336
_cell_angle_alpha                 96.390978
_cell_angle_beta                  95.988223
_cell_angle_gamma                 92.950916
_cell_volume                      1779.86570789

loop_
_atom_site_label
_atom_site_type_symbol
_atom_type_description
_atom_site_fract_x
_atom_site_fract_y
_atom_site_fract_z
_atom_type_partial_charge
Ba1   Ba    Ba6+2 0.833400 0.543310 0.453520 1.696986
Ba2   Ba    Ba6+2 0.356420 0.456770 0.546480 1.678944
C1    C     C_3   0.511074 0.879393 0.198104 -0.100216
C2    C     C_R   0.901146 0.452463 0.922244 -0.031991
C3    C     C_R   0.038809 0.460179 0.106070 0.002472
C4    C     C_3   0.012026 0.736807 0.203588 0.427275
C5    C     C_R   0.889572 0.408687 0.072295 0.145898
C6    C     C_R   0.821012 0.410170 0.984364 -0.088980
C7    C     C_R   0.104469 0.471401 0.199259 0.018103
C8    C     C_R   0.248655 0.527796 0.223999 -0.255840
C9    C     C_R   0.072412 0.530134 0.793814 0.041248
C10   C     C_R   0.137704 0.540966 0.885942 -0.063535
C11   C     C_R   0.055310 0.498980 0.950307 0.005625
C12   C     C_3   0.515544 0.787662 0.239847 0.347006
C13   C     C_R   0.284501 0.591105 0.914694 -0.026039
C14   C     C_R   0.363126 0.590942 0.000634 0.136384
C15   C     C_R   0.282757 0.552366 0.069101 -0.046804
C16   C     C_3   0.988439 0.763097 0.108245 -0.081576
C17   C     C_R   0.125077 0.504948 0.042496 -0.027540
C18   C     C_R   0.346227 0.560694 0.162030 0.026563
C19   C     C_R   0.921850 0.482895 0.769039 -0.282222
C20   C     C_R   0.705656 0.940001 0.560455 -0.005626
C21   C     C_R   0.512770 0.801518 0.504308 0.048494
C22   C     C_R   0.361993 0.767869 0.457994 -0.313400
C23   C     C_3   0.495921 0.211803 0.273100 0.427748
C24   C     C_R   0.251738 0.829793 0.425834 0.016929
C25   C     C_R   0.295593 0.925244 0.433451 -0.121049
C26   C     C_R   0.448334 0.960426 0.475313 -0.009498
C27   C     C_R   0.557159 0.899825 0.514158 -0.013867
C28   C     C_3   0.215396 0.746014 0.648923 0.307125
C29   C     C_R   0.639372 0.096478 0.523271 -0.027120
C30   C     C_R   0.748558 0.036813 0.563563 0.003883
C31   C     C_R   0.684757 0.193707 0.524671 0.030744
C32   C     C_R   0.841448 0.227661 0.560167 -0.096482
C33   C     C_R   0.950746 0.167889 0.597573 0.063839
C34   C     C_3   0.565116 0.158637 0.193514 -0.070737
C35   C     C_R   0.903521 0.073661 0.601488 -0.149861
C36   C     C_R   0.491239 0.056195 0.478560 -0.026894
C37   C     C_3   0.228463 0.852201 0.672484 0.002773
C38   C     C_3   0.028280 0.222825 0.282449 0.526740
C39   C     C_3   0.085874 0.200969 0.189441 -0.064908
C40   C     C_3   0.750302 0.676918 0.717783 0.310362
C41   C     C_3   0.818998 0.718954 0.811861 -0.351209
C42   C     C_3   0.140078 0.264134 0.803280 0.379182
C43   C     C_3   0.133103 0.226998 0.892902 0.006857
C44   C     C_3   0.624384 0.215629 0.763451 0.303928
C45   C     C_3   0.601306 0.122388 0.800002 -0.266331
C46   C     C_R   0.832667 0.446757 0.831701 0.007442
H1    H     H_    0.575194 0.801791 0.309736 0.050197
H2    H     H_    0.868099 0.664001 0.850933 0.071192
H3    H     H_    0.722287 0.752204 0.847182 0.186587
H4    H     H_    0.388644 0.759942 0.240725 -0.030801
H5    H     H_    0.393298 0.168211 0.287934 -0.018415
H6    H     H_    0.591148 0.087179 0.208906 0.116392
H7    H     H_    0.680503 0.194877 0.183338 0.187187
H8    H     H_    0.477149 0.863630 0.124604 0.152909
H9    H     H_    0.207167 0.334178 0.813986 0.037667
H10   H     H_    0.013750 0.272812 0.775217 -0.098065
H11   H     H_    0.257344 0.232230 0.928075 0.146761
H12   H     H_    0.260457 0.887373 0.614595 0.005913
H13   H     H_    0.055368 0.270210 0.934290 0.010535
H14   H     H_    0.754084 0.227186 0.754486 -0.042863
H15   H     H_    0.549969 0.211776 0.697631 0.083105
H16   H     H_    0.645120 0.065730 0.754146 0.101400
H17   H     H_    0.471004 0.107067 0.805985 0.199188
H18   H     H_    0.912505 0.684900 0.211014 0.085374
H19   H     H_    0.670121 0.125063 0.867321 0.169074
H20   H     H_    0.703883 0.373528 0.965031 0.123426
H21   H     H_    0.345050 0.628575 0.868502 0.149679
H22   H     H_    0.294923 0.539049 0.294247 0.072975
H23   H     H_    0.110407 0.876385 0.691141 0.090071
H24   H     H_    0.869179 0.479076 0.700403 0.048585
H25   H     H_    0.326521 0.693599 0.451281 0.063915
H26   H     H_    0.210151 0.972162 0.406384 0.111454
H27   H     H_    0.989932 0.028538 0.630549 0.090893
H28   H     H_    0.128833 0.703586 0.213728 -0.094105
H29   H     H_    0.791221 0.896781 0.592516 0.094699
H30   H     H_    0.407018 0.098279 0.444446 0.081979
H31   H     H_    0.972376 0.697923 0.060112 0.067353
H32   H     H_    0.877282 0.802584 0.099753 0.160639
H33   H     H_    0.330284 0.722806 0.626125 0.008406
H34   H     H_    0.179095 0.149084 0.193258 0.104541
H35   H     H_    0.114077 0.727221 0.594863 0.010236
H36   H     H_    0.111436 0.267753 0.409531 0.210237
H37   H     H_    0.201720 0.177519 0.365765 0.151633
H38   H     H_    0.985684 0.173188 0.059745 0.223098
H39   H     H_    0.945103 0.087937 0.122052 0.239779
H40   H     H_    0.347114 0.980765 0.190055 0.232188
H41   H     H_    0.452072 0.982479 0.291282 0.173129
H42   H     H_    0.222566 0.776432 0.080851 0.174274
H43   H     H_    0.098459 0.845533 0.028071 0.222157
H44   H     H_    0.780012 0.285542 0.087306 0.191525
H45   H     H_    0.138412 0.266096 0.167824 0.086323
H46   H     H_    0.689019 0.378341 0.126693 0.233047
H47   H     H_    0.898902 0.329741 0.482946 0.198307
H48   H     H_    0.824499 0.368963 0.581962 0.185079
H49   H     H_    0.851863 0.653155 0.680814 0.009636
H50   H     H_    0.664224 0.616233 0.722086 0.060001
H51   H     H_    0.633636 0.916537 0.208951 0.132151
H52   H     H_    0.917377 0.773321 0.808383 0.147432
I1    I     I_    0.409530 0.891626 0.783454 -0.388389
I2    I     I_    0.903062 0.095806 0.315520 -0.529969
I3    I     I_    0.453643 0.348955 0.244179 -0.455405
I4    I     I_    0.420508 0.139032 0.067463 -0.515651
I5    I     I_    0.037947 0.083310 0.874501 -0.441842
I6    I     I_    0.607755 0.641399 0.998617 -0.496937
N1    N     N_3   0.160692 0.242201 0.351356 -0.486568
N2    N     N_3   0.953814 0.160950 0.122618 -0.483003
N3    N     N_3   0.392105 0.937951 0.237222 -0.500714
N4    N     N_3   0.127938 0.820605 0.089754 -0.454014
N5    N     N_3   0.802655 0.351478 0.124241 -0.434029
N6    N     N_3   0.896791 0.321518 0.550562 -0.464284
O1    O     O_2   0.841230 0.444160 0.280430 -0.379354
O2    O     O_2   0.285756 0.169604 0.581846 -0.505286
O3    O     O_3   0.221656 0.201592 0.747963 -0.573111
O4    O     O_3   0.112860 0.447350 0.393710 -0.488034
O5    O     O_3   0.560610 0.613730 0.540770 -0.483084
O6    O     O_2   0.387460 0.270290 0.467210 -0.473048
O7    O     O_3   0.617074 0.218571 0.344132 -0.601112
O8    O     O_2   0.497259 0.458990 0.825018 -0.456407
O9    O     O_3   0.574269 0.286655 0.823939 -0.586689
O10   O     O_3   0.597940 0.615700 0.327690 -0.468801
O11   O     O_2   0.688728 0.552185 0.174168 -0.451515
O12   O     O_3   0.668485 0.746338 0.677003 -0.610213
O13   O     O_3   0.928110 0.298885 0.285582 -0.545433
O14   O     O_3   0.604306 0.724921 0.189306 -0.596560
O15   O     O_2   0.802240 0.729740 0.532850 -0.481686
O16   O     O_3   0.017180 0.664790 0.371080 -0.506676
O17   O     O_2   0.915869 0.832185 0.425380 -0.472923
O18   O     O_3   0.007637 0.817173 0.265370 -0.563622
O19   O     O_2   0.348480 0.555870 0.719620 -0.455918
O20   O     O_3   0.076830 0.552730 0.606300 -0.507186
O21   O     O_3   0.591760 0.384380 0.672320 -0.511798
O22   O     O_3   0.187033 0.705556 0.726025 -0.625976
O23   O     O_3   0.629090 0.386350 0.459240 -0.429994
O24   O     O_3   0.172520 0.335290 0.628920 -0.448851
P1    P     P_3+3 0.018600 0.416790 0.295970 1.038326
P2    P     P_3+3 0.635660 0.716530 0.560900 0.990810
P3    P     P_3+3 0.048396 0.786101 0.374087 0.978013
P4    P     P_3+3 0.171090 0.583290 0.704030 0.979086
P5    P     P_3+3 0.158673 0.215395 0.636963 1.005896
P6    P     P_3+3 0.554982 0.610686 0.211924 0.995868
P7    P     P_3+3 0.571267 0.266688 0.449915 1.016857
P8    P     P_3+3 0.625592 0.395335 0.789109 0.960317

loop_
_geom_bond_atom_site_label_1
_geom_bond_atom_site_label_2
_ccdc_geom_bond_type
O3    P5    S    
C20   C27   A    
O7    P7    S    
C21   P2    S    
O5    P2    S    
O8    P8    D    
Ba1   O16   S    
C2    C6    A    
Ba1   O20   S    
C15   C18   A    
Ba2   O6    S    
C40   O12   S    
C5    C6    A    
C31   P7    S    
H48   N6    S    
C24   C25   A    
C20   C30   A    
C44   H14   S    
C21   C27   A    
H43   N4    S    
O12   P2    S    
C26   C27   A    
C33   C35   A    
O16   P3    S    
C23   H5    S    
C32   C33   A    
H47   N6    S    
C40   H50   S    
O22   P4    S    
C22   H25   S    
C12   H1    S    
C38   O13   S    
C13   C14   A    
H41   N3    S    
H46   N5    S    
C2    C11   A    
H36   N1    S    
C32   N6    S    
C46   P8    S    
Ba1   Ba2   S    
C39   N2    S    
C28   H35   S    
Ba1   O10   S    
C16   N4    S    
O19   P4    D    
Ba2   O4    S    
C12   H4    S    
H39   N2    S    
C42   O3    S    
C42   H10   S    
C14   C15   A    
C28   O22   S    
Ba2   O20   S    
C21   C22   A    
C29   C31   A    
C44   O9    S    
O15   P2    D    
C25   H26   S    
C7    C8    A    
C4    O18   S    
C19   C46   A    
O23   P7    S    
C35   H27   S    
O9    P8    S    
Ba1   O1    S    
C13   H21   S    
O18   P3    S    
C23   O7    S    
C45   H19   S    
Ba2   O5    S    
C43   I5    S    
C37   I1    S    
C4    C16   S    
C39   H45   S    
Ba2   O21   S    
Ba2   O19   S    
C11   C17   A    
C19   H24   S    
C5    N5    S    
O2    P5    D    
C18   P6    S    
C41   H52   S    
C24   P3    S    
C40   H49   S    
C8    C18   A    
C45   H16   S    
C3    C5    A    
C16   H31   S    
C36   H30   S    
O13   P1    S    
O14   P6    S    
Ba2   O24   S    
C9    P4    S    
C3    C7    A    
O24   P5    S    
C1    H8    S    
C29   C30   A    
O17   P3    D    
C10   C13   A    
C26   C36   A    
C42   H9    S    
C31   C32   A    
H44   N5    S    
Ba1   O5    S    
C30   C35   A    
C4    H28   S    
C1    C12   S    
C33   P5    S    
C38   N1    S    
H40   N3    S    
C8    H22   S    
C38   C39   S    
Ba1   O4    S    
O6    P7    D    
O1    P1    D    
C40   C41   S    
H42   N4    S    
Ba1   P1    S    
C42   C43   S    
O4    P1    S    
C2    C46   A    
C44   C45   S    
C43   H11   S    
O21   P8    S    
C39   H34   S    
H38   N2    S    
Ba1   O15   S    
C20   H29   S    
C22   C24   A    
C9    C10   A    
C41   H2    S    
C6    H20   S    
C3    C17   A    
C14   I6    S    
O20   P4    S    
Ba2   O23   S    
C12   O14   S    
C29   C36   A    
C44   H15   S    
C34   I4    S    
Ba2   P4    S    
C28   H33   S    
C7    P1    S    
C34   H7    S    
H37   N1    S    
O10   P6    S    
C41   H3    S    
C1    N3    S    
C37   H12   S    
O11   P6    D    
C43   H13   S    
C15   C17   A    
C9    C19   A    
C28   C37   S    
C23   I3    S    
C34   H6    S    
C23   C34   S    
C38   I2    S    
C1    H51   S    
C4    H18   S    
C10   C11   A    
C16   H32   S    
C25   C26   A    
C37   H23   S    
Ba1   O23   S    
C45   H17   S    
Ba1   P2    S    
