data_mof_unit_49685.cif
_audit_creation_date              2012-12-10T16:59:22-0500
_audit_creation_method            fapswitch 2.2
_symmetry_space_group_name_H-M    P1
_symmetry_Int_Tables_number       1
_space_group_crystal_system       triclinic
_cell_length_a                    7.730151
_cell_length_b                    8.557795
_cell_length_c                    27.706262
_cell_angle_alpha                 90.908285
_cell_angle_beta                  86.197552
_cell_angle_gamma                 93.67328
_cell_volume                      1824.93785905

loop_
_atom_site_label
_atom_site_type_symbol
_atom_type_description
_atom_site_fract_x
_atom_site_fract_y
_atom_site_fract_z
_atom_type_partial_charge
C1    C     C_R   0.545924 0.794879 0.498732 0.971237
C2    C     C_R   0.496514 0.651065 0.127436 -0.023714
C3    C     C_R   0.510834 0.494931 0.646809 -0.040141
C4    C     C_R   0.489145 0.505027 0.353187 -0.040170
C5    C     C_R   0.529994 0.644898 0.025169 0.047732
C6    C     C_R   0.469857 0.355044 0.974831 0.047736
C7    C     C_R   0.449032 0.360216 0.026050 0.047634
C8    C     C_R   0.550805 0.639729 0.973951 0.047637
C9    C     C_R   0.480759 0.504837 0.050880 0.072336
C10   C     C_R   0.519092 0.495105 0.949121 0.072332
C11   C     C_R   0.555745 0.786089 0.051862 -0.225778
C12   C     C_R   0.454076 0.205121 0.501268 0.971248
C13   C     C_R   0.444131 0.213849 0.948139 -0.225784
C14   C     C_R   0.539866 0.788597 0.101944 -0.141178
C15   C     C_R   0.460036 0.211336 0.898057 -0.141185
C16   C     C_R   0.502673 0.498771 0.594059 0.887307
C17   C     C_R   0.497322 0.501215 0.405939 0.887289
C18   C     C_R   0.603695 0.774541 0.946405 -0.227037
C19   C     C_R   0.396120 0.225407 0.053595 -0.227038
C20   C     C_2   0.570243 0.958305 0.497993 -0.370229
C21   C     C_2   0.429757 0.041695 0.502007 -0.370233
C22   C     C_R   0.589695 0.622994 0.821152 0.508639
C23   C     C_R   0.535714 0.490683 0.897857 -0.049853
C24   C     C_R   0.410179 0.376943 0.178848 0.508638
C25   C     C_R   0.512179 0.348624 0.821998 0.508255
C26   C     C_R   0.487760 0.651301 0.178003 0.508294
C27   C     C_R   0.374937 0.476104 0.728089 -0.155647
C28   C     C_R   0.625024 0.523360 0.271895 -0.155704
C29   C     C_R   0.359040 0.480421 0.678292 0.082721
C30   C     C_R   0.640941 0.519062 0.321692 0.082819
C31   C     C_R   0.675072 0.504220 0.666195 -0.262393
C32   C     C_R   0.324900 0.496173 0.333809 -0.262407
C33   C     C_R   0.688824 0.499883 0.715831 -0.097993
C34   C     C_R   0.464153 0.509256 0.102144 -0.049851
C35   C     C_R   0.311131 0.500489 0.284173 -0.098063
C36   C     C_R   0.538855 0.485807 0.746651 0.308144
C37   C     C_R   0.461098 0.514106 0.253346 0.308299
C38   C     C_R   0.582770 0.628412 0.871701 -0.022585
C39   C     C_R   0.417085 0.371529 0.128300 -0.022597
C40   C     C_R   0.618434 0.768746 0.896335 -0.140887
C41   C     C_R   0.381389 0.231201 0.103665 -0.140893
C42   C     C_R   0.503387 0.348869 0.872565 -0.023696
H1    H     H_    0.793542 0.515683 0.643016 0.172350
H2    H     H_    0.259516 0.465811 0.752546 0.136942
H3    H     H_    0.563462 0.899321 0.120644 0.193551
H4    H     H_    0.436461 0.100610 0.879358 0.193548
H5    H     H_    0.588771 0.897981 0.035462 0.139796
H6    H     H_    0.411115 0.101957 0.964540 0.139792
H7    H     H_    0.635508 0.887555 0.962108 0.142082
H8    H     H_    0.364280 0.112400 0.037892 0.142092
H9    H     H_    0.702886 0.009438 0.494160 0.180947
H10   H     H_    0.297114 0.990562 0.505840 0.180945
H11   H     H_    0.875031 0.634862 0.327500 0.192483
H12   H     H_    0.206431 0.485084 0.356997 0.172447
H13   H     H_    0.879405 0.437647 0.324917 0.183159
H14   H     H_    0.125354 0.363916 0.672426 0.192658
H15   H     H_    0.120176 0.561052 0.675078 0.182985
H16   H     H_    0.014251 0.383426 0.463383 0.192787
H17   H     H_    0.985748 0.616574 0.536617 0.192764
H18   H     H_    0.815721 0.507809 0.730411 0.135862
H19   H     H_    0.184230 0.492912 0.269599 0.135770
H20   H     H_    0.657228 0.875680 0.876966 0.193564
H21   H     H_    0.342583 0.124269 0.123034 0.193562
H22   H     H_    0.740437 0.533299 0.247429 0.136854
N1    N     N_R   0.551439 0.485017 0.797648 -0.356290
N2    N     N_R   0.448482 0.514910 0.202351 -0.356313
N3    N     N_2   0.950320 0.457960 0.486880 -0.171384
N4    N     N_2   0.049680 0.542040 0.513120 -0.171387
N5    N     N_3   0.810795 0.530267 0.339774 -0.432570
N6    N     N_3   0.189194 0.468725 0.660197 -0.432521
O1    O     O_R   0.389250 0.738570 0.503220 -0.613319
O2    O     O_2   0.369489 0.245066 0.204374 -0.534897
O3    O     O_2   0.520242 0.786000 0.202760 -0.533828
O4    O     O_2   0.479760 0.213911 0.797242 -0.533856
O5    O     O_R   0.610750 0.261430 0.496780 -0.613312
O6    O     O_R   0.678390 0.711630 0.494810 -0.630208
O7    O     O_R   0.321610 0.288370 0.505190 -0.630190
O8    O     O_R   0.355440 0.513440 0.575450 -0.588219
O9    O     O_R   0.644560 0.486560 0.424550 -0.588190
O10   O     O_R   0.644590 0.486500 0.567040 -0.638191
O11   O     O_R   0.355410 0.513500 0.432960 -0.638213
O12   O     O_2   0.630347 0.754879 0.795627 -0.534911
Zn1   Zn    Zn3+2 0.306940 0.517990 0.505620 0.958804
Zn2   Zn    Zn3+2 0.693060 0.482010 0.494380 0.958814

loop_
_geom_bond_atom_site_label_1
_geom_bond_atom_site_label_2
_ccdc_geom_bond_type
C27   C29   A    
C11   H5    S    
O10   Zn2   S    
H11   N5    S    
O6    Zn2   S    
C39   C41   A    
C1    O1    A    
C23   C42   A    
C31   H1    S    
C22   O12   S    
C35   C37   A    
C5    C11   A    
C20   H9    S    
O9    Zn2   S    
C11   C14   A    
O5    Zn2   S    
O7    Zn1   S    
C22   C38   A    
C17   O9    A    
C26   O3    S    
C40   H20   S    
C25   O4    S    
C3    C29   A    
C18   C40   A    
O8    Zn1   S    
C31   C33   A    
C33   C36   A    
H15   N6    S    
C16   O8    A    
C24   N2    A    
C2    C34   A    
N3    Zn2   S    
C37   N2    S    
C1    O6    A    
C27   H2    S    
C32   H12   S    
O11   Zn1   S    
C14   H3    S    
O1    Zn1   S    
N3    N4    D    
C26   N2    A    
C32   C35   A    
C25   N1    A    
C2    C26   A    
C36   N1    S    
C12   C21   S    
C8    C18   A    
C34   C39   A    
C16   O10   A    
C22   N1    A    
C5    C9    A    
H17   N4    S    
C5    C8    A    
C12   O7    A    
C35   H19   S    
C4    C32   A    
C3    C31   A    
H13   N5    S    
C4    C17   S    
C28   H22   S    
C33   H18   S    
H14   N6    S    
C13   C15   A    
C9    C34   A    
C27   C36   A    
C41   H21   S    
C30   N5    S    
C24   O2    S    
C29   N6    S    
C7    C9    A    
C1    C20   S    
N4    Zn1   S    
C15   C42   A    
C25   C42   A    
C6    C10   A    
C13   H6    S    
C6    C7    A    
C10   C23   A    
C23   C38   A    
C7    C19   A    
C28   C30   A    
C6    C13   A    
C38   C40   A    
C19   H8    S    
C28   C37   A    
C17   O11   A    
C2    C14   A    
H16   N3    S    
C20   C21   D    
C8    C10   A    
C12   O5    A    
C15   H4    S    
C24   C39   A    
C21   H10   S    
C4    C30   A    
C3    C16   S    
C19   C41   A    
C18   H7    S    
