data_mof_unit_62714.cif
_audit_creation_date              2013-03-05T16:38:03-0500
_audit_creation_method            fapswitch 2.2
_symmetry_space_group_name_H-M    P1
_symmetry_Int_Tables_number       1
_space_group_crystal_system       triclinic
_cell_length_a                    19.196241
_cell_length_b                    18.405431
_cell_length_c                    19.299297
_cell_angle_alpha                 108.979596
_cell_angle_beta                  110.350084
_cell_angle_gamma                 108.415451
_cell_volume                      5290.72385224

loop_
_atom_site_label
_atom_site_type_symbol
_atom_site_description
_atom_site_fract_x
_atom_site_fract_y
_atom_site_fract_z
_atom_type_partial_charge
O1    O     O_R   0.409800 0.552190 0.462000 -0.558643
O2    O     O_R   0.409840 0.447810 0.357640 -0.556172
C1    C     C_R   0.385979 0.506784 0.382894 0.781343
O3    O     O_R   0.590160 0.642370 0.552180 -0.542778
O4    O     O_R   0.590190 0.537990 0.447820 -0.557129
C2    C     C_R   0.622516 0.619850 0.504566 0.801202
Cu1   Cu    Cu3+1 0.499980 0.561800 0.561790 1.141956
Cu2   Cu    Cu3+1 0.500020 0.438200 0.438210 1.163891
O5    O     O_R   0.590160 0.552190 0.642360 -0.571155
O6    O     O_R   0.590200 0.447810 0.538000 -0.540889
O7    O     O_R   0.409810 0.462010 0.552180 -0.587817
O8    O     O_R   0.409840 0.357630 0.447820 -0.528203
C3    C     C_R   0.615645 0.496010 0.618031 0.777303
C4    C     C_R   0.381285 0.380063 0.499800 0.824323
H1    H     H_    0.903639 0.974357 0.909903 0.203198
C5    C     C_R   0.780774 0.896525 0.797124 0.314646
C6    C     C_R   0.734736 0.833272 0.710034 0.297084
C7    C     C_R   0.772878 0.790240 0.673498 -0.136943
C8    C     C_R   0.852037 0.802933 0.729595 0.147900
C9    C     C_R   0.901561 0.873936 0.812875 0.227632
C10   C     C_R   0.865364 0.919610 0.845941 -0.221477
C11   C     C_R   0.820532 0.831665 0.581245 0.314565
C12   C     C_R   0.814640 0.818282 0.503093 -0.205009
C13   C     C_R   0.741502 0.747910 0.427174 -0.042580
C14   C     C_R   0.689658 0.677673 0.430487 0.163570
C15   C     C_R   0.691489 0.689406 0.508071 -0.153243
C16   C     C_R   0.756649 0.770093 0.585083 -0.003612
C17   C     C_R   0.648229 0.800853 0.358060 0.149528
C18   C     C_R   0.612365 0.821005 0.295682 -0.159746
H2    H     H_    0.572130 0.850136 0.299029 0.228211
C19   C     C_R   0.627610 0.803462 0.228606 -0.168066
H3    H     H_    0.599401 0.819720 0.180695 0.218901
C20   C     C_R   0.677781 0.763985 0.222366 0.182536
C21   C     C_R   0.714182 0.742557 0.284830 0.135115
C22   C     C_R   0.701071 0.762864 0.354934 0.032579
C23   C     C_R   0.415571 0.763247 0.548493 0.280050
C24   C     C_R   0.364962 0.684651 0.471190 0.091945
C25   C     C_R   0.370878 0.677986 0.399057 -0.096425
C26   C     C_R   0.406425 0.757621 0.397452 0.124945
C27   C     C_R   0.442493 0.839188 0.470864 0.108138
C28   C     C_R   0.454544 0.842158 0.548349 0.125675
C29   C     C_R   0.251944 0.579918 0.252198 -0.147905
H4    H     H_    0.248700 0.637376 0.251873 0.186294
C30   C     C_R   0.181197 0.498715 0.190110 -0.117270
C31   C     C_R   0.169654 0.425863 0.205405 0.056643
C32   C     C_R   0.240950 0.431830 0.266098 -0.170425
H5    H     H_    0.234484 0.379143 0.280966 0.175022
C33   C     C_R   0.317490 0.510338 0.319988 -0.049164
C34   C     C_R   0.318610 0.589154 0.320931 0.114530
C35   C     C_R   0.031544 0.388698 0.199699 -0.168705
H6    H     H_    0.052015 0.458401 0.228191 0.177351
C36   C     C_R   0.951509 0.331921 0.180497 0.119484
C37   C     C_R   0.925401 0.242297 0.150672 0.143646
C38   C     C_R   0.981030 0.210493 0.140058 0.139875
C39   C     C_R   0.060266 0.267478 0.153689 0.106691
C40   C     C_R   0.084487 0.357860 0.180958 0.012750
C41   C     C_R   0.303266 0.555450 0.665831 0.186041
C42   C     C_R   0.316515 0.484299 0.635029 -0.165433
H7    H     H_    0.370413 0.482435 0.676393 0.181873
C43   C     C_R   0.258964 0.413701 0.552698 0.017594
C44   C     C_R   0.186018 0.413511 0.500936 0.117439
C45   C     C_R   0.169096 0.482109 0.533656 0.182760
C46   C     C_R   0.229332 0.554819 0.615583 0.175530
C47   C     C_R   0.201877 0.266072 0.533062 0.144498
C48   C     C_R   0.187281 0.180172 0.498130 -0.126892
C49   C     C_R   0.252748 0.165427 0.489500 -0.069755
C50   C     C_R   0.314379 0.229167 0.485948 0.301460
C51   C     C_R   0.316709 0.311480 0.502418 -0.215323
C52   C     C_R   0.261522 0.330202 0.529860 -0.014913
C53   C     C_R   0.303724 0.114320 0.594713 0.149001
C54   C     C_R   0.311905 0.048173 0.612935 0.127211
C55   C     C_R   0.285684 0.966295 0.546679 0.098503
C56   C     C_R   0.257412 0.953077 0.463781 0.140523
C57   C     C_R   0.250247 0.019167 0.445873 -0.153697
H8    H     H_    0.226270 0.006954 0.381294 0.215924
C58   C     C_R   0.270983 0.099273 0.510139 0.025152
H9    H     H_    0.490242 0.370191 0.873053 0.213463
C59   C     C_R   0.529746 0.467768 0.837009 0.183979
C60   C     C_R   0.571276 0.495862 0.795744 0.135089
C61   C     C_R   0.594411 0.440336 0.748837 -0.137671
C62   C     C_R   0.568548 0.353900 0.738710 0.312457
C63   C     C_R   0.534625 0.332177 0.787168 -0.201193
H10   H     H_    0.520776 0.270058 0.786359 0.223400
C64   C     C_R   0.517423 0.389337 0.837102 -0.179644
C65   C     C_R   0.743301 0.487248 0.812890 -0.114335
H11   H     H_    0.736380 0.476504 0.862793 0.177269
C66   C     C_R   0.817693 0.500811 0.811226 -0.056083
C67   C     C_R   0.827712 0.516818 0.747012 0.103724
C68   C     C_R   0.760145 0.514367 0.684528 -0.138992
H12   H     H_    0.768455 0.529299 0.637117 0.167428
C69   C     C_R   0.682949 0.495280 0.683966 -0.020207
C70   C     C_R   0.674714 0.480974 0.749330 0.095499
C71   C     C_R   0.976959 0.633892 0.813731 0.176963
C72   C     C_R   0.060300 0.660831 0.828692 0.160548
C73   C     C_R   0.078163 0.601157 0.782520 -0.248641
H13   H     H_    0.143088 0.619983 0.797101 0.218165
C74   C     C_R   0.013014 0.516982 0.718206 0.324977
C75   C     C_R   0.928442 0.492418 0.698240 0.099437
C76   C     C_R   0.911420 0.548095 0.751376 -0.102937
O9    O     O_R   0.052200 0.909800 0.461980 -0.624318
O10   O     O_R   0.947810 0.909820 0.357620 -0.537755
C77   C     C_R   0.999089 0.878505 0.382724 0.795097
O11   O     O_R   0.962020 0.909790 0.552160 -0.525043
O12   O     O_R   0.857630 0.909810 0.447800 -0.606173
C78   C     C_R   0.881658 0.882264 0.500923 0.833296
Cu3   Cu    Cu3+1 0.061810 0.999960 0.561770 1.079741
Cu4   Cu    Cu3+1 0.938190 0.999990 0.438190 1.082367
O13   O     O_R   0.052190 0.090130 0.642340 -0.543377
O14   O     O_R   0.947800 0.090160 0.537980 -0.598528
O15   O     O_R   0.142370 0.090140 0.552150 -0.582633
O16   O     O_R   0.037980 0.090170 0.447800 -0.533635
C79   C     C_R   0.997267 0.117960 0.616954 0.833985
C80   C     C_R   0.118374 0.114380 0.496464 0.851240
O17   O     O_R   0.052200 0.461970 0.909800 -0.582779
O18   O     O_R   0.947810 0.357610 0.909840 -0.521460
C81   C     C_R   0.996100 0.380742 0.878387 0.817623
O19   O     O_R   0.142370 0.552160 0.090140 -0.558987
O20   O     O_R   0.037990 0.447800 0.090170 -0.594292
C82   C     C_R   0.117520 0.498176 0.118694 0.771181
Cu5   Cu    Cu3+1 0.061800 0.561770 0.999960 1.055584
Cu6   Cu    Cu3+1 0.938200 0.438190 0.000000 1.094756
O21   O     O_R   0.052190 0.642350 0.090120 -0.563107
O22   O     O_R   0.947800 0.537990 0.090150 -0.572643
O23   O     O_R   0.962010 0.552150 0.909780 -0.596557
O24   O     O_R   0.857630 0.447800 0.909820 -0.547920
C83   C     C_R   0.999273 0.620265 0.116618 0.798886
C84   C     C_R   0.882407 0.498760 0.878953 0.806367
C85   C     C_R   0.035406 0.726623 0.521460 0.148804
C86   C     C_R   0.046883 0.756830 0.466522 -0.171362
H14   H     H_    0.101329 0.818912 0.492644 0.200968
C87   C     C_R   0.990701 0.706375 0.379113 -0.003030
C88   C     C_R   0.926090 0.621488 0.347096 -0.222834
H15   H     H_    0.883572 0.580098 0.279345 0.217396
C89   C     C_R   0.914725 0.588587 0.400459 0.298557
C90   C     C_R   0.971472 0.640738 0.488511 0.117732
C91   C     C_R   0.003313 0.675967 0.252015 -0.171274
H16   H     H_    0.000614 0.615669 0.250616 0.158407
C92   C     C_R   0.005473 0.690695 0.186316 -0.034765
C93   C     C_R   0.014629 0.771584 0.190031 0.077311
C94   C     C_R   0.019135 0.835065 0.259141 0.101769
C95   C     C_R   0.007226 0.815262 0.320096 -0.085646
C96   C     C_R   0.002676 0.735640 0.318487 0.069923
C97   C     C_R   0.068417 0.844056 0.116681 0.198504
C98   C     C_R   0.057610 0.896449 0.079856 -0.141123
H17   H     H_    0.111180 0.943355 0.082846 0.215470
C99   C     C_R   0.978137 0.889696 0.040037 -0.205269
H18   H     H_    0.971180 0.931383 0.012682 0.201592
C100  C     C_R   0.906995 0.826040 0.030934 0.326396
C101  C     C_R   0.916397 0.771355 0.066440 0.237774
C102  C     C_R   0.999092 0.785998 0.116282 -0.118429
C103  C     C_R   0.284867 0.480383 0.008297 -0.166352
H19   H     H_    0.338340 0.539752 0.025781 0.194051
C104  C     C_R   0.213031 0.434560 0.928129 0.181309
C105  C     C_R   0.143352 0.357446 0.905767 -0.035188
C106  C     C_R   0.147561 0.326342 0.963957 0.117132
C107  C     C_R   0.220542 0.372646 0.043832 -0.189458
H20   H     H_    0.224706 0.348811 0.088585 0.201031
C108  C     C_R   0.288635 0.449658 0.065801 0.183100
C109  C     C_R   0.065276 0.242829 0.757680 -0.114550
H21   H     H_    0.122119 0.236346 0.771169 0.185123
C110  C     C_R   0.992580 0.186693 0.678155 -0.095030
C111  C     C_R   0.918656 0.198130 0.659281 0.022393
C112  C     C_R   0.917565 0.258697 0.727415 0.308323
C113  C     C_R   0.992228 0.312756 0.808358 -0.133509
C114  C     C_R   0.066583 0.306849 0.821322 0.047531
C115  C     C_R   0.836145 0.159201 0.503046 0.123152
C116  C     C_R   0.759016 0.114695 0.425825 0.204303
C117  C     C_R   0.684268 0.056880 0.416671 0.224526
C118  C     C_R   0.687989 0.042011 0.484030 -0.239975
H22   H     H_    0.630882 0.997607 0.477300 0.226954
C119  C     C_R   0.764250 0.082768 0.559934 0.192439
C120  C     C_R   0.840148 0.144006 0.572156 -0.037955
I1    I     I_    0.694280 0.739466 0.116076 -0.010275
I2    I     I_    0.783253 0.676409 0.269547 -0.222865
I3    I     I_    0.528734 0.966184 0.663054 0.093138
N1    N     N_R   0.422756 0.761138 0.624634 0.182444
O25   O     O_R   0.421308 0.820967 0.682087 -0.249605
O26   O     O_R   0.423908 0.694365 0.633568 -0.300732
I4    I     I_    0.253712 0.590703 0.453994 -0.295538
I5    I     I_    0.402731 0.757432 0.284640 -0.210129
I6    I     I_    0.468227 0.957575 0.463947 -0.040600
N2    N     N_R   0.744237 0.941774 0.835656 0.177280
O27   O     O_R   0.766889 0.966770 0.914878 -0.261624
O28   O     O_R   0.696121 0.967229 0.795356 -0.234892
I7    I     I_    0.873939 0.388055 0.197699 -0.148220
I8    I     I_    0.803395 0.157011 0.125537 0.063040
I9    I     I_    0.947050 0.077648 0.110396 -0.125936
I10   I     I_    0.142129 0.214856 0.136658 -0.262502
I11   I     I_    0.211716 0.665283 0.662963 -0.077700
I12   I     I_    0.395882 0.659576 0.790780 -0.031658
I13   I     I_    0.100977 0.306296 0.374097 -0.253771
I14   I     I_    0.053586 0.475276 0.456821 -0.104312
N3    N     N_R   0.648418 0.810221 0.661278 0.151142
O29   O     O_R   0.630869 0.853267 0.622599 -0.315556
O30   O     O_R   0.593776 0.769627 0.678811 -0.272921
I15   I     I_    0.158110 0.306751 0.619270 -0.199338
N4    N     N_R   0.378372 0.212900 0.473002 0.147927
O31   O     O_R   0.357015 0.142147 0.407578 -0.284947
O32   O     O_R   0.458267 0.268573 0.526788 -0.308525
I16   I     I_    0.325186 0.230179 0.692800 -0.320831
I17   I     I_    0.361685 0.070703 0.740450 -0.114226
I18   I     I_    0.281069 0.859667 0.569875 -0.204724
I19   I     I_    0.224400 0.833157 0.363832 -0.319628
I20   I     I_    0.487054 0.540427 0.905345 -0.184619
I21   I     I_    0.610780 0.627263 0.818442 -0.013064
I22   I     I_    0.903043 0.727372 0.681039 -0.257172
N5    N     N_R   0.587749 0.292748 0.689980 0.170748
O33   O     O_R   0.616036 0.307274 0.640938 -0.254800
O34   O     O_R   0.572872 0.219126 0.691019 -0.287031
I23   I     I_    0.946976 0.718736 0.884805 -0.317835
I24   I     I_    0.163363 0.787594 0.923428 -0.120639
N6    N     N_R   0.033985 0.454329 0.678164 0.166608
O35   O     O_R   0.087329 0.475831 0.652158 -0.321713
O36   O     O_R   0.019834 0.387236 0.690632 -0.356196
I25   I     I_    0.828334 0.384099 0.577950 -0.033169
I26   I     I_    0.963843 0.588652 0.569962 -0.141557
I27   I     I_    0.035839 0.930801 0.884655 -0.114282
I28   I     I_    0.113334 0.817766 0.653196 -0.084777
N7    N     N_R   0.843222 0.503984 0.363993 0.156936
O37   O     O_R   0.852507 0.445199 0.383753 -0.243711
O38   O     O_R   0.770746 0.481005 0.301727 -0.277173
I29   I     I_    0.042850 0.962660 0.270297 -0.281056
I30   I     I_    0.192375 0.861560 0.176038 -0.130809
N8    N     N_R   0.825666 0.818439 0.986757 0.179924
O39   O     O_R   0.798669 0.811231 0.911866 -0.332718
O40   O     O_R   0.780924 0.824891 0.023519 -0.235808
N9    N     N_R   0.889370 0.911674 0.657041 0.103640
O41   O     O_R   0.874126 0.969975 0.698720 -0.350607
O42   O     O_R   0.965713 0.921647 0.690075 -0.285902
N10   N     N_R   0.842140 0.700430 0.049992 0.145975
O43   O     O_R   0.839866 0.681940 0.108986 -0.329587
O44   O     O_R   0.777464 0.650054 0.973421 -0.326505
I31   I     I_    0.398758 0.519874 0.184294 -0.271113
I32   I     I_    0.216252 0.486333 0.845688 -0.189690
I33   I     I_    0.045208 0.207938 0.930745 -0.215193
N11   N     N_R   0.841116 0.264586 0.715271 0.102218
O45   O     O_R   0.791662 0.259660 0.645976 -0.308449
O46   O     O_R   0.812710 0.259437 0.766559 -0.280992
I34   I     I_    0.940414 0.249497 0.507091 0.001623
N12   N     N_R   0.755771 0.132373 0.358039 0.178656
O47   O     O_R   0.716491 0.174568 0.337407 -0.213057
O48   O     O_R   0.786632 0.100761 0.312972 -0.285857
I35   I     I_    0.612238 0.557169 0.312532 -0.115070
N13   N     N_R   0.604455 0.013263 0.339290 0.152341
O49   O     O_R   0.600901 0.988247 0.266272 -0.278857
O50   O     O_R   0.534055 0.994665 0.340898 -0.261972
I36   I     I_    0.756711 0.052711 0.655300 -0.026696
I37   I     I_    0.617679 0.826813 0.454141 -0.317404

loop_
_geom_bond_atom_site_label_1
_geom_bond_atom_site_label_2
_geom_bond_distance
_ccdc_geom_bond_type
O10   Cu4   1.980162 S    
C66   C67   1.423770 A    
C115  C120  1.431084 A    
O10   C77   1.320722 A    
O18   Cu6   1.994703 S    
C74   N6    1.420935 S    
C118  C119  1.396991 A    
C56   C57   1.401463 A    
C27   I6    2.136520 S    
C6    N3    1.422240 S    
C73   H13   1.082758 S    
C75   I25   2.126744 S    
N8    O39   1.298496 A    
C66   C84   1.478352 S    
C110  C111  1.438686 A    
Cu1   Cu2   2.708628 S    
C25   C34   1.503697 S    
C117  N13   1.440059 S    
C31   C32   1.401276 A    
N11   O45   1.296786 A    
C48   C49   1.418588 A    
Cu1   O7    1.987565 S    
C79   C110  1.475605 S    
C56   I19   2.119149 S    
C15   C16   1.441065 A    
C24   C25   1.404857 A    
C57   C58   1.402478 A    
C9    I27   2.127798 S    
C101  N10   1.441118 S    
C23   C24   1.400865 A    
C59   I20   2.120460 S    
C7    C8    1.415158 A    
O19   C82   1.325890 A    
C108  I31   2.087544 S    
C97   I30   2.111383 S    
O4    C2    1.310664 A    
O7    C4    1.303094 A    
C5    N2    1.437851 S    
C39   C40   1.425525 A    
Cu3   Cu4   2.717514 S    
C42   C43   1.400994 A    
C97   C98   1.395588 A    
C12   C78   1.468325 S    
C118  H22   1.073519 S    
C74   C75   1.405837 A    
C1    C33   1.484090 S    
N13   O49   1.301419 A    
Cu1   O5    1.986478 S    
C21   C22   1.414511 A    
C17   I37   2.089897 S    
N4    O32   1.299081 A    
O5    C3    1.300989 A    
O20   C82   1.297158 A    
C91   C96   1.398248 A    
C112  N11   1.448494 S    
C7    C16   1.513904 S    
N2    O27   1.300793 A    
C112  C113  1.419592 A    
C97   C102  1.414902 A    
C83   C92   1.469989 S    
C8    C9    1.407456 A    
C31   C40   1.499530 S    
N13   O50   1.299328 A    
C5    C6    1.416141 A    
N3    O30   1.299663 A    
N7    O37   1.300311 A    
C8    I22   2.102804 S    
C35   C36   1.388351 A    
C12   C13   1.407647 A    
C109  C110  1.392270 A    
C105  C114  1.473184 S    
C41   C46   1.407084 A    
C53   C54   1.411175 A    
C77   C95   1.473510 S    
C48   C80   1.466343 S    
O18   C81   1.311177 A    
C68   C69   1.406023 A    
C20   I1    2.109955 S    
C71   C76   1.407240 A    
C37   I8    2.139242 S    
Cu2   O8    2.002626 S    
C62   N5    1.449760 S    
C67   C68   1.406532 A    
C65   C66   1.383661 A    
C49   C50   1.418619 A    
C28   I3    2.146153 S    
C72   I24   2.119793 S    
N6    O35   1.299106 A    
C85   C86   1.396539 A    
Cu4   O14   1.994443 S    
C109  H21   1.085163 S    
C113  C114  1.406804 A    
C23   C28   1.409506 A    
N4    O31   1.300495 A    
C29   C30   1.390970 A    
O3    Cu1   2.002625 S    
O9    C77   1.296965 A    
O12   C78   1.295316 A    
C65   C70   1.392843 A    
Cu5   O21   1.994700 S    
C26   I5    2.152374 S    
C99   C100  1.398888 A    
C14   I35   2.142506 S    
C25   C26   1.423814 A    
C24   I4    2.112214 S    
C32   C33   1.395237 A    
C106  C107  1.397992 A    
C13   C22   1.501289 S    
C57   H8    1.081270 S    
C99   H18   1.079092 S    
N5    O33   1.300938 A    
C103  C108  1.391014 A    
C117  C118  1.396109 A    
C88   C89   1.397631 A    
C20   C21   1.412300 A    
C13   C14   1.396734 A    
C17   C22   1.408805 A    
C55   C56   1.404574 A    
O11   C78   1.316676 A    
O19   Cu5   1.988296 S    
C69   C70   1.419204 A    
C59   C60   1.409292 A    
C51   C52   1.422577 A    
O22   C83   1.315612 A    
C45   I14   2.132381 S    
C11   N9    1.442037 S    
C30   C82   1.485117 S    
C35   H6    1.083968 S    
C115  I34   2.116521 S    
C65   H11   1.086551 S    
N10   O43   1.300469 A    
C62   C63   1.400283 A    
O13   C79   1.326346 A    
C119  I36   2.124008 S    
C43   C44   1.407300 A    
O1    C1    1.296688 A    
O20   Cu6   1.999084 S    
C107  H20   1.079551 S    
O21   C83   1.301633 A    
C50   C51   1.425599 A    
Cu6   O24   1.988296 S    
C18   H2    1.077967 S    
C21   I2    2.094181 S    
C59   C64   1.387807 A    
N7    O38   1.301304 A    
C98   C99   1.391429 A    
N9    O41   1.297983 A    
O15   C80   1.289818 A    
C106  I33   2.128550 S    
C103  H19   1.082653 S    
C49   C58   1.500500 S    
C45   C46   1.415035 A    
N12   O48   1.301137 A    
C6    C7    1.422252 A    
C89   N7    1.438380 S    
C72   C73   1.389902 A    
O16   C80   1.321934 A    
C71   C72   1.404663 A    
C39   I10   2.151598 S    
C94   C95   1.407948 A    
N10   O44   1.300110 A    
C61   C70   1.480703 S    
C119  C120  1.413950 A    
C105  C106  1.407028 A    
C87   C96   1.493561 S    
C90   I26   2.112609 S    
O3    C2    1.309148 A    
C116  N12   1.433242 S    
N9    O42   1.300742 A    
C3    C69   1.472161 S    
O8    C4    1.316567 A    
C63   H10   1.082397 S    
C63   C64   1.387789 A    
C11   C16   1.425947 A    
O23   C84   1.301266 A    
C53   C58   1.420688 A    
C115  C116  1.410372 A    
C85   C90   1.409611 A    
C23   N1    1.442003 S    
C29   H4    1.080726 S    
O14   C79   1.290608 A    
C87   C88   1.405650 A    
C85   I28   2.123868 S    
C116  C117  1.399687 A    
C36   C37   1.401067 A    
C91   C92   1.391378 A    
C55   I18   2.132843 S    
C86   H14   1.075384 S    
Cu3   O15   1.989805 S    
C38   C39   1.420245 A    
C54   I17   2.142818 S    
C32   H5    1.080660 S    
C17   C18   1.391451 A    
C19   C20   1.391346 A    
C53   I16   2.139454 S    
N2    O28   1.299382 A    
O1    Cu1   2.000811 S    
C42   H7    1.083844 S    
Cu4   O16   2.000663 S    
C81   C113  1.472827 S    
C19   H3    1.082515 S    
O2    Cu2   1.986475 S    
C30   C31   1.431583 A    
N5    O34   1.302018 A    
C61   C62   1.430689 A    
C50   N4    1.434676 S    
O6    C3    1.312028 A    
N8    O40   1.299446 A    
O4    Cu2   1.987563 S    
O17   C81   1.304423 A    
C93   C94   1.412025 A    
C73   C74   1.396527 A    
C5    C10   1.394483 A    
C37   C38   1.412105 A    
C89   C90   1.409487 A    
C111  C112  1.432701 A    
C47   C52   1.396686 A    
C93   C102  1.478335 S    
O9    Cu3   1.994353 S    
H9    C64   1.082818 S    
C38   I9    2.133936 S    
C47   C48   1.388557 A    
C107  C108  1.396608 A    
O2    C1    1.323182 A    
C14   C15   1.427615 A    
C41   I12   2.123233 S    
C18   C19   1.384556 A    
C46   I11   2.127029 S    
C101  C102  1.420178 A    
C86   C87   1.397903 A    
C44   I13   2.143483 S    
C94   I29   2.167088 S    
C41   C42   1.393641 A    
C2    C15   1.485597 S    
Cu3   O13   1.980162 S    
C43   C52   1.476692 S    
C33   C34   1.438065 A    
C47   I15   2.143324 S    
N1    O26   1.301160 A    
N12   O47   1.300977 A    
C75   C76   1.403425 A    
N11   O46   1.299946 A    
C104  I32   2.112037 S    
C88   H15   1.083125 S    
O11   Cu3   2.000571 S    
C11   C12   1.403724 A    
C100  C101  1.411590 A    
C103  C104  1.392557 A    
C100  N8    1.429159 S    
C44   C45   1.407675 A    
C35   C40   1.404424 A    
Cu6   O22   1.979746 S    
C67   C76   1.486753 S    
C92   C93   1.417398 A    
N6    O36   1.297461 A    
C29   C34   1.400517 A    
N1    O25   1.299760 A    
C60   C61   1.423304 A    
C26   C27   1.420566 A    
C109  C114  1.384243 A    
C98   H17   1.082371 S    
H1    C10   1.082269 S    
C111  C120  1.513395 S    
C9    C10   1.387560 A    
Cu2   O6    2.000813 S    
N3    O29   1.294937 A    
C36   I7    2.118414 S    
C71   I23   2.091658 S    
O24   C84   1.318895 A    
C4    C51   1.492989 S    
Cu5   Cu6   2.719517 S    
C91   H16   1.085501 S    
C27   C28   1.411027 A    
C54   C55   1.406817 A    
C68   H12   1.084255 S    
C95   C96   1.429632 A    
O12   Cu4   1.989682 S    
O17   Cu5   1.979854 S    
Cu5   O23   1.999091 S    
C60   I21   2.130071 S    
C104  C105  1.410832 A    
