data_mof_unit_30073.cif
_audit_creation_date              2012-12-10T19:11:18-0500
_audit_creation_method            fapswitch 2.2
_symmetry_space_group_name_H-M    P1
_symmetry_Int_Tables_number       1
_space_group_crystal_system       triclinic
_cell_length_a                    15.90126
_cell_length_b                    9.298936
_cell_length_c                    8.021446
_cell_angle_alpha                 89.757092
_cell_angle_beta                  90.594964
_cell_angle_gamma                 89.587504
_cell_volume                      1185.98377806

loop_
_atom_site_label
_atom_site_type_symbol
_atom_type_description
_atom_site_fract_x
_atom_site_fract_y
_atom_site_fract_z
_atom_type_partial_charge
C1    C     C_R   0.500015 0.220611 0.500214 0.801647
C2    C     C_1   0.823664 0.473967 0.505266 0.017192
C3    C     C_1   0.176414 0.478862 0.493505 0.012263
C4    C     C_R   0.340587 0.500434 0.499141 0.799119
C5    C     C_R   0.659405 0.498525 0.500843 0.802174
C6    C     C_1   0.499986 0.934865 0.499720 -0.163833
C7    C     C_1   0.499999 0.065186 0.500284 -0.182541
C8    C     C_R   0.499977 0.779412 0.499787 0.815658
C9    C     C_3   0.053801 0.400364 0.671327 0.293660
C10   C     C_3   0.051051 0.372888 0.332580 0.317127
C11   C     C_3   0.951160 0.374444 0.665482 0.328839
C12   C     C_3   0.946692 0.388326 0.332197 0.297934
C13   C     C_1   0.748585 0.487335 0.503150 -0.159557
C14   C     C_1   0.251403 0.491976 0.496633 -0.167074
C15   C     C_3   0.084365 0.460262 0.492314 0.035794
C16   C     C_3   0.916239 0.458111 0.504909 0.055132
C17   C     C_3   0.951383 0.614595 0.514109 -0.511458
C18   C     C_3   0.045811 0.615124 0.472889 -0.522510
Cu1   Cu    Cu3+1 0.500000 0.500010 0.669080 1.013570
Cu2   Cu    Cu3+1 0.500000 0.500010 0.330920 1.013339
H1    H     H_    0.079337 0.692927 0.551373 0.196121
H2    H     H_    0.055236 0.661169 0.348293 0.282279
H3    H     H_    0.940956 0.663825 0.637023 0.272960
H4    H     H_    0.915963 0.688510 0.430731 0.201815
N1    N     N_1   0.500000 0.499970 0.076820 -0.047445
N2    N     N_1   0.500000 0.499970 0.923180 -0.047752
O1    O     O_R   0.500000 0.288400 0.642760 -0.575273
O2    O     O_R   0.500000 0.288400 0.357240 -0.575782
O3    O     O_R   0.379440 0.500020 0.642850 -0.576914
O4    O     O_R   0.379440 0.500020 0.357150 -0.568160
O5    O     O_R   0.620560 0.500020 0.642850 -0.566491
O6    O     O_R   0.620560 0.500020 0.357150 -0.576099
O7    O     O_R   0.500000 0.711620 0.642810 -0.572450
O8    O     O_R   0.500000 0.711620 0.357190 -0.572480
O9    O     O_3   0.932415 0.224747 0.659710 -0.675931
C19   C     C_3   0.846725 0.175772 0.655608 -0.005746
H5    H     H_    0.851550 0.057618 0.637543 0.173969
H6    H     H_    0.811055 0.213710 0.545475 0.178984
C20   C     C_3   0.793697 0.197571 0.813383 -0.401305
H7    H     H_    0.832527 0.182589 0.926950 0.225681
H8    H     H_    0.766111 0.307433 0.813461 0.250386
C21   C     C_3   0.720333 0.092557 0.819429 -0.851684
H9    H     H_    0.679966 0.104975 0.706293 0.250722
H10   H     H_    0.681636 0.114888 0.930963 0.266173
H11   H     H_    0.744014 0.980032 0.827704 0.261164
O10   O     O_3   0.895819 0.266331 0.286329 -0.666802
C22   C     C_3   0.920096 0.122300 0.315528 0.135843
H12   H     H_    0.862157 0.060021 0.339882 0.121017
H13   H     H_    0.959869 0.106493 0.423804 0.219440
C23   C     C_3   0.959621 0.055282 0.164040 -0.394821
H14   H     H_    0.910670 0.031280 0.069227 0.211390
H15   H     H_    0.004677 0.132226 0.113445 0.250967
C24   C     C_3   0.004084 0.915766 0.211159 -0.821509
H16   H     H_    0.048568 0.930409 0.316849 0.236035
H17   H     H_    0.039291 0.870284 0.105539 0.304175
H18   H     H_    0.955143 0.839821 0.247747 0.281707
O11   O     O_3   0.104768 0.287115 0.743446 -0.664148
C25   C     C_3   0.099357 0.144468 0.688547 0.108244
H19   H     H_    0.163799 0.103026 0.665893 0.133351
H20   H     H_    0.061999 0.132538 0.578605 0.231509
C26   C     C_3   0.061525 0.050578 0.821140 -0.408628
H21   H     H_    0.105207 0.039000 0.928620 0.223451
H22   H     H_    0.002572 0.100344 0.859741 0.268197
C27   C     C_3   0.040568 0.903371 0.755251 -0.861928
H23   H     H_    0.992553 0.854030 0.836089 0.316684
H24   H     H_    0.099264 0.838357 0.757155 0.272226
H25   H     H_    0.013052 0.909122 0.627611 0.234280
O12   O     O_3   0.077699 0.226010 0.332879 -0.679736
C28   C     C_3   0.165470 0.187102 0.333002 -0.008679
H26   H     H_    0.167051 0.068973 0.352760 0.170548
H27   H     H_    0.200716 0.226878 0.441368 0.151199
C29   C     C_3   0.214742 0.216606 0.172168 -0.367673
H28   H     H_    0.173864 0.205357 0.061180 0.235425
H29   H     H_    0.240044 0.327377 0.174957 0.254517
C30   C     C_3   0.289801 0.114466 0.155186 -0.862645
H30   H     H_    0.332138 0.123191 0.265701 0.254839
H31   H     H_    0.325759 0.142966 0.041932 0.265988
H32   H     H_    0.267997 0.001714 0.143072 0.257246
C31   C     C_2   0.084028 0.430807 0.168718 0.452288
H33   H     H_    0.063690 0.376181 0.057241 0.077323
O13   O     O_2   0.134609 0.528709 0.158541 -0.571315
C32   C     C_2   0.082310 0.519583 0.792786 0.331013
H34   H     H_    0.149238 0.531066 0.818028 0.141646
O14   O     O_2   0.035481 0.603903 0.861235 -0.541612
C33   C     C_2   0.911917 0.495375 0.200692 0.307155
H35   H     H_    0.846752 0.484813 0.160212 0.154478
O15   O     O_2   0.950505 0.597564 0.146430 -0.539887
C34   C     C_2   0.913411 0.425189 0.827046 0.453374
H36   H     H_    0.930911 0.364580 0.937013 0.053438
O16   O     O_2   0.863311 0.525072 0.836383 -0.562824

loop_
_geom_bond_atom_site_label_1
_geom_bond_atom_site_label_2
_ccdc_geom_bond_type
C15   C18   S    
C28   C29   S    
C18   H1    S    
O9    C19   S    
Cu1   O5    S    
C22   H13   S    
Cu2   O4    S    
C24   H16   S    
C17   H3    S    
C12   C33   S    
C19   H5    S    
C10   C15   S    
Cu2   N1    S    
C25   H20   S    
Cu1   N2    S    
C26   H22   S    
C28   H27   S    
C2    C13   T    
C12   C16   S    
C16   C17   S    
C1    O2    A    
C23   H15   S    
C20   C21   S    
C2    C16   S    
C5    C13   S    
C4    O3    A    
C9    C32   S    
C5    O6    A    
Cu2   O8    S    
C25   C26   S    
C33   O15   D    
C1    C7    S    
C28   H26   S    
C21   H10   S    
C29   C30   S    
Cu1   O1    S    
N1    N2    T    
C17   C18   S    
C22   C23   S    
C24   H17   S    
C23   C24   S    
C17   H4    S    
C27   H25   S    
C29   H29   S    
Cu1   O7    S    
C20   H7    S    
C31   O13   D    
O12   C28   S    
C6    C8    S    
Cu2   O2    S    
C25   H19   S    
C33   H35   S    
C21   H11   S    
C27   H24   S    
C26   C27   S    
C30   H30   S    
C30   H31   S    
C11   C16   S    
C22   H12   S    
C11   C34   S    
C23   H14   S    
C8    O8    A    
C9    C11   S    
C3    C14   T    
C10   C12   S    
C12   O10   S    
C34   O16   D    
C32   O14   D    
C21   H9    S    
Cu1   O3    S    
C3    C15   S    
Cu2   O6    S    
C24   H18   S    
O10   C22   S    
C18   H2    S    
C19   C20   S    
C29   H28   S    
C10   C31   S    
C6    C7    T    
C10   O12   S    
C27   H23   S    
Cu1   Cu2   S    
C11   O9    S    
C9    C15   S    
O11   C25   S    
C19   H6    S    
C9    O11   S    
C8    O7    A    
C4    C14   S    
C26   H21   S    
C30   H32   S    
C31   H33   S    
C34   H36   S    
C20   H8    S    
C32   H34   S    
C1    O1    A    
C4    O4    A    
C5    O5    A    
