data_mof_unit_56415.cif
_audit_creation_date              2013-03-05T15:40:27-0500
_audit_creation_method            fapswitch 2.2
_symmetry_space_group_name_H-M    P1
_symmetry_Int_Tables_number       1
_space_group_crystal_system       triclinic
_cell_length_a                    18.981759
_cell_length_b                    10.971072
_cell_length_c                    18.701273
_cell_angle_alpha                 89.641325
_cell_angle_beta                  89.992603
_cell_angle_gamma                 90.219054
_cell_volume                      3894.43985964

loop_
_atom_site_label
_atom_site_type_symbol
_atom_site_description
_atom_site_fract_x
_atom_site_fract_y
_atom_site_fract_z
_atom_type_partial_charge
O1    O     O_R   0.215090 0.709860 0.828130 -0.465970
O2    O     O_R   0.784910 0.709860 0.171870 -0.467566
O3    O     O_R   0.715090 0.209860 0.828130 -0.463485
O4    O     O_R   0.284910 0.209860 0.171870 -0.465220
O5    O     O_R   0.236990 0.958390 0.823710 -0.498379
O6    O     O_R   0.763010 0.958390 0.176290 -0.505403
O7    O     O_R   0.736990 0.458390 0.823710 -0.497694
O8    O     O_R   0.263010 0.458390 0.176290 -0.497654
C1    C     C_R   0.272235 0.042560 0.853382 0.558224
C2    C     C_R   0.727769 0.042951 0.146645 0.551536
C3    C     C_R   0.772238 0.542549 0.853388 0.559376
C4    C     C_R   0.227762 0.542929 0.146636 0.557140
O9    O     O_R   0.332380 0.074750 0.830850 -0.502562
O10   O     O_R   0.667620 0.074750 0.169150 -0.496020
O11   O     O_R   0.832380 0.574750 0.830850 -0.501877
O12   O     O_R   0.167620 0.574750 0.169150 -0.500713
O13   O     O_R   0.445800 0.917770 0.825070 -0.465651
O14   O     O_R   0.554200 0.917770 0.174930 -0.464446
O15   O     O_R   0.945800 0.417770 0.825070 -0.465570
O16   O     O_R   0.054200 0.417770 0.174930 -0.463438
C5    C     C_R   0.471444 0.821727 0.853423 0.594672
C6    C     C_R   0.527846 0.822250 0.147091 0.588138
C7    C     C_R   0.971449 0.321727 0.853419 0.594451
C8    C     C_R   0.027847 0.322250 0.147090 0.590954
O17   O     O_R   0.456410 0.716580 0.829970 -0.531498
O18   O     O_R   0.543590 0.716580 0.170030 -0.531184
O19   O     O_R   0.956410 0.216580 0.829970 -0.531595
O20   O     O_R   0.043590 0.216580 0.170030 -0.530258
O21   O     O_R   0.321080 0.625290 0.822650 -0.505576
O22   O     O_R   0.678920 0.625290 0.177350 -0.501784
O23   O     O_R   0.821080 0.125290 0.822650 -0.504271
O24   O     O_R   0.178920 0.125290 0.177350 -0.503883
C9    C     C_R   0.260834 0.635755 0.851383 0.585614
C10   C     C_R   0.739115 0.636026 0.148618 0.586411
C11   C     C_R   0.760839 0.135771 0.851391 0.588738
C12   C     C_R   0.239108 0.136048 0.148607 0.585098
O25   O     O_R   0.214930 0.711450 0.668160 -0.492346
O26   O     O_R   0.785070 0.711450 0.331840 -0.486806
O27   O     O_R   0.714930 0.211450 0.668160 -0.493199
O28   O     O_R   0.285070 0.211450 0.331840 -0.490524
O29   O     O_R   0.236850 0.959870 0.675420 -0.493675
O30   O     O_R   0.763150 0.959870 0.324580 -0.505098
O31   O     O_R   0.736850 0.459870 0.675420 -0.500723
O32   O     O_R   0.263150 0.459870 0.324580 -0.488536
C13   C     C_R   0.294296 0.992229 0.641585 0.572413
C14   C     C_R   0.729643 0.050196 0.349271 0.572858
C15   C     C_R   0.794169 0.492972 0.641455 0.567940
C16   C     C_R   0.205936 0.492321 0.358661 0.567017
O33   O     O_R   0.332230 0.076350 0.670880 -0.434034
O34   O     O_R   0.667770 0.076350 0.329120 -0.439909
O35   O     O_R   0.832230 0.576350 0.670880 -0.434238
O36   O     O_R   0.167770 0.576350 0.329120 -0.437334
O37   O     O_R   0.445660 0.919250 0.676780 -0.461652
O38   O     O_R   0.554340 0.919250 0.323220 -0.471998
O39   O     O_R   0.945660 0.419250 0.676780 -0.463566
O40   O     O_R   0.054340 0.419250 0.323220 -0.457166
C17   C     C_R   0.472851 0.824694 0.649653 0.567055
C18   C     C_R   0.532071 0.822926 0.353980 0.560451
C19   C     C_R   0.972759 0.324727 0.649534 0.564182
C20   C     C_R   0.031658 0.322785 0.353776 0.560660
O41   O     O_R   0.456260 0.718170 0.670000 -0.509669
O42   O     O_R   0.543740 0.718170 0.330000 -0.498630
O43   O     O_R   0.956260 0.218170 0.670000 -0.508790
O44   O     O_R   0.043740 0.218170 0.330000 -0.508927
O45   O     O_R   0.320940 0.626760 0.674370 -0.488316
O46   O     O_R   0.679060 0.626760 0.325630 -0.475815
O47   O     O_R   0.820940 0.126760 0.674370 -0.485079
O48   O     O_R   0.179060 0.126760 0.325630 -0.498432
C21   C     C_R   0.259691 0.633982 0.647340 0.559123
C22   C     C_R   0.740250 0.633581 0.352639 0.580672
C23   C     C_R   0.761195 0.140755 0.644149 0.564895
C24   C     C_R   0.240188 0.133517 0.352737 0.553895
Cr1   Cr    Cr6+3 0.230530 0.836340 0.748870 1.090276
Cr2   Cr    Cr6+3 0.769470 0.836340 0.251130 1.096429
Cr3   Cr    Cr6+3 0.730530 0.336340 0.748870 1.087647
Cr4   Cr    Cr6+3 0.269470 0.336340 0.251130 1.094279
Cr5   Cr    Cr6+3 0.387420 0.989430 0.750820 1.143444
Cr6   Cr    Cr6+3 0.612580 0.989430 0.249180 1.145458
Cr7   Cr    Cr6+3 0.887420 0.489430 0.750820 1.140279
Cr8   Cr    Cr6+3 0.112580 0.489430 0.249180 1.143731
Cr9   Cr    Cr6+3 0.385640 0.677860 0.749230 1.053614
Cr10  Cr    Cr6+3 0.614360 0.677860 0.250770 1.085380
Cr11  Cr    Cr6+3 0.885640 0.177860 0.749230 1.054324
Cr12  Cr    Cr6+3 0.114360 0.177860 0.250770 1.051715
O49   O     O_3   0.334530 0.834540 0.749640 -0.316918
O50   O     O_3   0.665470 0.834540 0.250360 -0.296163
O51   O     O_3   0.834530 0.334540 0.749640 -0.317290
O52   O     O_3   0.165470 0.334540 0.250360 -0.317758
H1    H     H_    0.491651 0.631283 0.939795 0.142856
H2    H     H_    0.491923 0.633306 0.065874 0.145482
H3    H     H_    0.991687 0.131281 0.939784 0.142723
H4    H     H_    0.991951 0.133302 0.065864 0.144853
C25   C     C_R   0.496412 0.830613 0.075560 0.043335
C26   C     C_R   0.500055 0.828194 0.926159 0.042381
C27   C     C_R   0.996426 0.330610 0.075552 0.043175
C28   C     C_R   0.000073 0.328193 0.926149 0.042536
C29   C     C_R   0.493999 0.942871 0.037230 -0.028008
C30   C     C_R   0.507648 0.940910 0.962504 -0.028381
C31   C     C_R   0.994012 0.442867 0.037220 -0.028182
C32   C     C_R   0.007664 0.440908 0.962494 -0.028030
C33   C     C_R   0.495923 0.719313 0.965431 -0.161962
C34   C     C_R   0.492924 0.720614 0.038429 -0.160242
C35   C     C_R   0.995952 0.219310 0.965421 -0.161825
C36   C     C_R   0.992949 0.220610 0.038420 -0.160114
C37   C     C_R   0.480008 0.056577 0.070579 0.219060
C38   C     C_R   0.526776 0.051548 0.927202 0.215220
C39   C     C_R   0.980012 0.556569 0.070569 0.218016
C40   C     C_R   0.026784 0.551548 0.927187 0.216568
C41   C     C_R   0.993376 0.664861 0.032795 -0.161932
C42   C     C_R   0.018833 0.662228 0.963143 -0.163600
C43   C     C_R   0.493380 0.164868 0.032808 -0.160887
C44   C     C_R   0.518835 0.162230 0.963157 -0.163912
H5    H     H_    0.984050 0.752377 0.057438 0.150790
H6    H     H_    0.032319 0.747508 0.936987 0.150851
H7    H     H_    0.484062 0.252386 0.057451 0.151838
H8    H     H_    0.532329 0.247508 0.937003 0.150785
C45   C     C_2   0.249139 0.579332 0.920837 -0.077878
C46   C     C_2   0.750943 0.579906 0.079444 -0.078217
C47   C     C_2   0.749162 0.079395 0.920863 -0.078425
C48   C     C_2   0.250925 0.079960 0.079422 -0.080371
C49   C     C_2   0.250742 0.588113 0.077278 -0.098463
C50   C     C_2   0.749329 0.587014 0.922613 -0.096314
C51   C     C_2   0.750764 0.088189 0.077306 -0.096734
C52   C     C_2   0.249316 0.087063 0.922594 -0.096012
C53   C     C_2   0.295825 0.522654 0.037865 -0.165141
C54   C     C_2   0.704696 0.520583 0.962820 -0.164485
C55   C     C_2   0.795869 0.022777 0.037895 -0.165548
C56   C     C_2   0.204663 0.020672 0.962798 -0.164063
C57   C     C_2   0.304245 0.546254 0.961440 -0.172625
C58   C     C_2   0.696047 0.545004 0.039057 -0.171240
C59   C     C_2   0.804280 0.046381 0.961469 -0.172997
C60   C     C_2   0.196019 0.045106 0.039033 -0.172172
H9    H     H_    0.325605 0.447809 0.061012 0.160989
H10   H     H_    0.675304 0.444716 0.940422 0.158168
H11   H     H_    0.825664 0.947948 0.061040 0.160856
H12   H     H_    0.175257 0.944820 0.940401 0.157992
H13   H     H_    0.356984 0.539822 0.939261 0.154216
H14   H     H_    0.643309 0.537463 0.061270 0.157554
H15   H     H_    0.857019 0.039979 0.939288 0.154128
H16   H     H_    0.143279 0.037599 0.061245 0.157121
H17   H     H_    0.222824 0.665167 0.054122 0.112661
H18   H     H_    0.776957 0.664891 0.945027 0.113623
H19   H     H_    0.722833 0.165233 0.054154 0.114166
H20   H     H_    0.276955 0.164930 0.945006 0.113766
H21   H     H_    0.196298 0.582173 0.943150 0.135848
H22   H     H_    0.803798 0.583827 0.057151 0.137886
H23   H     H_    0.696321 0.082212 0.943179 0.135514
H24   H     H_    0.303780 0.083854 0.057130 0.138387
C61   C     C_2   0.514614 0.838674 0.585426 -0.090550
C62   C     C_2   0.514386 0.828011 0.429003 -0.087226
C63   C     C_2   0.014522 0.339015 0.585268 -0.100239
C64   C     C_2   0.013499 0.326767 0.428749 -0.071467
C65   C     C_2   0.546918 0.747768 0.472625 -0.142249
C66   C     C_2   0.532493 0.740268 0.548491 -0.157781
C67   C     C_2   0.048194 0.249757 0.472641 -0.155899
C68   C     C_2   0.033007 0.241003 0.548331 -0.161972
H25   H     H_    0.581262 0.677631 0.451365 0.172992
H26   H     H_    0.529869 0.649532 0.572010 0.185988
H27   H     H_    0.084989 0.183184 0.451659 0.165214
H28   H     H_    0.030650 0.150128 0.571674 0.187295
H29   H     H_    0.480044 0.899323 0.448633 0.115106
H30   H     H_    0.522017 0.929143 0.562904 0.168252
H31   H     H_    0.976116 0.393556 0.448138 0.138345
H32   H     H_    0.021695 0.429483 0.562651 0.172002
C69   C     C_2   0.244644 0.565800 0.582879 -0.121564
C70   C     C_2   0.755089 0.566257 0.417573 -0.093288
C71   C     C_2   0.753594 0.108378 0.569511 -0.131915
C72   C     C_2   0.255009 0.064787 0.417389 -0.120523
C73   C     C_2   0.209306 0.491661 0.436734 -0.125875
C74   C     C_2   0.791006 0.494907 0.563664 -0.123878
C75   C     C_2   0.757132 0.107333 0.413018 -0.087358
C76   C     C_2   0.291570 0.991011 0.563593 -0.126262
C77   C     C_2   0.166459 0.558052 0.479124 0.161276
C78   C     C_2   0.833449 0.562644 0.520976 0.160441
C79   C     C_2   0.717947 0.187618 0.449022 0.167485
C80   C     C_2   0.333207 0.060140 0.520744 0.156537
C81   C     C_2   0.179288 0.566183 0.556070 -0.135213
C82   C     C_2   0.820609 0.567696 0.444028 -0.135194
C83   C     C_2   0.719722 0.189226 0.527087 -0.153754
C84   C     C_2   0.320521 0.065120 0.443742 -0.135723
H33   H     H_    0.135969 0.600741 0.588061 0.200398
H34   H     H_    0.864027 0.601073 0.411284 0.202084
H35   H     H_    0.690677 0.263681 0.550794 0.193421
H36   H     H_    0.363897 0.098998 0.411120 0.193412
H37   H     H_    0.248508 0.431961 0.460395 0.101206
H38   H     H_    0.751964 0.435987 0.539965 0.064609
H39   H     H_    0.801503 0.061831 0.437847 0.089799
H40   H     H_    0.253630 0.928538 0.540196 0.096629
H41   H     H_    0.289505 0.534775 0.552096 0.132528
H42   H     H_    0.710046 0.536831 0.449024 0.132275
H43   H     H_    0.783197 0.031816 0.549251 0.129120
H44   H     H_    0.210138 0.034624 0.448927 0.120735
N1    N     N_R   0.113579 0.638204 0.450763 0.121841
O53   O     O_R   0.118908 0.754782 0.462013 -0.308373
O54   O     O_R   0.053786 0.594215 0.428913 -0.310801
N2    N     N_R   0.885161 0.646383 0.548321 0.121159
O55   O     O_R   0.883010 0.760243 0.528574 -0.304726
O56   O     O_R   0.941651 0.605947 0.579421 -0.309038
N3    N     N_R   0.671207 0.270927 0.412507 0.094586
O57   O     O_R   0.689186 0.318032 0.351051 -0.323454
O58   O     O_R   0.614850 0.310890 0.444168 -0.316872
N4    N     N_R   0.383928 0.145585 0.548131 0.113298
O59   O     O_R   0.379913 0.259696 0.529237 -0.313698
O60   O     O_R   0.441267 0.106912 0.578418 -0.316859
N5    N     N_R   0.446147 0.063676 0.139390 0.084734
O61   O     O_R   0.400985 0.980600 0.159324 -0.360630
O62   O     O_R   0.454449 0.159713 0.179068 -0.328606
N6    N     N_R   0.560263 0.052493 0.858089 0.083124
O63   O     O_R   0.603153 0.965523 0.840259 -0.358317
O64   O     O_R   0.554198 0.146717 0.815936 -0.321138
N7    N     N_R   0.946154 0.563660 0.139384 0.085266
O65   O     O_R   0.900996 0.480579 0.159322 -0.356835
O66   O     O_R   0.954471 0.659680 0.179073 -0.328447
N8    N     N_R   0.060261 0.552499 0.858066 0.082449
O67   O     O_R   0.103144 0.465528 0.840220 -0.361823
O68   O     O_R   0.054177 0.646714 0.815909 -0.325447

loop_
_geom_bond_atom_site_label_1
_geom_bond_atom_site_label_2
_geom_bond_distance
_ccdc_geom_bond_type
C10   C46   1.453941 S    
Cr11  O51   1.977109 S    
O4    C12   1.264913 A    
C18   O42   1.256749 A    
C33   C34   1.366501 A    
O39   C19   1.268950 A    
O20   Cr12  2.064412 S    
C24   C72   1.449102 S    
O29   C13   1.307474 A    
C71   C83   1.351031 D    
C43   C44   1.389739 A    
C42   H6    1.082854 S    
Cr7   O51   1.970653 S    
C29   C30   1.421551 A    
O1    C9    1.266928 A    
C38   C44   1.400349 A    
N5    O61   1.301637 A    
C14   C75   1.446870 S    
C9    C45   1.452012 S    
C76   C80   1.352626 D    
C71   H43   1.082770 S    
N4    O60   1.298503 A    
O24   C12   1.267337 A    
C55   H11   1.086431 S    
C66   H26   1.086747 S    
O25   C21   1.267052 A    
C22   C70   1.445677 S    
O30   C14   1.268949 A    
C27   C31   1.422023 A    
C39   N7    1.441076 S    
C5    C26   1.466757 S    
C26   C30   1.421681 A    
C47   H23   1.086940 S    
C81   H33   1.087608 S    
C55   C59   1.459566 S    
O21   C9    1.269379 A    
C78   N2    1.438110 S    
O8    Cr4   1.935131 S    
C1    C52   1.453399 S    
O23   Cr11  1.924553 S    
C7    C28   1.466753 S    
C45   H21   1.086941 S    
C20   C64   1.444769 S    
O32   Cr4   1.939697 S    
C1    O9    1.265151 A    
O44   Cr12  2.049428 S    
O25   Cr1   2.065480 S    
C49   C53   1.342567 D    
C3    O11   1.265161 A    
O11   Cr7   2.057261 S    
C4    C49   1.452093 S    
C4    O12   1.267743 A    
C26   C33   1.400280 A    
O28   Cr4   2.054416 S    
N6    O63   1.301632 A    
N1    O54   1.298633 A    
C62   C65   1.348005 D    
C17   C61   1.446085 S    
C69   H41   1.084869 S    
C37   N5    1.441047 S    
C72   H44   1.085395 S    
C70   C82   1.338627 D    
C7    O19   1.268219 A    
C15   O35   1.289526 A    
O14   C6    1.273733 A    
C45   C57   1.342411 D    
Cr4   O52   1.974180 S    
O47   C23   1.276522 A    
O2    Cr2   2.058455 S    
C41   H5    1.082783 S    
C52   C56   1.342578 D    
C29   C37   1.424053 A    
O2    C10   1.264921 A    
C37   C43   1.400716 A    
Cr5   O49   1.970653 S    
N3    O57   1.302127 A    
O18   Cr10  2.064412 S    
C23   C71   1.449532 S    
C78   C82   1.460291 S    
O17   Cr9   2.066184 S    
C39   C41   1.400729 A    
O34   Cr6   2.062136 S    
O6    Cr2   1.935131 S    
C67   C68   1.447060 S    
C83   H35   1.084289 S    
N5    O62   1.301592 A    
O31   Cr3   1.926998 S    
O24   Cr12  1.932499 S    
O9    Cr5   2.057261 S    
C32   C40   1.423952 A    
O30   Cr2   1.939697 S    
N4    O59   1.301211 A    
O22   C10   1.267344 A    
C67   H27   1.087489 S    
O48   Cr12  1.943809 S    
C49   H17   1.087156 S    
C46   H22   1.086996 S    
N2    O56   1.298229 A    
C2    C51   1.452058 S    
C2    O10   1.267741 A    
C8    C27   1.467328 S    
O16   Cr8   1.944641 S    
N8    O67   1.301636 A    
O7    Cr3   1.946575 S    
O26   Cr2   2.054416 S    
O27   C23   1.258528 A    
Cr10  O50   1.970566 S    
C75   C79   1.339689 D    
O13   C5    1.274896 A    
O40   C20   1.273116 A    
O43   Cr11  2.043204 S    
O48   C24   1.268368 A    
C70   H42   1.084693 S    
C50   C54   1.342604 D    
N1    O53   1.301031 A    
O7    C3    1.268855 A    
C61   C66   1.330398 D    
N7    O65   1.301643 A    
O5    C1    1.268864 A    
C27   C36   1.397445 A    
C46   C58   1.343009 D    
C53   C57   1.459562 S    
O46   Cr10  1.943809 S    
O39   Cr7   1.936916 S    
O3    C11   1.266935 A    
C80   C84   1.460771 S    
C47   C59   1.342434 D    
C31   C32   1.421580 A    
C64   C67   1.347970 D    
C13   O33   1.292953 A    
C69   C81   1.338124 D    
O8    C4    1.270365 A    
Cr1   O49   1.974333 S    
C74   H38   1.078656 S    
O13   Cr5   1.941033 S    
C63   C68   1.329918 D    
Cr2   O50   1.974180 S    
O15   Cr7   1.941033 S    
O35   Cr7   2.057184 S    
C79   N3    1.444770 S    
C82   H34   1.087682 S    
C43   H7    1.082785 S    
Cr3   O51   1.974333 S    
O26   C22   1.262982 A    
N7    O66   1.301592 A    
O21   Cr9   1.924553 S    
C48   H24   1.086998 S    
O27   Cr3   2.065480 S    
C77   N1    1.436362 S    
O37   Cr5   1.936916 S    
O38   C18   1.270936 A    
C6    C25   1.467312 S    
O23   C11   1.269369 A    
C3    C50   1.453424 S    
C50   H18   1.087119 S    
C58   H14   1.086440 S    
C13   C76   1.459620 S    
C25   C29   1.422017 A    
C51   C55   1.342543 D    
C44   H8    1.082855 S    
C15   C74   1.456047 S    
O47   Cr11  1.946155 S    
O3    Cr3   2.044385 S    
O15   C7    1.274903 A    
C8    O20   1.270360 A    
O14   Cr6   1.944641 S    
C74   C78   1.351474 D    
C53   H9    1.086431 S    
C62   H29   1.085933 S    
C5    O17   1.268227 A    
C56   C60   1.461652 S    
O37   C17   1.269073 A    
O22   Cr10  1.932499 S    
O28   C24   1.264807 A    
H1    C33   1.083680 S    
C48   C60   1.343025 D    
O5    Cr1   1.946575 S    
Cr12  O52   1.970566 S    
H3    C35   1.083679 S    
N2    O55   1.301184 A    
O40   Cr8   1.926635 S    
C25   C34   1.397440 A    
O6    C2    1.270398 A    
C79   C83   1.460524 S    
C40   C42   1.400357 A    
C17   O41   1.265456 A    
O42   Cr10  2.049428 S    
C68   H28   1.086630 S    
C19   C63   1.447027 S    
C60   H16   1.086439 S    
C80   N4    1.437793 S    
C31   C39   1.424043 A    
C14   O34   1.266907 A    
C19   O43   1.266022 A    
C30   C38   1.423935 A    
C75   H39   1.083793 S    
C20   O44   1.255378 A    
O1    Cr1   2.044385 S    
H2    C34   1.083972 S    
C56   H12   1.086462 S    
C65   C66   1.446713 S    
C73   H37   1.085675 S    
Cr8   O52   1.977024 S    
O32   C16   1.310743 A    
C72   C84   1.337699 D    
C41   C42   1.389780 A    
C38   N6    1.440224 S    
C73   C77   1.353532 D    
Cr6   O50   1.977024 S    
C11   C47   1.452042 S    
O46   C22   1.268761 A    
C76   H40   1.086240 S    
O45   C21   1.270365 A    
C28   C32   1.421659 A    
O19   Cr11  2.066184 S    
O33   Cr5   2.057184 S    
N8    O68   1.301557 A    
O10   Cr6   2.045063 S    
C65   H25   1.087555 S    
C12   C48   1.453941 S    
C21   C69   1.450546 S    
O4    Cr4   2.058455 S    
C64   H31   1.085881 S    
C59   H15   1.086272 S    
H4    C36   1.083971 S    
O29   Cr1   1.926998 S    
C16   C73   1.461439 S    
C84   H36   1.087633 S    
C16   O36   1.295671 A    
C57   H13   1.086272 S    
C54   H10   1.086461 S    
N6    O64   1.301554 A    
C63   H32   1.084554 S    
C6    O18   1.270364 A    
C28   C35   1.400277 A    
C51   H19   1.087157 S    
C35   C36   1.366509 A    
N3    O58   1.301494 A    
C54   C58   1.461666 S    
O45   Cr9   1.946155 S    
C52   H20   1.087121 S    
O41   Cr9   2.043204 S    
C61   H30   1.084425 S    
O12   Cr8   2.045063 S    
C77   C81   1.462690 S    
O36   Cr8   2.062136 S    
O31   C15   1.308840 A    
O16   C8    1.273734 A    
Cr9   O49   1.977109 S    
C18   C62   1.444043 S    
C40   N8    1.440281 S    
O38   Cr6   1.926635 S    
