data_mof_unit_61638.cif
_audit_creation_date              2012-12-10T19:30:51-0500
_audit_creation_method            fapswitch 2.2
_symmetry_space_group_name_H-M    P1
_symmetry_Int_Tables_number       1
_space_group_crystal_system       triclinic
_cell_length_a                    17.87775
_cell_length_b                    16.525864
_cell_length_c                    23.497037
_cell_angle_alpha                 90.00416
_cell_angle_beta                  91.837713
_cell_angle_gamma                 90.00446
_cell_volume                      6938.51775281

loop_
_atom_site_label
_atom_site_type_symbol
_atom_type_description
_atom_site_fract_x
_atom_site_fract_y
_atom_site_fract_z
_atom_type_partial_charge
C1    C     C_R   0.355194 0.499992 0.502303 0.833388
C2    C     C_R   0.644801 0.499998 0.497707 0.830264
C3    C     C_R   0.565761 0.499922 0.240650 -0.186924
C4    C     C_R   0.434186 0.500076 0.759337 -0.187287
C5    C     C_R   0.566579 0.500073 0.300026 -0.067293
C6    C     C_R   0.433387 0.499929 0.699960 -0.067308
C7    C     C_R   0.498554 0.499976 0.328711 -0.131171
C8    C     C_R   0.501423 0.500020 0.671289 -0.131106
C9    C     C_R   0.429838 0.499860 0.297306 -0.109855
C10   C     C_R   0.570128 0.500118 0.702706 -0.110098
C11   C     C_R   0.429742 0.499762 0.237324 0.159182
C12   C     C_R   0.570206 0.500213 0.762687 0.159259
C13   C     C_R   0.497952 0.499634 0.209363 0.342377
C14   C     C_R   0.501986 0.500352 0.790635 0.342543
C15   C     C_R   0.847645 0.573755 0.494298 0.080439
C16   C     C_R   0.152092 0.426291 0.505726 0.084701
C17   C     C_R   0.151978 0.573365 0.505515 0.078261
C18   C     C_R   0.847954 0.426508 0.493930 0.114072
C19   C     C_R   0.769172 0.574094 0.491965 -0.024676
C20   C     C_R   0.230843 0.425789 0.508261 -0.065177
C21   C     C_R   0.230730 0.574033 0.508050 -0.057837
C22   C     C_R   0.769192 0.425895 0.491598 -0.063190
C23   C     C_R   0.728378 0.499985 0.493919 -0.177268
C24   C     C_R   0.271598 0.499945 0.506059 -0.151008
C25   C     C_R   0.886393 0.500063 0.496357 0.061559
C26   C     C_R   0.113618 0.499783 0.503249 0.112489
C27   C     C_R   0.499356 0.499996 0.391097 0.828924
C28   C     C_R   0.500639 0.500003 0.608902 0.829128
C29   C     C_1   0.966526 0.499799 0.498778 0.019168
C30   C     C_1   0.033502 0.499722 0.500748 0.083291
C31   C     C_R   0.546004 0.829979 0.538548 -0.004036
C32   C     C_R   0.453913 0.170026 0.461507 -0.004828
C33   C     C_R   0.453981 0.829962 0.461460 -0.004607
C34   C     C_R   0.546086 0.170040 0.538492 -0.004699
C35   C     C_R   0.545178 0.743790 0.538003 0.108243
C36   C     C_R   0.454746 0.256214 0.462047 0.110753
C37   C     C_R   0.454811 0.743774 0.462002 0.111378
C38   C     C_R   0.545256 0.256229 0.537950 0.111211
C39   C     C_R   0.499994 0.873571 0.500002 0.121527
C40   C     C_R   0.499998 0.126433 0.500000 0.121559
C41   C     C_1   0.499994 0.962943 0.500002 0.099173
C42   C     C_1   0.499996 0.037061 0.500001 0.099182
C43   C     C_R   0.514072 0.571663 0.880302 0.589180
C44   C     C_R   0.485843 0.428328 0.119696 0.589221
C45   C     C_R   0.487761 0.429993 0.879622 0.561774
C46   C     C_R   0.512153 0.569998 0.120376 0.561815
C47   C     C_R   0.486939 0.428489 0.939217 -0.032743
C48   C     C_R   0.512969 0.571503 0.060781 -0.032773
C49   C     C_R   0.500251 0.500564 0.969895 -0.061951
C50   C     C_R   0.499656 0.499428 0.030102 -0.061960
C51   C     C_R   0.514115 0.573600 0.940440 -0.017463
C52   C     C_R   0.485793 0.426392 0.059557 -0.017458
C53   C     C_R   0.473220 0.356389 0.968460 -0.210234
C54   C     C_R   0.526686 0.643603 0.031538 -0.210177
C55   C     C_R   0.472485 0.354501 0.027953 0.159650
C56   C     C_R   0.527420 0.645491 0.972045 0.159619
Cu1   Cu    Cu3+1 0.500000 0.580420 0.500000 0.992419
Cu2   Cu    Cu3+1 0.500000 0.419580 0.500000 0.995344
H1    H     H_    0.462896 0.300601 0.945263 0.188222
H2    H     H_    0.537009 0.699392 0.054735 0.188268
H3    H     H_    0.617917 0.499862 0.218340 0.155295
H4    H     H_    0.382024 0.500143 0.781637 0.155127
N1    N     N_R   0.501253 0.500681 0.851662 -0.457683
N2    N     N_R   0.498667 0.499309 0.148336 -0.457678
N3    N     N_R   0.500000 0.701220 0.500000 -0.228289
N4    N     N_R   0.500000 0.298780 0.500000 -0.227943
O1    O     O_R   0.391260 0.567930 0.500000 -0.576616
O2    O     O_R   0.608740 0.432070 0.500000 -0.573143
O3    O     O_R   0.608740 0.567930 0.500000 -0.584245
O4    O     O_R   0.391260 0.432070 0.500000 -0.576460
O5    O     O_R   0.499980 0.567930 0.417880 -0.579080
O6    O     O_R   0.500020 0.432070 0.582120 -0.578702
O7    O     O_R   0.500020 0.567930 0.582120 -0.578571
O8    O     O_R   0.499980 0.432070 0.417880 -0.578985
O9    O     O_2   0.526461 0.639715 0.850347 -0.489906
O10   O     O_2   0.473459 0.360274 0.149651 -0.489978
O11   O     O_2   0.475504 0.361279 0.849690 -0.531451
O12   O     O_2   0.524412 0.638711 0.150308 -0.531291
C57   C     C_1   0.593775 0.701599 0.578049 0.323017
N5    N     N_1   0.633401 0.668919 0.610437 -0.286246
C58   C     C_1   0.406068 0.298413 0.422062 0.325783
N6    N     N_1   0.366375 0.331102 0.389726 -0.288150
C59   C     C_1   0.406192 0.701566 0.421971 0.325728
N7    N     N_1   0.366547 0.668871 0.389598 -0.290876
C60   C     C_1   0.593940 0.298443 0.577933 0.325657
N8    N     N_1   0.633636 0.331148 0.610266 -0.290316
N9    N     N_3   0.458054 0.279025 0.055572 -0.503872
H5    H     H_    0.405839 0.257846 0.040799 0.225095
H6    H     H_    0.498584 0.237386 0.043413 0.224779
N10   N     N_3   0.541850 0.720967 0.944426 -0.503826
H7    H     H_    0.594064 0.742147 0.959198 0.225213
H8    H     H_    0.501319 0.762605 0.956584 0.224722
C61   C     C_1   0.637936 0.500258 0.330672 0.257252
N11   N     N_1   0.695194 0.500406 0.355067 -0.292399
C62   C     C_1   0.362040 0.499753 0.669302 0.257387
N12   N     N_1   0.304788 0.499611 0.644897 -0.291996
C63   C     C_1   0.359455 0.499920 0.326140 0.280335
N13   N     N_1   0.303115 0.499969 0.349079 -0.260354
C64   C     C_1   0.640521 0.500050 0.673885 0.280567
N14   N     N_1   0.696868 0.499998 0.650956 -0.259091
N15   N     N_3   0.361061 0.500237 0.204036 -0.564946
H9    H     H_    0.330574 0.551675 0.214840 0.230336
H10   H     H_    0.330101 0.449054 0.214670 0.241066
N16   N     N_3   0.638877 0.499726 0.795988 -0.564861
H11   H     H_    0.669847 0.550903 0.785361 0.241270
H12   H     H_    0.669359 0.448283 0.785188 0.230404
N17   N     N_3   0.887655 0.649255 0.494004 -0.575086
H13   H     H_    0.921944 0.650006 0.458781 0.237842
H14   H     H_    0.921700 0.652595 0.530955 0.238858
N18   N     N_3   0.110091 0.352081 0.506081 -0.568131
H15   H     H_    0.125977 0.316629 0.471645 0.233743
H16   H     H_    0.123366 0.320916 0.543786 0.234627
N19   N     N_3   0.109852 0.647494 0.505656 -0.602451
H17   H     H_    0.123062 0.678908 0.543274 0.235495
H18   H     H_    0.125670 0.682775 0.471118 0.234805
N20   N     N_3   0.889995 0.352333 0.493428 -0.564455
H19   H     H_    0.874296 0.316838 0.527894 0.231994
H20   H     H_    0.876570 0.321185 0.455738 0.232706
C65   C     C_1   0.732903 0.651773 0.483729 0.372191
N21   N     N_1   0.704788 0.714186 0.476563 -0.285853
C66   C     C_1   0.267437 0.348338 0.516843 0.295621
N22   N     N_1   0.295812 0.286118 0.524280 -0.290403
C67   C     C_1   0.267208 0.651596 0.516410 0.296727
N23   N     N_1   0.295480 0.713912 0.523675 -0.291422
C68   C     C_1   0.732628 0.348400 0.483117 0.293807
N24   N     N_1   0.704276 0.286144 0.475762 -0.290445
N25   N     N_3   0.593634 0.873739 0.578123 -0.569674
H21   H     H_    0.649087 0.856939 0.571599 0.240329
H22   H     H_    0.579969 0.857039 0.619428 0.233258
N26   N     N_3   0.406195 0.126269 0.421991 -0.570629
H23   H     H_    0.419771 0.142965 0.380665 0.233149
H24   H     H_    0.350761 0.143076 0.428584 0.237681
N27   N     N_3   0.406336 0.873704 0.421894 -0.570811
H25   H     H_    0.350886 0.856892 0.428428 0.237549
H26   H     H_    0.419989 0.857002 0.380586 0.232423
N28   N     N_3   0.593805 0.126298 0.578007 -0.570302
H27   H     H_    0.649239 0.143112 0.571412 0.237985
H28   H     H_    0.580231 0.143001 0.619332 0.232334

loop_
_geom_bond_atom_site_label_1
_geom_bond_atom_site_label_2
_ccdc_geom_bond_type
N9    H5    S    
C61   N11   T    
C41   C42   T    
C19   C23   A    
C62   N12   T    
C31   N25   S    
Cu2   O6    S    
N16   H12   S    
C63   N13   T    
C53   H1    S    
C17   N19   S    
C67   N23   T    
C39   C41   S    
C54   H2    S    
C60   N8    T    
C44   N2    A    
C15   C19   A    
N15   H9    S    
C34   C40   A    
C17   C26   A    
C32   C36   A    
C12   N16   S    
C2    O2    A    
C36   N4    A    
C15   C25   A    
C35   N3    A    
C3    H3    S    
C15   N17   S    
C4    H4    S    
C7    C27   S    
N20   H19   S    
C51   C56   A    
C45   C47   A    
Cu1   O7    S    
C44   O10   S    
N18   H15   S    
Cu2   N4    S    
C20   C24   A    
N20   H20   S    
C49   C51   A    
C37   N3    A    
C50   C52   A    
N17   H13   S    
C40   C42   S    
C27   O8    A    
C3    C13   A    
C52   C55   A    
C47   C53   A    
C44   C52   A    
C48   C50   A    
C19   C65   S    
N15   H10   S    
C34   C38   A    
C25   C29   S    
N17   H14   S    
C28   O6    A    
C18   C25   A    
Cu1   O1    S    
C28   O7    A    
C32   N26   S    
N16   H11   S    
C58   N6    T    
C5    C7    A    
C53   C55   A    
C43   O9    S    
C46   C48   A    
C38   C60   S    
C16   N18   S    
C38   N4    A    
C4    C6    A    
C18   N20   S    
C48   C54   A    
Cu2   O4    S    
C22   C68   S    
C6    C8    A    
C45   N1    A    
C33   C37   A    
C46   N2    A    
C21   C67   S    
N26   H24   S    
N25   H22   S    
C29   C30   T    
N10   H8    S    
C59   N7    T    
C34   N28   S    
C36   C58   S    
C16   C20   A    
C20   C66   S    
C11   N15   S    
C33   C39   A    
Cu1   O5    S    
C9    C11   A    
C66   N22   T    
C10   C12   A    
N28   H28   S    
C12   C14   A    
C26   C30   S    
N9    H6    S    
C68   N24   T    
C8    C28   S    
C49   C50   A    
C31   C35   A    
C35   C57   S    
N10   H7    S    
N25   H21   S    
C2    O3    A    
C27   O5    A    
Cu2   O8    S    
C46   O12   S    
N19   H17   S    
Cu2   O2    S    
C7    C9    A    
C9    C63   S    
C18   C22   A    
Cu1   N3    S    
N28   H27   S    
C3    C5    A    
C16   C26   A    
C5    C61   S    
C65   N21   T    
C54   C56   A    
C47   C49   A    
C1    O4    A    
C64   N14   T    
N26   H23   S    
C4    C14   A    
C11   C13   A    
C43   C51   A    
Cu1   Cu2   S    
N27   H25   S    
C13   N2    S    
C14   N1    S    
C56   N10   S    
C1    O1    A    
C31   C39   A    
C32   C40   A    
C55   N9    S    
C10   C64   S    
N18   H16   S    
C57   N5    T    
C33   N27   S    
C1    C24   S    
C8    C10   A    
C6    C62   S    
C43   N1    A    
C21   C24   A    
C2    C23   S    
N27   H26   S    
C22   C23   A    
C37   C59   S    
C45   O11   S    
Cu1   O3    S    
N19   H18   S    
C17   C21   A    
