data_mof_unit_64703.cif
_audit_creation_date              2013-03-05T16:46:25-0500
_audit_creation_method            fapswitch 2.2
_symmetry_space_group_name_H-M    P1
_symmetry_Int_Tables_number       1
_space_group_crystal_system       triclinic
_cell_length_a                    26.022865
_cell_length_b                    27.746039
_cell_length_c                    18.960164
_cell_angle_alpha                 90.000583
_cell_angle_beta                  133.060471
_cell_angle_gamma                 90.000051
_cell_volume                      10002.2515421

loop_
_atom_site_label
_atom_site_type_symbol
_atom_site_description
_atom_site_fract_x
_atom_site_fract_y
_atom_site_fract_z
_atom_type_partial_charge
Zn1   Zn    Zn3+2 0.996430 0.710180 0.579620 1.038988
Zn2   Zn    Zn3+2 0.003570 0.289820 0.420380 1.038948
Zn3   Zn    Zn3+2 0.003570 0.710180 0.420380 1.038974
Zn4   Zn    Zn3+2 0.996430 0.289820 0.579620 1.038896
Zn5   Zn    Zn3+2 0.496430 0.210180 0.579620 1.038940
Zn6   Zn    Zn3+2 0.503570 0.789820 0.420380 1.038983
Zn7   Zn    Zn3+2 0.503570 0.210180 0.420380 1.038872
Zn8   Zn    Zn3+2 0.496430 0.789820 0.579620 1.038973
Zn9   Zn    Zn3+2 0.916810 0.789800 0.420370 1.081009
Zn10  Zn    Zn3+2 0.083190 0.210200 0.579630 1.081068
Zn11  Zn    Zn3+2 0.083190 0.789800 0.579630 1.081023
Zn12  Zn    Zn3+2 0.916810 0.210200 0.420370 1.080953
Zn13  Zn    Zn3+2 0.416810 0.289800 0.420370 1.081082
Zn14  Zn    Zn3+2 0.583190 0.710200 0.579630 1.081012
Zn15  Zn    Zn3+2 0.583190 0.289800 0.579630 1.080978
Zn16  Zn    Zn3+2 0.416810 0.710200 0.420370 1.081027
O1    O     O_3   0.000000 0.749990 0.500000 -0.527479
O2    O     O_3   0.000000 0.250010 0.500000 -0.527457
O3    O     O_3   0.500000 0.249990 0.500000 -0.527460
O4    O     O_3   0.500000 0.750010 0.500000 -0.527479
O5    O     O_R   0.058230 0.856270 0.555710 -0.622572
O6    O     O_R   0.941770 0.143730 0.444290 -0.622657
O7    O     O_R   0.941770 0.856270 0.444290 -0.622584
O8    O     O_R   0.058230 0.143730 0.555710 -0.622549
O9    O     O_R   0.558230 0.356270 0.555710 -0.622645
O10   O     O_R   0.441770 0.643730 0.444290 -0.622571
O11   O     O_R   0.441770 0.356270 0.444290 -0.622546
O12   O     O_R   0.558230 0.643730 0.555710 -0.622583
O13   O     O_R   0.997500 0.643710 0.555730 -0.614558
O14   O     O_R   0.002500 0.356290 0.444270 -0.614603
O15   O     O_R   0.002500 0.643710 0.444270 -0.614584
O16   O     O_R   0.997500 0.356290 0.555730 -0.614510
O17   O     O_R   0.497500 0.143710 0.555730 -0.614599
O18   O     O_R   0.502500 0.856290 0.444270 -0.614562
O19   O     O_R   0.502500 0.143710 0.444270 -0.614530
O20   O     O_R   0.497500 0.856290 0.555730 -0.614584
O21   O     O_R   0.856330 0.777850 0.444260 -0.586342
O22   O     O_R   0.143670 0.222150 0.555740 -0.586317
O23   O     O_R   0.143670 0.777850 0.555740 -0.586337
O24   O     O_R   0.856330 0.222150 0.444260 -0.586407
O25   O     O_R   0.356330 0.277850 0.444260 -0.586314
O26   O     O_R   0.643670 0.722150 0.555740 -0.586341
O27   O     O_R   0.643670 0.277850 0.555740 -0.586383
O28   O     O_R   0.356330 0.722150 0.444260 -0.586337
O29   O     O_R   0.087950 0.722120 0.444280 -0.657305
O30   O     O_R   0.912050 0.277880 0.555720 -0.657559
O31   O     O_R   0.912050 0.722120 0.555720 -0.657304
O32   O     O_R   0.087950 0.277880 0.444280 -0.657292
O33   O     O_R   0.587950 0.222120 0.444280 -0.657543
O34   O     O_R   0.412050 0.777880 0.555720 -0.657305
O35   O     O_R   0.412050 0.222120 0.555720 -0.657293
O36   O     O_R   0.587950 0.777880 0.444280 -0.657303
O37   O     O_R   0.863370 0.777840 0.287440 -0.596014
O38   O     O_R   0.136630 0.222160 0.712560 -0.596021
O39   O     O_R   0.136630 0.777840 0.712560 -0.596018
O40   O     O_R   0.863370 0.222160 0.287440 -0.595925
O41   O     O_R   0.363370 0.277840 0.287440 -0.596000
O42   O     O_R   0.636630 0.722160 0.712560 -0.596013
O43   O     O_R   0.636630 0.277840 0.712560 -0.595923
O44   O     O_R   0.363370 0.722160 0.287440 -0.596016
O45   O     O_R   0.924090 0.722120 0.287440 -0.635756
O46   O     O_R   0.075910 0.277880 0.712560 -0.635671
O47   O     O_R   0.075910 0.722120 0.712560 -0.635749
O48   O     O_R   0.924090 0.277880 0.287440 -0.635779
O49   O     O_R   0.424090 0.222120 0.287440 -0.635702
O50   O     O_R   0.575910 0.777880 0.712560 -0.635758
O51   O     O_R   0.575910 0.222120 0.712560 -0.635782
O52   O     O_R   0.424090 0.777880 0.287440 -0.635751
C1    C     C_R   0.000000 0.879248 0.500000 0.818345
C2    C     C_R   1.000000 0.120752 0.499999 0.818321
C3    C     C_R   0.500000 0.379248 0.500001 0.818327
C4    C     C_R   0.500000 0.620752 0.500000 0.818346
C5    C     C_R   1.000000 0.620679 0.500000 0.858556
C6    C     C_R   0.000000 0.379321 0.500000 0.858509
C7    C     C_R   0.500000 0.120679 0.499999 0.858503
C8    C     C_R   0.500000 0.879321 0.500000 0.858554
C9    C     C_R   0.860068 0.750027 0.500646 0.906956
C10   C     C_R   0.139931 0.249973 0.499353 0.906984
C11   C     C_R   0.139932 0.750027 0.499353 0.906971
C12   C     C_R   0.860075 0.249967 0.500661 0.906701
C13   C     C_R   0.360068 0.250027 0.500646 0.906982
C14   C     C_R   0.639932 0.749973 0.499354 0.906956
C15   C     C_R   0.639926 0.250032 0.499342 0.906707
C16   C     C_R   0.360068 0.749973 0.500646 0.906970
C17   C     C_R   0.870807 0.749961 0.241452 0.831800
C18   C     C_R   0.129191 0.250038 0.758548 0.831954
C19   C     C_R   0.129193 0.749961 0.758548 0.831796
C20   C     C_R   0.870807 0.250038 0.241452 0.831792
C21   C     C_R   0.370808 0.249962 0.241452 0.831936
C22   C     C_R   0.629193 0.750039 0.758548 0.831799
C23   C     C_R   0.629193 0.249961 0.758548 0.831788
C24   C     C_R   0.370807 0.750038 0.241452 0.831796
C25   C     C_1   0.180939 0.749919 0.862080 -0.041599
C26   C     C_1   0.819061 0.250081 0.137920 -0.041585
C27   C     C_1   0.819062 0.749918 0.137920 -0.041605
C28   C     C_1   0.180932 0.250079 0.862080 -0.041655
C29   C     C_1   0.680939 0.249919 0.862080 -0.041581
C30   C     C_1   0.319061 0.750081 0.137920 -0.041599
C31   C     C_1   0.319065 0.249919 0.137920 -0.041640
C32   C     C_1   0.680938 0.750082 0.862080 -0.041604
C33   C     C_1   0.224511 0.749969 0.949068 0.169600
C34   C     C_1   0.775489 0.250030 0.050932 0.169590
C35   C     C_1   0.775489 0.749969 0.050932 0.169595
C36   C     C_1   0.224505 0.250028 0.949068 0.168605
C37   C     C_1   0.724511 0.249969 0.949068 0.169593
C38   C     C_1   0.275489 0.750031 0.050932 0.169600
C39   C     C_1   0.275491 0.249968 0.050932 0.168659
C40   C     C_1   0.724511 0.750031 0.949068 0.169597
C41   C     C_1   0.000000 0.568928 0.499999 -0.080948
C42   C     C_1   0.000000 0.431072 0.500001 -0.080896
C43   C     C_1   0.500000 0.068928 0.499999 -0.080913
C44   C     C_1   0.500000 0.931072 0.500000 -0.080955
C45   C     C_1   1.000000 0.525459 0.500000 0.066159
C46   C     C_1   0.000000 0.474541 0.500001 0.066179
C47   C     C_1   0.500000 0.025459 0.499999 0.066165
C48   C     C_1   0.500000 0.974541 0.500000 0.066150
C49   C     C_R   0.997074 0.717895 0.177937 0.252190
C50   C     C_R   0.002842 0.282938 0.821637 0.252284
C51   C     C_R   0.002925 0.717900 0.822063 0.252170
C52   C     C_R   0.997077 0.282087 0.177922 0.252168
C53   C     C_R   0.497155 0.217126 0.178325 0.252277
C54   C     C_R   0.502926 0.782101 0.822065 0.252191
C55   C     C_R   0.502923 0.217917 0.822081 0.252171
C56   C     C_R   0.497075 0.782100 0.177937 0.252176
C57   C     C_R   0.065657 0.715689 0.269282 -0.174280
C58   C     C_R   0.934268 0.284901 0.730233 -0.174242
C59   C     C_R   0.934342 0.715692 0.730718 -0.174279
C60   C     C_R   0.065658 0.284297 0.269271 -0.174269
C61   C     C_R   0.565731 0.215139 0.269721 -0.174233
C62   C     C_R   0.434343 0.784309 0.730720 -0.174282
C63   C     C_R   0.434342 0.215705 0.730732 -0.174270
C64   C     C_R   0.565658 0.784307 0.269282 -0.174281
H1    H     H_    0.088403 0.681012 0.303712 0.217174
H2    H     H_    0.911461 0.319469 0.695238 0.217150
H3    H     H_    0.911596 0.681015 0.696289 0.217177
H4    H     H_    0.088402 0.318976 0.303694 0.217181
H5    H     H_    0.588534 0.180560 0.304655 0.217140
H6    H     H_    0.411597 0.818986 0.696293 0.217174
H7    H     H_    0.411598 0.181025 0.696313 0.217179
H8    H     H_    0.588405 0.818985 0.303710 0.217175
C65   C     C_R   0.105307 0.757590 0.317752 -0.035437
C66   C     C_R   0.894723 0.242888 0.682387 -0.035388
C67   C     C_R   0.894693 0.757593 0.682247 -0.035436
C68   C     C_R   0.105308 0.242399 0.317753 -0.035452
C69   C     C_R   0.605284 0.257141 0.317630 -0.035367
C70   C     C_R   0.394692 0.742408 0.682247 -0.035436
C71   C     C_R   0.394692 0.257603 0.682246 -0.035449
C72   C     C_R   0.605307 0.742407 0.317753 -0.035435
C73   C     C_R   0.075924 0.803122 0.274108 0.273170
C74   C     C_R   0.924184 0.197497 0.726787 0.273654
C75   C     C_R   0.924077 0.803126 0.725891 0.273193
C76   C     C_R   0.075926 0.196864 0.274118 0.273149
C77   C     C_R   0.575827 0.302546 0.273310 0.273585
C78   C     C_R   0.424075 0.696875 0.725887 0.273165
C79   C     C_R   0.424074 0.303139 0.725876 0.273143
C80   C     C_R   0.575923 0.696874 0.274110 0.273188
C81   C     C_R   0.007817 0.805135 0.181700 -0.285153
C82   C     C_R   0.992243 0.195736 0.819298 -0.284816
C83   C     C_R   0.992184 0.805140 0.818298 -0.285168
C84   C     C_R   0.007820 0.194847 0.181708 -0.285218
C85   C     C_R   0.507763 0.304332 0.180813 -0.284863
C86   C     C_R   0.492183 0.694862 0.818295 -0.285155
C87   C     C_R   0.492179 0.305157 0.818285 -0.285214
C88   C     C_R   0.507816 0.694860 0.181703 -0.285166
H9    H     H_    0.985613 0.839765 0.146885 0.245107
H10   H     H_    0.014478 0.161218 0.854683 0.245091
H11   H     H_    0.014389 0.839770 0.853113 0.245100
H12   H     H_    0.985616 0.160215 0.146899 0.245122
H13   H     H_    0.485527 0.338861 0.145488 0.245094
H14   H     H_    0.514387 0.660231 0.853107 0.245108
H15   H     H_    0.514383 0.339790 0.853090 0.245121
H16   H     H_    0.485610 0.660229 0.146888 0.245102
C89   C     C_R   0.968419 0.763165 0.132351 0.200519
C90   C     C_R   0.031551 0.237823 0.868002 0.200414
C91   C     C_R   0.031581 0.763170 0.867649 0.200524
C92   C     C_R   0.968424 0.236814 0.132346 0.200465
C93   C     C_R   0.468448 0.262256 0.132044 0.200441
C94   C     C_R   0.531580 0.736831 0.867648 0.200520
C95   C     C_R   0.531576 0.263190 0.867652 0.200472
C96   C     C_R   0.468419 0.736829 0.132352 0.200522
C97   C     C_R   0.233590 0.753352 0.412041 0.293466
C98   C     C_R   0.766418 0.246878 0.587987 0.293475
C99   C     C_R   0.766410 0.753354 0.587959 0.293462
C100  C     C_R   0.233590 0.246641 0.412042 0.293474
C101  C     C_R   0.733585 0.253124 0.412020 0.293432
C102  C     C_R   0.266410 0.746647 0.587959 0.293464
C103  C     C_R   0.266410 0.253358 0.587958 0.293469
C104  C     C_R   0.733590 0.746647 0.412041 0.293462
C105  C     C_R   0.304054 0.750929 0.500702 -0.176853
C106  C     C_R   0.695943 0.249072 0.499293 -0.177263
C107  C     C_R   0.695946 0.750929 0.499298 -0.176852
C108  C     C_R   0.304054 0.249071 0.500702 -0.176836
C109  C     C_R   0.804060 0.250928 0.500713 -0.177324
C110  C     C_R   0.195946 0.749070 0.499298 -0.176856
C111  C     C_R   0.195945 0.250929 0.499297 -0.176841
C112  C     C_R   0.804054 0.749071 0.500702 -0.176850
C113  C     C_R   0.320721 0.747768 0.588824 -0.048440
C114  C     C_R   0.679271 0.252004 0.411142 -0.048360
C115  C     C_R   0.679279 0.747767 0.411176 -0.048437
C116  C     C_R   0.320721 0.252238 0.588823 -0.048446
C117  C     C_R   0.820733 0.248003 0.588866 -0.048331
C118  C     C_R   0.179279 0.752232 0.411176 -0.048439
C119  C     C_R   0.179279 0.247762 0.411176 -0.048444
C120  C     C_R   0.820721 0.752233 0.588824 -0.048436
C121  C     C_1   0.000001 0.931034 0.500000 -0.070978
C122  C     C_1   0.999999 0.068965 0.499998 -0.071054
C123  C     C_1   0.500001 0.431034 0.500002 -0.071037
C124  C     C_1   0.499999 0.568966 0.500000 -0.070971
C125  C     C_1   0.000000 0.974524 0.499999 0.061124
C126  C     C_1   1.000000 0.025475 0.499998 0.061096
C127  C     C_1   0.500000 0.474525 0.500001 0.061110
C128  C     C_1   0.499999 0.525475 0.500000 0.061134
N1    N     N_R   0.901433 0.767073 0.034745 0.232044
O53   O     O_R   0.882981 0.735483 0.970215 -0.245034
O54   O     O_R   0.863933 0.806035 0.006452 -0.366391
N2    N     N_R   0.098491 0.234217 0.965738 0.232294
O55   O     O_R   0.116903 0.266235 0.029626 -0.244967
O56   O     O_R   0.135976 0.195183 0.994846 -0.365965
N3    N     N_R   0.098567 0.767080 0.965253 0.232041
O57   O     O_R   0.117018 0.735492 0.029785 -0.245032
O58   O     O_R   0.136069 0.806041 0.993545 -0.366401
N4    N     N_R   0.901441 0.232902 0.034738 0.232038
O59   O     O_R   0.883002 0.264480 0.970199 -0.245089
O60   O     O_R   0.863934 0.193944 0.006454 -0.366352
N5    N     N_R   0.401503 0.265893 0.034324 0.232276
O61   O     O_R   0.383099 0.233928 0.970363 -0.244959
O62   O     O_R   0.364008 0.304914 0.005309 -0.366012
N6    N     N_R   0.598567 0.732922 0.965253 0.232043
O63   O     O_R   0.617019 0.764510 0.029786 -0.245035
O64   O     O_R   0.636068 0.693960 0.993542 -0.366392
N7    N     N_R   0.598559 0.267105 0.965259 0.232038
O65   O     O_R   0.616999 0.235530 0.029803 -0.245083
O66   O     O_R   0.636067 0.306062 0.993537 -0.366361
N8    N     N_R   0.401432 0.732920 0.034747 0.232041
O67   O     O_R   0.382982 0.764508 0.970215 -0.245034
O68   O     O_R   0.363930 0.693959 0.006456 -0.366396
N9    N     N_R   0.956937 0.674188 0.134070 0.253043
O69   O     O_R   0.890575 0.673651 0.088617 -0.334081
O70   O     O_R   0.988559 0.633461 0.151310 -0.289150
N10   N     N_R   0.042929 0.326710 0.864753 0.253053
O71   O     O_R   0.109285 0.327153 0.910174 -0.333768
O72   O     O_R   0.011250 0.367520 0.846732 -0.289708
N11   N     N_R   0.043061 0.674193 0.865931 0.253051
O73   O     O_R   0.109423 0.673656 0.911384 -0.334057
O74   O     O_R   0.011438 0.633466 0.848691 -0.289075
N12   N     N_R   0.956940 0.325792 0.134040 0.253028
O75   O     O_R   0.890575 0.326329 0.088570 -0.334058
O76   O     O_R   0.988564 0.366519 0.151280 -0.289189
N13   N     N_R   0.457066 0.173359 0.135128 0.253051
O77   O     O_R   0.390706 0.172905 0.089692 -0.333800
O78   O     O_R   0.488741 0.132559 0.153069 -0.289670
N14   N     N_R   0.543063 0.825808 0.865936 0.253043
O79   O     O_R   0.609425 0.826346 0.911389 -0.334083
O80   O     O_R   0.511441 0.866535 0.848699 -0.289152
N15   N     N_R   0.543059 0.174212 0.865968 0.253029
O81   O     O_R   0.609425 0.173674 0.911438 -0.334061
O82   O     O_R   0.511436 0.133485 0.848734 -0.289182
N16   N     N_R   0.456939 0.825807 0.134068 0.253049
O83   O     O_R   0.390578 0.826344 0.088616 -0.334063
O84   O     O_R   0.488563 0.866534 0.151308 -0.289090
N17   N     N_R   0.114547 0.847289 0.320735 0.231912
O85   O     O_R   0.161268 0.851051 0.414342 -0.371664
O86   O     O_R   0.098947 0.885480 0.269457 -0.294950
N18   N     N_R   0.885671 0.153234 0.680796 0.232007
O87   O     O_R   0.839210 0.149073 0.587254 -0.371773
O88   O     O_R   0.901145 0.115328 0.732645 -0.294504
N19   N     N_R   0.885455 0.847292 0.679263 0.231897
O89   O     O_R   0.838734 0.851052 0.585656 -0.371712
O90   O     O_R   0.901056 0.885484 0.730540 -0.295041
N20   N     N_R   0.114548 0.152699 0.320756 0.231909
O91   O     O_R   0.161272 0.148945 0.414364 -0.371653
O92   O     O_R   0.098944 0.114502 0.269489 -0.294995
N21   N     N_R   0.614349 0.346801 0.319364 0.232001
O93   O     O_R   0.660839 0.350922 0.412912 -0.371771
O94   O     O_R   0.598856 0.384736 0.267571 -0.294557
N22   N     N_R   0.385452 0.652709 0.679257 0.231912
O95   O     O_R   0.338730 0.648949 0.585650 -0.371662
O96   O     O_R   0.401053 0.614516 0.730533 -0.294949
N23   N     N_R   0.385451 0.347303 0.679233 0.231908
O97   O     O_R   0.338725 0.351054 0.585625 -0.371652
O98   O     O_R   0.401056 0.385502 0.730497 -0.294991
N24   N     N_R   0.614545 0.652708 0.320738 0.231901
O99   O     O_R   0.661268 0.648949 0.414345 -0.371704
O100  O     O_R   0.598942 0.614515 0.269460 -0.295031
N25   N     N_R   0.217253 0.758967 0.323073 0.223297
O101  O     O_R   0.244159 0.794470 0.312468 -0.343569
O102  O     O_R   0.175448 0.728691 0.252469 -0.293503
N26   N     N_R   0.782780 0.241501 0.677010 0.223362
O103  O     O_R   0.756146 0.205983 0.688046 -0.342998
O104  O     O_R   0.824395 0.271980 0.747272 -0.293674
N27   N     N_R   0.782747 0.758969 0.676927 0.223299
O105  O     O_R   0.755841 0.794472 0.687532 -0.343573
O106  O     O_R   0.824553 0.728694 0.747532 -0.293507
N28   N     N_R   0.217255 0.241020 0.323075 0.223264
O107  O     O_R   0.244165 0.205516 0.312479 -0.343644
O108  O     O_R   0.175447 0.271292 0.252464 -0.293451
N29   N     N_R   0.717222 0.258507 0.322997 0.223368
O109  O     O_R   0.743858 0.294026 0.311968 -0.343018
O110  O     O_R   0.675608 0.228030 0.252731 -0.293677
N30   N     N_R   0.282747 0.741032 0.676926 0.223296
O111  O     O_R   0.255840 0.705529 0.687530 -0.343568
O112  O     O_R   0.324551 0.771308 0.747531 -0.293504
N31   N     N_R   0.282745 0.258980 0.676924 0.223265
O113  O     O_R   0.255836 0.294484 0.687521 -0.343631
O114  O     O_R   0.324551 0.228707 0.747534 -0.293457
N32   N     N_R   0.717253 0.741031 0.323073 0.223298
O115  O     O_R   0.744158 0.705528 0.312467 -0.343570
O116  O     O_R   0.675449 0.771307 0.252470 -0.293509

loop_
_geom_bond_atom_site_label_1
_geom_bond_atom_site_label_2
_geom_bond_distance
_ccdc_geom_bond_type
N15   O82   1.301415 A    
C62   C70   1.402109 A    
N27   O105  1.301262 A    
Zn5   O51   1.903128 S    
N31   O114  1.300972 A    
O49   C21   1.276181 A    
C82   H10   1.082644 S    
N24   O99   1.300929 A    
C11   C110  1.458608 S    
C21   C31   1.434237 S    
C103  N31   1.439167 S    
C111  C119  1.413462 A    
C105  C113  1.413458 A    
C109  C117  1.413547 A    
N24   O100  1.301530 A    
C82   C90   1.404557 A    
C112  C120  1.413462 A    
C71   C79   1.414733 A    
Zn16  O28   1.940523 S    
C61   C69   1.402118 A    
Zn4   O2    1.923304 S    
C3    C123  1.436867 S    
C49   N9    1.437725 S    
C71   C116  1.486287 S    
N8    O68   1.301503 A    
C73   N17   1.442247 S    
N6    O63   1.301350 A    
N1    O54   1.301501 A    
C66   C117  1.486424 S    
C25   C33   1.205061 T    
O22   C10   1.267424 A    
C77   C85   1.404851 A    
Zn12  O24   1.940523 S    
C89   N1    1.438764 S    
N31   O113  1.301266 A    
C70   C78   1.414728 A    
C124  C128  1.206678 T    
Zn1   O13   1.903814 S    
N32   O115  1.301263 A    
C59   C67   1.402108 A    
Zn3   O15   1.903823 S    
C60   C68   1.402109 A    
Zn4   O16   1.903823 S    
O45   C17   1.276190 A    
Zn7   O3    1.923304 S    
C28   C36   1.205061 T    
N6    O64   1.301503 A    
N20   O92   1.301526 A    
C95   N7    1.438762 S    
C62   H6    1.083792 S    
Zn8   O34   1.943689 S    
O11   C3    1.277767 A    
N30   O111  1.301268 A    
C49   C89   1.414464 A    
C29   C37   1.205061 T    
C6    C42   1.435891 S    
C30   C38   1.205061 T    
C103  C116  1.402515 A    
Zn10  O22   1.940525 S    
C79   C87   1.404887 A    
C99   N27   1.439168 S    
N25   O102  1.300970 A    
C66   C74   1.414676 A    
Zn6   O4    1.923322 S    
Zn10  O2    1.929483 S    
O52   C24   1.276186 A    
C83   H11   1.082598 S    
Zn3   O1    1.923304 S    
C108  C116  1.413460 A    
C54   N14   1.437727 S    
C61   H5    1.083813 S    
C26   C34   1.205061 T    
Zn5   O35   1.943692 S    
C77   N21   1.442135 S    
C98   C106  1.408409 A    
Zn6   O36   1.943693 S    
C36   C39   1.411138 S    
N26   O104  1.300977 A    
N14   O79   1.301114 A    
C14   C107  1.458607 S    
C98   C117  1.402461 A    
O27   C15   1.267440 A    
C15   C106  1.458594 S    
C102  N30   1.439164 S    
O8    C2    1.277767 A    
C4    C124  1.436867 S    
O46   C18   1.276178 A    
N13   O77   1.301124 A    
C92   N4    1.438761 S    
N27   O106  1.300972 A    
N2    O56   1.301504 A    
O16   C6    1.273953 A    
N17   O85   1.300929 A    
O14   C6    1.273952 A    
O40   C20   1.275348 A    
Zn13  O41   1.900035 S    
C47   C48   1.412751 S    
Zn12  O6    1.904393 S    
C56   C64   1.402729 A    
Zn16  O44   1.900044 S    
C79   N23   1.442252 S    
O17   C7    1.273952 A    
C57   C65   1.402109 A    
N18   O87   1.300962 A    
Zn5   O17   1.903814 S    
C102  C113  1.402515 A    
C63   C71   1.402111 A    
O9    C3    1.277770 A    
O35   C13   1.261318 A    
C85   H13   1.082616 S    
N23   O98   1.301532 A    
N9    O69   1.301113 A    
C123  C127  1.206678 T    
N29   O110  1.300975 A    
C52   N12   1.437727 S    
N10   O72   1.301493 A    
C27   C35   1.205061 T    
N21   O93   1.300947 A    
O44   C24   1.275348 A    
C20   C26   1.434236 S    
C32   C40   1.205061 T    
C65   C118  1.486282 S    
C55   C95   1.414459 A    
C81   H9    1.082599 S    
O38   C18   1.275357 A    
Zn9   O7    1.904380 S    
C53   C93   1.414541 A    
Zn10  O8    1.904382 S    
Zn11  O5    1.904390 S    
O5    C1    1.277769 A    
C75   C83   1.404883 A    
O36   C14   1.261320 A    
C122  C126  1.206681 T    
C125  C126  1.413683 S    
C16   C105  1.458609 S    
C78   N22   1.442249 S    
C58   H2    1.083842 S    
C87   C95   1.404516 A    
C88   H16   1.082598 S    
C44   C48   1.206104 T    
C50   N10   1.437681 S    
C33   C38   1.411139 S    
N12   O75   1.301113 A    
N4    O60   1.301502 A    
C97   N25   1.439167 S    
C102  C110  1.408381 A    
O37   C17   1.275346 A    
N19   O89   1.300929 A    
C1    C121  1.436865 S    
Zn2   O14   1.903814 S    
N16   O83   1.301113 A    
Zn15  O27   1.940524 S    
C69   C114  1.486392 S    
C96   N8    1.438763 S    
O30   C12   1.261286 A    
C17   C27   1.434236 S    
C19   C25   1.434236 S    
C67   C75   1.414729 A    
N10   O71   1.301107 A    
N5    O62   1.301496 A    
C90   N2    1.438902 S    
O39   C19   1.275348 A    
C85   C93   1.404547 A    
C86   C94   1.404517 A    
C63   H7    1.083791 S    
C93   N5    1.438854 S    
N22   O95   1.300930 A    
C50   C90   1.414597 A    
C49   C57   1.402730 A    
O6    C2    1.277770 A    
O18   C8    1.273950 A    
C51   C59   1.402730 A    
O10   C4    1.277769 A    
Zn13  O25   1.940524 S    
O34   C16   1.261308 A    
O50   C22   1.276189 A    
N1    O53   1.301349 A    
C84   H12   1.082597 S    
Zn15  O3    1.929465 S    
C12   C109  1.458596 S    
O41   C21   1.275355 A    
C99   C120  1.402514 A    
C59   H3    1.083791 S    
C60   H4    1.083790 S    
N28   O107  1.301262 A    
N11   O73   1.301114 A    
C110  C118  1.413457 A    
Zn4   O46   1.903138 S    
C34   C37   1.411139 S    
Zn8   O20   1.903823 S    
C51   C91   1.414462 A    
C97   C105  1.408380 A    
C52   C92   1.414457 A    
N32   O116  1.300973 A    
N23   O97   1.300930 A    
C100  C108  1.408382 A    
C87   H15   1.082599 S    
C55   N15   1.437725 S    
C88   C96   1.404517 A    
O47   C19   1.276185 A    
C56   N16   1.437726 S    
C100  C119  1.402518 A    
O12   C4    1.277768 A    
C91   N3    1.438763 S    
N30   O112  1.300970 A    
Zn16  O10   1.904393 S    
Zn14  O42   1.900035 S    
Zn13  O3    1.929488 S    
C24   C30   1.434236 S    
Zn14  O4    1.929483 S    
C100  N28   1.439168 S    
N3    O57   1.301351 A    
Zn1   O31   1.943692 S    
Zn2   O32   1.943693 S    
O21   C9    1.267426 A    
C58   C66   1.402121 A    
Zn6   O18   1.903814 S    
O23   C11   1.267415 A    
N25   O101  1.301266 A    
Zn7   O49   1.903136 S    
C68   C119  1.486287 S    
C127  C128  1.413686 S    
C86   H14   1.082599 S    
O25   C13   1.267426 A    
O51   C23   1.276185 A    
N7    O66   1.301505 A    
C23   C29   1.434236 S    
O42   C22   1.275346 A    
C18   C28   1.434238 S    
C75   N19   1.442247 S    
Zn9   O37   1.900035 S    
N8    O67   1.301349 A    
Zn11  O39   1.900045 S    
C106  C114  1.413529 A    
N14   O80   1.301410 A    
C45   C46   1.412751 S    
C54   C94   1.414463 A    
Zn11  O1    1.929465 S    
C74   C82   1.404866 A    
C55   C63   1.402733 A    
Zn15  O43   1.900045 S    
C53   C61   1.402753 A    
O28   C16   1.267412 A    
C78   C86   1.404883 A    
C52   C60   1.402733 A    
C72   C115  1.486282 S    
C5    C41   1.435891 S    
Zn5   O3    1.923322 S    
C64   H8    1.083793 S    
C31   C39   1.205059 T    
C7    C43   1.435891 S    
O33   C15   1.261294 A    
N19   O90   1.301531 A    
Zn3   O29   1.943690 S    
C101  N29   1.439157 S    
Zn15  O9    1.904390 S    
C98   N26   1.439158 S    
N18   O88   1.301624 A    
N20   O91   1.300929 A    
C72   C80   1.414728 A    
C73   C81   1.404884 A    
O48   C20   1.276186 A    
C68   C76   1.414731 A    
C81   C89   1.404518 A    
C80   N24   1.442250 S    
C76   C84   1.404888 A    
Zn8   O50   1.903138 S    
Zn2   O2    1.923322 S    
N29   O109  1.301290 A    
O7    C1    1.277768 A    
C97   C118  1.402516 A    
O26   C14   1.267425 A    
C65   C73   1.414728 A    
Zn4   O30   1.943689 S    
O19   C7    1.273953 A    
Zn8   O4    1.923304 S    
C9    C112  1.458610 S    
C107  C115  1.413460 A    
C104  N32   1.439168 S    
O15   C5    1.273954 A    
O13   C5    1.273950 A    
O32   C10   1.261318 A    
O20   C8    1.273954 A    
N21   O94   1.301583 A    
C76   N20   1.442250 S    
N11   O74   1.301410 A    
O24   C12   1.267450 A    
C35   C40   1.411140 S    
C101  C114  1.402454 A    
C94   N6    1.438764 S    
Zn16  O4    1.929467 S    
Zn14  O26   1.940525 S    
C69   C77   1.414674 A    
Zn6   O52   1.903127 S    
C67   C120  1.486283 S    
C83   C91   1.404519 A    
C84   C92   1.404516 A    
Zn1   O47   1.903128 S    
C22   C32   1.434236 S    
Zn2   O48   1.903127 S    
Zn3   O45   1.903136 S    
N12   O76   1.301411 A    
N13   O78   1.301440 A    
C64   C72   1.402107 A    
N2    O55   1.301346 A    
Zn7   O33   1.943690 S    
O29   C11   1.261307 A    
N17   O86   1.301529 A    
O43   C23   1.275348 A    
C104  C115  1.402514 A    
N16   O84   1.301412 A    
C13   C108  1.458610 S    
N3    O58   1.301503 A    
C53   N13   1.437709 S    
C121  C125  1.206681 T    
C8    C44   1.435891 S    
Zn9   O21   1.940524 S    
N5    O61   1.301348 A    
Zn11  O23   1.940524 S    
C104  C112  1.408380 A    
Zn12  O40   1.900044 S    
Zn9   O1    1.929488 S    
N22   O96   1.301530 A    
N9    O70   1.301413 A    
O31   C9    1.261318 A    
Zn12  O2    1.929467 S    
N15   O81   1.301112 A    
C57   H1    1.083792 S    
C42   C46   1.206101 T    
C103  C111  1.408381 A    
Zn7   O19   1.903823 S    
C101  C109  1.408413 A    
C99   C107  1.408381 A    
C41   C45   1.206104 T    
C2    C122  1.436867 S    
N26   O103  1.301289 A    
C70   C113  1.486282 S    
N28   O108  1.300974 A    
C10   C111  1.458611 S    
N4    O59   1.301352 A    
Zn10  O38   1.900035 S    
C56   C96   1.414466 A    
Zn1   O1    1.923322 S    
C80   C88   1.404884 A    
C74   N18   1.442111 S    
N7    O65   1.301349 A    
Zn13  O11   1.904380 S    
C43   C47   1.206101 T    
C50   C58   1.402758 A    
Zn14  O12   1.904382 S    
C51   N11   1.437727 S    
C54   C62   1.402730 A    
