data_mof_unit_53779.cif
_audit_creation_date              2012-12-10T19:21:56-0500
_audit_creation_method            fapswitch 2.2
_symmetry_space_group_name_H-M    P1
_symmetry_Int_Tables_number       1
_space_group_crystal_system       triclinic
_cell_length_a                    8.752906
_cell_length_b                    17.74514
_cell_length_c                    16.567906
_cell_angle_alpha                 89.377137
_cell_angle_beta                  96.762711
_cell_angle_gamma                 93.085842
_cell_volume                      2551.71620488

loop_
_atom_site_label
_atom_site_type_symbol
_atom_type_description
_atom_site_fract_x
_atom_site_fract_y
_atom_site_fract_z
_atom_type_partial_charge
C1    C     C_R   0.498852 0.355599 0.500251 0.861478
C2    C     C_R   0.501797 0.644751 0.499824 0.841161
C3    C     C_1   0.520584 0.967544 0.496506 -0.041233
C4    C     C_1   0.519311 0.035076 0.497381 -0.040011
C5    C     C_R   0.601757 0.550648 0.833716 0.433061
C6    C     C_R   0.412429 0.445458 0.166229 0.434631
C7    C     C_R   0.599849 0.548207 0.748174 0.724736
C8    C     C_R   0.414616 0.446197 0.251866 0.709989
C9    C     C_R   0.397712 0.452426 0.739592 0.211700
C10   C     C_R   0.578772 0.557591 0.259432 0.180528
C11   C     C_R   0.387992 0.458253 0.825365 -0.004730
C12   C     C_R   0.554318 0.565676 0.172589 0.002512
C13   C     C_R   0.495526 0.505905 0.873265 -0.147040
C14   C     C_R   0.483867 0.505069 0.125590 -0.135919
C15   C     C_1   0.495575 0.507120 0.962783 0.099117
C16   C     C_1   0.488464 0.504822 0.036399 0.098120
C17   C     C_R   0.204082 0.497986 0.479934 0.822381
C18   C     C_R   0.795870 0.500274 0.520262 0.817356
C19   C     C_2   0.039566 0.490619 0.469649 0.272326
C20   C     C_2   0.960509 0.504706 0.531562 0.269959
C21   C     C_R   0.532220 0.847597 0.572227 0.033330
C22   C     C_R   0.417927 0.152434 0.437389 0.030170
C23   C     C_R   0.527042 0.768578 0.572824 0.607931
C24   C     C_R   0.412769 0.231132 0.438890 0.599627
C25   C     C_R   0.506640 0.728034 0.499547 -0.231180
C26   C     C_R   0.500383 0.273108 0.500640 -0.221873
C27   C     C_R   0.492699 0.767247 0.425354 -0.295470
C28   C     C_R   0.593166 0.236612 0.561757 -0.289338
C29   C     C_R   0.498781 0.846537 0.422748 0.155220
C30   C     C_R   0.601395 0.157712 0.562010 0.161209
C31   C     C_R   0.518331 0.886449 0.497037 -0.028542
C32   C     C_R   0.513569 0.115876 0.498764 -0.028392
Cu1   Cu    Cu3+1 0.499990 0.499980 0.580420 1.046989
Cu2   Cu    Cu3+1 0.500010 0.500020 0.419580 1.041132
H1    H     H_    0.476439 0.735146 0.369735 0.194391
H2    H     H_    0.661141 0.270860 0.607716 0.183138
N1    N     N_R   0.499960 0.499970 0.701210 -0.291829
N2    N     N_R   0.500040 0.500030 0.298790 -0.288436
O1    O     O_R   0.499990 0.391240 0.567930 -0.634668
O2    O     O_R   0.500010 0.608760 0.432070 -0.647814
O3    O     O_R   0.500000 0.391270 0.432120 -0.475240
O4    O     O_R   0.500000 0.608730 0.567880 -0.464573
O5    O     O_R   0.274830 0.499990 0.552240 -0.584591
O6    O     O_R   0.725170 0.500010 0.447760 -0.579840
O7    O     O_R   0.274840 0.500020 0.416420 -0.519029
O8    O     O_R   0.725160 0.499980 0.583580 -0.515543
F1    F     F_    0.969006 0.465087 0.396752 -0.650223
F2    F     F_    0.031140 0.526359 0.606094 -0.646209
C33   C     C_3   0.555601 0.889424 0.652546 -0.342930
C34   C     C_3   0.726060 0.910162 0.677009 -0.777551
H3    H     H_    0.791498 0.858244 0.686512 0.288536
H4    H     H_    0.773995 0.945266 0.629145 0.236276
H5    H     H_    0.740339 0.942667 0.734537 0.237896
H6    H     H_    0.489181 0.941182 0.648939 0.184446
H7    H     H_    0.511097 0.854417 0.701568 0.255173
C35   C     C_3   0.322615 0.108713 0.369175 -0.351288
C36   C     C_3   0.417307 0.096626 0.299219 -0.758030
H8    H     H_    0.452713 0.151824 0.272986 0.290639
H9    H     H_    0.521854 0.065972 0.320691 0.236400
H10   H     H_    0.347033 0.062802 0.250955 0.235945
H11   H     H_    0.278639 0.053346 0.391376 0.183823
H12   H     H_    0.218806 0.139257 0.345809 0.256434
F3    F     F_    0.544493 0.731587 0.645336 -0.611944
F4    F     F_    0.320315 0.266828 0.380687 -0.593904
C37   C     C_3   0.484492 0.890135 0.342532 -0.358990
C38   C     C_3   0.467033 0.842719 0.265047 -0.858280
H13   H     H_    0.568583 0.808094 0.263219 0.249730
H14   H     H_    0.359806 0.805840 0.261095 0.251416
H15   H     H_    0.459376 0.880760 0.211221 0.252680
H16   H     H_    0.382944 0.925422 0.340186 0.208324
H17   H     H_    0.588820 0.928537 0.341423 0.205332
C39   C     C_3   0.702323 0.116593 0.627818 -0.363549
C40   C     C_3   0.792356 0.166019 0.694145 -0.845244
H18   H     H_    0.874496 0.206262 0.667517 0.252498
H19   H     H_    0.712322 0.197136 0.727204 0.254206
H20   H     H_    0.859612 0.129650 0.738567 0.249424
H21   H     H_    0.627964 0.075044 0.658018 0.208564
H22   H     H_    0.786740 0.084967 0.598340 0.204974
F5    F     F_    0.706162 0.597867 0.877702 -0.616375
F6    F     F_    0.335503 0.387817 0.122935 -0.614746
F7    F     F_    0.701359 0.594103 0.712552 -0.549782
F8    F     F_    0.330935 0.391833 0.287532 -0.532015
C41   C     C_3   0.298922 0.389618 0.694008 -0.260992
C42   C     C_3   0.366631 0.312521 0.712384 -0.883056
H23   H     H_    0.488416 0.313992 0.699903 0.267660
H24   H     H_    0.364092 0.295627 0.776770 0.246227
H25   H     H_    0.299889 0.268752 0.673464 0.246473
H26   H     H_    0.178110 0.389327 0.707988 0.187925
H27   H     H_    0.283861 0.396392 0.628554 0.248018
C43   C     C_3   0.701755 0.610402 0.305196 -0.322998
C44   C     C_3   0.862314 0.598632 0.280397 -0.763384
H28   H     H_    0.880878 0.537582 0.275869 0.320353
H29   H     H_    0.878556 0.625076 0.220987 0.224308
H30   H     H_    0.952154 0.624257 0.326435 0.235230
H31   H     H_    0.671901 0.670124 0.296811 0.155940
H32   H     H_    0.713638 0.602779 0.370444 0.256770
C45   C     C_3   0.258623 0.417513 0.866567 -0.382885
C46   C     C_3   0.128115 0.469966 0.873411 -0.691546
H33   H     H_    0.170690 0.520524 0.909965 0.257419
H34   H     H_    0.078458 0.488264 0.811967 0.278938
H35   H     H_    0.035823 0.439775 0.903636 0.243263
H36   H     H_    0.208603 0.365683 0.835608 0.203246
H37   H     H_    0.302599 0.396956 0.928003 0.239847
C47   C     C_3   0.596904 0.638996 0.128884 -0.351389
C48   C     C_3   0.452555 0.679458 0.095863 -0.787428
H38   H     H_    0.377793 0.644366 0.050527 0.261197
H39   H     H_    0.385900 0.692902 0.146461 0.243090
H40   H     H_    0.486419 0.733056 0.065877 0.251246
H41   H     H_    0.668825 0.680363 0.167714 0.200918
H42   H     H_    0.665068 0.626957 0.078469 0.237059

loop_
_geom_bond_atom_site_label_1
_geom_bond_atom_site_label_2
_ccdc_geom_bond_type
C38   H14   S    
C27   C29   A    
C40   H18   S    
C19   C20   D    
C42   H25   S    
C21   C33   S    
C45   C46   S    
C36   H8    S    
C43   H31   S    
C48   H39   S    
Cu1   O1    S    
C22   C32   A    
C8    F8    S    
Cu1   O4    S    
C22   C24   A    
C24   C26   A    
C12   C47   S    
C47   H41   S    
C19   F1    S    
C36   H9    S    
C38   H15   S    
C44   H29   S    
C15   C16   T    
C46   H33   S    
C35   C36   S    
C18   C20   S    
C39   H22   S    
C30   C39   S    
C34   H4    S    
C5    F5    S    
C33   H6    S    
C5    C13   A    
C45   H36   S    
C23   F3    S    
C41   H26   S    
C24   F4    S    
Cu1   O8    S    
C40   H19   S    
Cu2   O3    S    
C8    N2    A    
C18   O8    A    
C47   C48   S    
C34   H3    S    
C41   H27   S    
C48   H40   S    
C34   H5    S    
Cu1   O5    S    
Cu2   O6    S    
C42   H23   S    
C44   H28   S    
C5    C7    A    
C36   H10   S    
C22   C35   S    
C27   H1    S    
C37   H17   S    
Cu1   N1    S    
C17   O7    A    
C17   O5    A    
C39   H21   S    
C18   O6    A    
C6    C14   A    
C21   C31   A    
C6    F6    S    
C41   C42   S    
C9    N1    A    
Cu1   Cu2   S    
C7    N1    A    
Cu2   O7    S    
C45   H37   S    
C3    C31   S    
C9    C11   A    
C28   H2    S    
C20   F2    S    
C10   C12   A    
C9    C41   S    
C29   C37   S    
C1    O3    A    
C7    F7    S    
C12   C14   A    
C33   C34   S    
C46   H34   S    
C13   C15   S    
C1    C26   S    
C40   H20   S    
C14   C16   S    
C3    C4    T    
C47   H42   S    
Cu2   N2    S    
C42   H24   S    
C39   C40   S    
C6    C8    A    
C43   H32   S    
C25   C27   A    
C46   H35   S    
C48   H38   S    
C26   C28   A    
C10   N2    A    
C11   C45   S    
C21   C23   A    
C29   C31   A    
C33   H7    S    
C44   H30   S    
C30   C32   A    
C11   C13   A    
C43   C44   S    
C2    O4    A    
C28   C30   A    
C17   C19   S    
C38   H13   S    
C2    C25   S    
C35   H12   S    
C23   C25   A    
C1    O1    A    
C4    C32   S    
C2    O2    A    
C10   C43   S    
C37   C38   S    
C35   H11   S    
Cu2   O2    S    
C37   H16   S    
