data_mof_unit_28727.cif
_audit_creation_date              2012-12-11T14:39:00-0500
_audit_creation_method            fapswitch 2.2
_symmetry_space_group_name_H-M    P1
_symmetry_Int_Tables_number       1
_space_group_crystal_system       triclinic
_cell_length_a                    8.269134
_cell_length_b                    15.047974
_cell_length_c                    17.40559
_cell_angle_alpha                 98.901376
_cell_angle_beta                  97.60016
_cell_angle_gamma                 99.009954
_cell_volume                      2085.99898571

loop_
_atom_site_label
_atom_site_type_symbol
_atom_type_description
_atom_site_fract_x
_atom_site_fract_y
_atom_site_fract_z
_atom_type_partial_charge
Ba1   Ba    Ba6+2 0.844730 0.540500 0.462170 1.721815
Ba2   Ba    Ba6+2 0.345110 0.459580 0.537840 1.665573
C1    C     C_3   0.712575 0.849393 0.224932 -0.349642
C2    C     C_3   0.613162 0.763199 0.242738 0.319098
C3    C     C_3   0.408328 0.312583 0.295398 0.308007
C4    C     C_3   0.368813 0.283103 0.206425 -0.401803
C5    C     C_3   0.129674 0.277770 0.750881 0.353701
C6    C     C_3   0.169370 0.255634 0.832944 -0.347761
C7    C     C_3   0.628363 0.230412 0.738541 0.357875
C8    C     C_3   0.719972 0.199802 0.809307 -0.322140
C9    C     C_2   0.258369 0.521095 0.274220 -0.269093
C10   C     C_3   0.350499 0.576360 0.222923 -0.108604
C11   C     C_2   0.295734 0.540683 0.136982 -0.086389
C12   C     C_3   0.148487 0.743691 0.265683 0.399895
C13   C     C_2   0.142891 0.489920 0.111028 0.020488
C14   C     C_2   0.045104 0.454061 0.171146 -0.115040
C15   C     C_1   0.109375 0.468519 0.247829 0.006261
C16   C     C_R   0.890845 0.458924 0.858133 -0.136402
C17   C     C_R   0.824664 0.448264 0.778604 0.016429
C18   C     C_R   0.082217 0.529993 0.751271 0.040152
C19   C     C_R   0.149152 0.540741 0.831835 -0.131381
C20   C     C_R   0.055442 0.503312 0.885679 0.017699
C21   C     C_2   0.070907 0.469852 0.024802 -0.082121
C22   C     C_2   0.127806 0.518831 0.971076 -0.073059
C23   C     C_3   0.143391 0.774342 0.186293 -0.362115
C24   C     C_R   0.922394 0.479481 0.724969 -0.268429
C25   C     C_R   0.764540 0.236180 0.528764 -0.273048
C26   C     C_R   0.862108 0.178549 0.559302 0.003234
C27   C     C_R   0.796642 0.085092 0.552089 -0.128833
C28   C     C_R   0.635277 0.047168 0.509244 0.018823
C29   C     C_R   0.546580 0.106904 0.473075 -0.124005
C30   C     C_R   0.609218 0.200180 0.484141 0.021505
C31   C     C_R   0.388877 0.914249 0.470234 -0.088897
C32   C     C_R   0.317671 0.822694 0.465714 0.043406
C33   C     C_R   0.580473 0.791844 0.522560 0.016978
C34   C     C_3   0.383114 0.752136 0.716567 0.294199
C35   C     C_R   0.654510 0.882955 0.525683 -0.118245
C36   C     C_R   0.559367 0.947268 0.501503 0.026684
C37   C     C_R   0.411212 0.763905 0.496682 -0.255446
C38   C     C_3   0.432632 0.763798 0.805931 -0.435074
C39   C     C_3   0.915995 0.258252 0.363539 0.310110
C40   C     C_3   0.877798 0.154377 0.341997 -0.390686
C41   C     C_3   0.788030 0.666327 0.699017 0.303104
C42   C     C_3   0.860641 0.699733 0.785710 -0.403242
H1    H     H_    0.453827 0.697842 0.822413 0.106977
H2    H     H_    0.549353 0.814341 0.826703 0.075225
H3    H     H_    0.333424 0.787853 0.836432 0.121729
H4    H     H_    0.806971 0.283126 0.383253 -0.003991
H5    H     H_    0.023249 0.278187 0.412036 0.071601
H6    H     H_    0.764433 0.132185 0.296853 0.125676
H7    H     H_    0.857472 0.123906 0.394676 0.067821
H8    H     H_    0.983591 0.128932 0.318270 0.126346
H9    H     H_    0.880576 0.636215 0.668308 0.039478
H10   H     H_    0.675574 0.613611 0.694315 0.051469
H11   H     H_    0.832202 0.869683 0.265682 0.163321
H12   H     H_    0.985379 0.742470 0.791446 0.141677
H13   H     H_    0.870998 0.641325 0.816421 0.060493
H14   H     H_    0.779437 0.741163 0.815197 0.121063
H15   H     H_    0.490909 0.749135 0.203817 -0.020970
H16   H     H_    0.641700 0.906148 0.232870 0.061010
H17   H     H_    0.294915 0.330312 0.316840 0.043272
H18   H     H_    0.509415 0.373362 0.308786 0.101773
H19   H     H_    0.265161 0.223581 0.190613 0.124530
H20   H     H_    0.331987 0.340285 0.178966 0.074062
H21   H     H_    0.479820 0.263970 0.183201 0.132289
H22   H     H_    0.736461 0.837676 0.163196 0.110262
H23   H     H_    0.190356 0.724911 0.144441 0.062068
H24   H     H_    0.218141 0.339831 0.746849 0.097961
H25   H     H_    0.001844 0.292379 0.743039 -0.056826
H26   H     H_    0.299312 0.244698 0.844297 0.159803
H27   H     H_    0.152887 0.313148 0.877794 0.066730
H28   H     H_    0.085704 0.192590 0.838648 0.115099
H29   H     H_    0.722189 0.257239 0.703619 -0.153631
H30   H     H_    0.791857 0.146719 0.788960 0.093963
H31   H     H_    0.630669 0.171487 0.845631 0.135320
H32   H     H_    0.071428 0.674212 0.256222 0.057211
H33   H     H_    0.806947 0.259037 0.846692 0.072299
H34   H     H_    0.231736 0.574962 0.989624 0.066579
H35   H     H_    0.920838 0.414725 0.151064 0.085344
H36   H     H_    0.811066 0.435561 0.898152 0.069389
H37   H     H_    0.965607 0.414340 0.006222 0.069775
H38   H     H_    0.376130 0.564617 0.097339 0.062263
H39   H     H_    0.273446 0.578614 0.852829 0.073808
H40   H     H_    0.869395 0.470367 0.663427 0.064126
H41   H     H_    0.307342 0.957502 0.449229 0.069528
H42   H     H_    0.279321 0.741857 0.289238 -0.142447
H43   H     H_    0.785215 0.901924 0.548192 0.103400
H44   H     H_    0.429858 0.083039 0.434417 0.067817
H45   H     H_    0.351609 0.696150 0.501293 0.074367
H46   H     H_    0.814499 0.308273 0.534784 0.058962
H47   H     H_    0.013946 0.777556 0.161745 0.131036
H48   H     H_    0.221971 0.842935 0.193061 0.107681
H49   H     H_    0.467258 0.715397 0.685602 0.006998
O1    O     O_2   0.823140 0.439340 0.307240 -0.454622
O2    O     O_3   0.747665 0.741084 0.666930 -0.642981
O3    O     O_3   0.084439 0.805339 0.317114 -0.604338
O4    O     O_2   0.366580 0.560690 0.692810 -0.486252
O5    O     O_3   0.092650 0.554230 0.594710 -0.466718
O6    O     O_3   0.562120 0.393340 0.642670 -0.471535
O7    O     O_3   0.217898 0.706701 0.693331 -0.605858
O8    O     O_3   0.597340 0.388800 0.458640 -0.442543
O9    O     O_3   0.128850 0.344520 0.602520 -0.494554
O10   O     O_2   0.193296 0.180712 0.548246 -0.479365
O11   O     O_3   0.144805 0.203324 0.694275 -0.578600
O12   O     O_3   0.097070 0.445850 0.405300 -0.481306
O13   O     O_3   0.592380 0.611270 0.541370 -0.468985
O14   O     O_2   0.323920 0.276750 0.459260 -0.452893
O15   O     O_3   0.458333 0.240594 0.329311 -0.650939
O16   O     O_2   0.495094 0.465516 0.781401 -0.493202
O17   O     O_3   0.532425 0.294527 0.766313 -0.616680
O18   O     O_3   0.627590 0.606740 0.357340 -0.453085
O19   O     O_2   0.651109 0.511210 0.217230 -0.477710
O20   O     O_3   0.951755 0.293691 0.296798 -0.638163
O21   O     O_3   0.696690 0.689423 0.227374 -0.577683
O22   O     O_2   0.865800 0.723280 0.540790 -0.421673
O23   O     O_3   0.060870 0.655550 0.397490 -0.503650
O24   O     O_2   0.972330 0.816597 0.448534 -0.461417
P1    P     P_3+3 0.993190 0.413330 0.319190 0.985550
P2    P     P_3+3 0.695930 0.711340 0.564320 1.013833
P3    P     P_3+3 0.108682 0.775216 0.410490 1.001766
P4    P     P_3+3 0.196530 0.586750 0.680820 0.990023
P5    P     P_3+3 0.081042 0.226354 0.600461 0.964689
P6    P     P_3+3 0.581816 0.594487 0.254282 0.974052
P7    P     P_3+3 0.497514 0.274335 0.431942 0.970745
P8    P     P_3+3 0.604493 0.401842 0.744178 0.950616
H50   H     H_    0.596319 0.776400 0.305718 0.003096
C43   C     C_2   0.514456 0.151504 0.684040 0.558257
H51   H     H_    0.457443 0.162362 0.627533 0.025125
O25   O     O_2   0.485591 0.075714 0.701531 -0.581449
C44   C     C_2   0.321127 0.550384 0.357605 0.637442
H52   H     H_    0.327828 0.620343 0.383624 -0.116156
O26   O     O_2   0.392244 0.500608 0.393348 -0.538083
H53   H     H_    0.874419 0.043994 0.579623 0.090679
C45   C     C_2   0.400480 0.844828 0.693014 0.514595
H54   H     H_    0.522176 0.887833 0.702244 -0.003387
O27   O     O_2   0.280237 0.872295 0.662888 -0.523956

loop_
_geom_bond_atom_site_label_1
_geom_bond_atom_site_label_2
_ccdc_geom_bond_type
C38   H3    S    
C27   H53   S    
O13   P2    S    
O5    P4    S    
O1    P1    D    
C39   C40   S    
C30   P7    S    
C44   O26   D    
C23   H23   S    
C5    C6    S    
O6    P8    S    
C38   H2    S    
C7    C43   S    
C2    O21   S    
C26   C27   A    
C33   C35   A    
C35   C36   A    
C16   C17   A    
C28   C29   A    
C26   P5    S    
O11   P5    S    
Ba2   O9    S    
C13   C14   S    
Ba2   O14   S    
C28   C36   S    
C25   H46   S    
Ba1   Ba2   S    
Ba1   P2    S    
C4    H20   S    
C17   C24   A    
C31   H41   S    
O4    P4    D    
C5    H24   S    
C33   P2    S    
C34   H49   S    
C41   H9    S    
C4    H21   S    
C19   H39   S    
Ba2   O4    S    
C42   H14   S    
Ba1   O1    S    
C6    H27   S    
C41   O2    S    
C21   C22   D    
Ba1   O23   S    
C7    C8    S    
C40   H7    S    
C1    H16   S    
C13   C21   S    
C19   C20   A    
C7    H29   S    
O14   P7    D    
O15   P7    S    
C12   O3    S    
C8    H33   S    
O3    P3    S    
C32   P3    S    
C38   H1    S    
C6    H28   S    
O8    P7    S    
C23   H47   S    
O18   P6    S    
C32   C37   A    
C34   C38   S    
C12   H42   S    
O19   P6    D    
O24   P3    D    
C14   C15   D    
C45   O27   D    
Ba2   O8    S    
O2    P2    S    
C11   H38   S    
C17   P8    S    
O23   P3    S    
C12   H32   S    
C4    H19   S    
C33   C37   A    
C41   C42   S    
C43   O25   D    
C27   C28   A    
C8    H31   S    
C42   H12   S    
C41   H10   S    
C29   C30   A    
C42   H13   S    
C31   C32   A    
C3    H17   S    
C34   O7    S    
C10   C11   S    
C18   P4    S    
C15   P1    S    
C40   H6    S    
O21   P6    S    
C22   H34   S    
Ba2   O6    S    
O22   P2    D    
C5    O11   S    
C11   C13   D    
C20   C22   S    
O12   P1    S    
C1    H22   S    
C43   H51   S    
C9    C44   S    
Ba1   O8    S    
Ba2   P4    S    
O16   P8    D    
C7    O17   S    
C9    C15   D    
C23   H48   S    
C24   H40   S    
C29   H44   S    
C21   H37   S    
C25   C30   A    
C16   C20   A    
C6    H26   S    
C35   H43   S    
C39   O20   S    
C34   C45   S    
Ba1   O5    S    
C5    H25   S    
C9    C10   S    
C45   H54   S    
C39   H5    S    
Ba1   O13   S    
Ba2   O12   S    
C1    H11   S    
C31   C36   A    
C2    H50   S    
C14   H35   S    
C44   H52   S    
Ba1   O18   S    
C8    H30   S    
C3    C4    S    
C10   P6    S    
C18   C24   A    
C2    H15   S    
C39   H4    S    
Ba2   O13   S    
C3    H18   S    
Ba1   P1    S    
C12   C23   S    
O17   P8    S    
O20   P1    S    
C18   C19   A    
Ba2   O5    S    
C16   H36   S    
Ba1   O12   S    
C25   C26   A    
Ba1   O22   S    
O9    P5    S    
O10   P5    D    
C37   H45   S    
C1    C2    S    
C40   H8    S    
C3    O15   S    
O7    P4    S    
