data_mof_unit_18588.cif
_audit_creation_date              2012-12-10T17:28:30-0500
_audit_creation_method            fapswitch 2.2
_symmetry_space_group_name_H-M    P1
_symmetry_Int_Tables_number       1
_space_group_crystal_system       triclinic
_cell_length_a                    10.665789
_cell_length_b                    11.946568
_cell_length_c                    12.887198
_cell_angle_alpha                 93.142749
_cell_angle_beta                  91.161803
_cell_angle_gamma                 87.064255
_cell_volume                      1637.20857531

loop_
_atom_site_label
_atom_site_type_symbol
_atom_type_description
_atom_site_fract_x
_atom_site_fract_y
_atom_site_fract_z
_atom_type_partial_charge
C1    C     C_R   0.499828 0.521862 0.700565 0.891888
C2    C     C_R   0.505977 0.562993 0.132688 -0.185666
C3    C     C_R   0.525123 0.447340 0.974792 0.183540
C4    C     C_R   0.508786 0.554418 0.026056 0.169292
C5    C     C_R   0.371943 0.954642 0.410863 -0.337924
C6    C     C_R   0.628536 0.045258 0.588893 -0.345463
C7    C     C_R   0.385741 0.838117 0.418249 0.030799
C8    C     C_R   0.614783 0.161828 0.581284 0.018706
C9    C     C_R   0.556922 0.858016 0.537332 -0.094387
C10   C     C_R   0.442745 0.141800 0.463294 -0.053302
C11   C     C_R   0.547174 0.975543 0.532033 0.091569
C12   C     C_R   0.508072 0.478416 0.299782 0.967114
C13   C     C_R   0.453029 0.024273 0.468127 0.098289
C14   C     C_R   0.737168 0.499083 0.481501 0.905177
C15   C     C_R   0.258477 0.499100 0.497381 0.928980
C16   C     C_R   0.882612 0.301462 0.383650 -0.145380
C17   C     C_R   0.090425 0.690166 0.565971 -0.139053
C18   C     C_R   0.957292 0.209202 0.347179 -0.147065
C19   C     C_R   0.023707 0.793653 0.565050 -0.137595
C20   C     C_R   0.084654 0.220497 0.332975 -0.238782
C21   C     C_R   0.918504 0.806258 0.500229 -0.275134
C22   C     C_R   0.138106 0.322822 0.360049 0.025934
C23   C     C_R   0.517219 0.466087 0.188737 -0.003771
C24   C     C_R   0.871453 0.712374 0.445518 0.049408
C25   C     C_R   0.069130 0.406684 0.420915 0.091947
C26   C     C_R   0.927788 0.603902 0.462684 0.097032
C27   C     C_R   0.937739 0.401779 0.420852 0.053827
C28   C     C_R   0.048867 0.596813 0.504398 0.028769
C29   C     C_R   0.123847 0.498214 0.478413 -0.199731
C30   C     C_R   0.866866 0.501389 0.449448 -0.184142
C31   C     C_2   0.242548 0.351845 0.295384 0.415840
C32   C     C_2   0.776527 0.732202 0.361818 0.443005
C33   C     C_R   0.504475 0.534883 0.811914 -0.055629
C34   C     C_R   0.492855 0.651160 0.969993 -0.203971
C35   C     C_R   0.540208 0.350562 0.030956 -0.207931
C36   C     C_R   0.490333 0.641379 0.862548 -0.204546
C37   C     C_R   0.535929 0.359908 0.138329 -0.220232
C38   C     C_R   0.523720 0.438503 0.868012 -0.268765
H1    H     H_    0.545992 0.284627 0.181565 0.151287
H2    H     H_    0.702019 0.010099 0.638434 0.148091
H3    H     H_    0.782463 0.293930 0.376282 0.165709
H4    H     H_    0.173920 0.684574 0.614778 0.151858
H5    H     H_    0.914251 0.132680 0.319753 0.140739
H6    H     H_    0.057869 0.865486 0.609856 0.146370
H7    H     H_    0.310361 0.287299 0.266667 0.041001
H8    H     H_    0.727664 0.813840 0.357577 0.039051
H9    H     H_    0.492407 0.645474 0.171576 0.163943
H10   H     H_    0.536064 0.356006 0.828939 0.160701
H11   H     H_    0.371096 0.180753 0.414880 0.104944
H12   H     H_    0.476286 0.716452 0.819405 0.162080
H13   H     H_    0.628031 0.818717 0.586421 0.133919
H14   H     H_    0.480602 0.733578 0.009064 0.139780
H15   H     H_    0.553272 0.268186 0.991961 0.138994
H16   H     H_    0.677722 0.215850 0.624727 0.138558
H17   H     H_    0.323093 0.784083 0.374477 0.150414
H18   H     H_    0.874838 0.889247 0.491771 0.134137
H19   H     H_    0.137703 0.154144 0.289950 0.121472
H20   H     H_    0.298694 0.989830 0.361121 0.142204
N1    N     N_R   0.523130 0.207800 0.519340 -0.105519
N2    N     N_R   0.476870 0.792200 0.480660 -0.108108
O1    O     O_R   0.506170 0.421700 0.658830 -0.621719
O2    O     O_2   0.755010 0.659026 0.294868 -0.586243
O3    O     O_R   0.493830 0.578300 0.341170 -0.602132
O4    O     O_R   0.491330 0.609310 0.646410 -0.631239
O5    O     O_R   0.508670 0.390690 0.353590 -0.663264
O6    O     O_R   0.690650 0.406190 0.506220 -0.644284
O7    O     O_R   0.309350 0.593810 0.493780 -0.615690
O8    O     O_R   0.675800 0.593810 0.493800 -0.617870
O9    O     O_R   0.324200 0.406190 0.506200 -0.627929
O10   O     O_2   0.246807 0.446903 0.265817 -0.589719
Zn1   Zn    Zn3+2 0.509910 0.374730 0.508290 0.932465
Zn2   Zn    Zn3+2 0.490090 0.625270 0.491710 0.963352

loop_
_geom_bond_atom_site_label_1
_geom_bond_atom_site_label_2
_ccdc_geom_bond_type
C21   H18   S    
C2    C4    A    
C24   C32   S    
C15   C29   S    
C3    C35   A    
C2    H9    S    
C25   C27   A    
C4    C34   A    
C11   C13   A    
C12   O5    A    
C5    C13   A    
C33   C38   A    
C9    H13   S    
C7    H17   S    
O8    Zn2   S    
C9    N2    A    
C15   O7    A    
O1    Zn1   S    
C16   C27   A    
C10   N1    A    
C14   O6    A    
C1    C33   S    
C37   H1    S    
C23   C37   A    
C18   H5    S    
C19   H6    S    
C27   C30   A    
C9    C11   A    
C12   C23   S    
C10   H11   S    
C32   H8    S    
C5    H20   S    
C14   C30   S    
C28   C29   A    
C17   C19   A    
C24   C26   A    
C20   C22   A    
C38   H10   S    
C26   C30   A    
C34   C36   A    
O4    Zn2   S    
C8    N1    A    
C25   C29   A    
C15   O9    A    
C6    H2    S    
C35   H15   S    
C22   C31   S    
N2    Zn2   S    
C32   O2    D    
C3    C4    A    
C1    O4    A    
C7    N2    A    
C6    C11   A    
C33   C36   A    
C36   H12   S    
O3    Zn2   S    
C18   C20   A    
C16   C18   A    
O7    Zn2   S    
C31   H7    S    
C21   C24   A    
C8    H16   S    
C2    C23   A    
C5    C7    A    
C12   O3    A    
C14   O8    A    
C17   H4    S    
C6    C8    A    
C34   H14   S    
C35   C37   A    
C20   H19   S    
O5    Zn1   S    
C17   C28   A    
C26   C28   A    
C16   H3    S    
C10   C13   A    
C31   O10   D    
O6    Zn1   S    
C3    C38   A    
N1    Zn1   S    
O9    Zn1   S    
C19   C21   A    
C22   C25   A    
C1    O1    A    
