data_mof_unit_14337.cif
_audit_creation_date              2012-12-11T15:19:35-0500
_audit_creation_method            fapswitch 2.2
_symmetry_space_group_name_H-M    P1
_symmetry_Int_Tables_number       1
_space_group_crystal_system       triclinic
_cell_length_a                    19.811483
_cell_length_b                    6.883959
_cell_length_c                    18.34458
_cell_angle_alpha                 89.998452
_cell_angle_beta                  104.098534
_cell_angle_gamma                 90.002499
_cell_volume                      2426.49976224

loop_
_atom_site_label
_atom_site_type_symbol
_atom_type_description
_atom_site_fract_x
_atom_site_fract_y
_atom_site_fract_z
_atom_type_partial_charge
O1    O     O_R   0.312200 0.620210 0.189560 -0.544364
O2    O     O_R   0.687800 0.379790 0.810440 -0.551544
O3    O     O_R   0.187800 0.120210 0.310440 -0.544358
O4    O     O_R   0.812200 0.879790 0.689560 -0.551563
O5    O     O_R   0.171590 0.286140 0.165000 -0.539955
O6    O     O_R   0.828410 0.713860 0.835000 -0.540397
O7    O     O_R   0.328410 0.786140 0.335000 -0.539979
O8    O     O_R   0.671590 0.213860 0.665000 -0.540395
C1    C     C_R   0.145758 0.459551 0.143717 0.717105
C2    C     C_R   0.853520 0.540089 0.857122 0.714322
C3    C     C_R   0.354245 0.959552 0.356279 0.717135
C4    C     C_R   0.646478 0.040087 0.642880 0.714295
O9    O     O_R   0.310670 0.290220 0.180540 -0.521743
O10   O     O_R   0.689330 0.709780 0.819460 -0.532902
O11   O     O_R   0.189330 0.790220 0.319460 -0.521697
O12   O     O_R   0.810670 0.209780 0.680540 -0.532882
O13   O     O_R   0.327870 0.124170 0.326080 -0.531374
O14   O     O_R   0.672130 0.875830 0.673920 -0.524507
O15   O     O_R   0.172130 0.624170 0.173920 -0.531337
O16   O     O_R   0.827870 0.375830 0.826080 -0.524513
C5    C     C_R   0.332960 0.458754 0.166261 0.736029
C6    C     C_R   0.666718 0.541481 0.833648 0.760604
C7    C     C_R   0.167034 0.958744 0.333733 0.736205
C8    C     C_R   0.833288 0.041490 0.666358 0.760561
O17   O     O_3   0.255480 0.455050 0.297740 -0.367323
O18   O     O_3   0.744520 0.544950 0.702260 -0.371277
O19   O     O_3   0.244520 0.955050 0.202260 -0.367316
O20   O     O_3   0.755480 0.044950 0.797740 -0.371296
V1    V     V_3+5 0.248980 0.178550 0.241140 1.453817
V2    V     V_3+5 0.751020 0.821450 0.758860 1.421597
V3    V     V_3+5 0.251020 0.678550 0.258860 1.453839
V4    V     V_3+5 0.748980 0.321450 0.741140 1.421629
C9    C     C_R   0.942272 0.157071 0.629815 0.346824
C10   C     C_R   0.057373 0.847039 0.368354 0.353984
C11   C     C_R   0.557720 0.656972 0.870167 0.346807
C12   C     C_R   0.442670 0.347227 0.131711 0.353995
C13   C     C_R   0.883097 0.033546 0.617432 -0.168279
C14   C     C_R   0.117347 0.966802 0.382340 -0.167242
C15   C     C_R   0.616912 0.533525 0.882577 -0.168377
C16   C     C_R   0.382656 0.466832 0.117666 -0.167265
C17   C     C_R   0.871806 0.898113 0.558260 -0.327529
C18   C     C_R   0.130433 0.094145 0.443760 -0.273316
C19   C     C_R   0.628223 0.398176 0.941782 -0.327518
C20   C     C_R   0.369538 0.594020 0.056196 -0.273317
C21   C     C_R   0.918001 0.883483 0.511281 0.101679
C22   C     C_R   0.085315 0.102732 0.491840 0.108927
C23   C     C_R   0.582033 0.383579 0.988770 0.101734
C24   C     C_R   0.414662 0.602604 0.008122 0.108945
C25   C     C_R   0.978013 0.001023 0.524870 0.018599
C26   C     C_R   0.024932 0.986181 0.477718 0.015917
C27   C     C_R   0.521996 0.501010 0.975141 0.018586
C28   C     C_R   0.475076 0.486184 0.022293 0.015872
C29   C     C_R   0.991738 0.132050 0.585948 -0.002655
C30   C     C_R   0.011416 0.855278 0.416620 0.012980
C31   C     C_R   0.508249 0.631926 0.914026 -0.002602
C32   C     C_R   0.488626 0.355443 0.083446 0.013135
C33   C     C_R   0.905775 0.750592 0.451532 -0.197876
C34   C     C_R   0.100592 0.223012 0.555096 -0.177203
C35   C     C_R   0.594294 0.250846 0.048575 -0.197863
C36   C     C_R   0.399364 0.722750 0.944824 -0.177256
C37   C     C_R   0.951810 0.736677 0.404731 -0.157016
C38   C     C_R   0.055277 0.233517 0.602398 -0.169035
C39   C     C_R   0.548268 0.236985 0.095390 -0.156943
C40   C     C_R   0.444689 0.733267 0.897532 -0.169032
H1    H     H_    0.826413 0.804658 0.548456 0.137809
H2    H     H_    0.176733 0.184271 0.454899 0.139650
H3    H     H_    0.673632 0.304790 0.951611 0.137808
H4    H     H_    0.323211 0.684031 0.045017 0.139603
H5    H     H_    0.860345 0.657386 0.440790 0.121156
H6    H     H_    0.148171 0.307527 0.568639 0.123130
H7    H     H_    0.639749 0.157739 0.059355 0.121160
H8    H     H_    0.351763 0.807157 0.931245 0.123131
H9    H     H_    0.940377 0.632767 0.359096 0.153721
H10   H     H_    0.071185 0.318640 0.652652 0.150495
H11   H     H_    0.559733 0.133221 0.141076 0.153753
H12   H     H_    0.428771 0.818279 0.847246 0.150551
C41   C     C_1   0.584208 0.026561 0.580364 -0.198963
C42   C     C_1   0.416737 0.972259 0.418519 -0.209102
C43   C     C_1   0.915791 0.526568 0.919639 -0.198976
C44   C     C_1   0.083270 0.472256 0.081472 -0.209172
C45   C     C_1   0.531563 0.009768 0.529357 0.005756
C46   C     C_1   0.469332 0.988287 0.469643 0.007386
C47   C     C_1   0.968439 0.509774 0.970641 0.005710
C48   C     C_1   0.030674 0.488289 0.030349 0.007509
O21   O     O_3   0.954046 0.292584 0.687748 -0.564745
C49   C     C_3   0.940537 0.483149 0.657744 0.117495
H13   H     H_    0.887853 0.528812 0.662043 0.148116
H14   H     H_    0.941155 0.494959 0.597188 0.080085
C50   C     C_3   0.994776 0.628004 0.701221 -0.324655
H15   H     H_    0.048389 0.579857 0.703337 0.182628
H16   H     H_    0.988130 0.769319 0.671672 0.169526
C51   C     C_3   0.988580 0.660387 0.781194 -0.686437
H17   H     H_    0.938129 0.730700 0.780321 0.216215
H18   H     H_    0.030906 0.758258 0.811027 0.205829
H19   H     H_    0.993228 0.519962 0.811706 0.246212
O22   O     O_3   0.043069 0.722647 0.307264 -0.573207
C52   C     C_3   0.005627 0.825178 0.243255 0.059602
H20   H     H_    0.043082 0.895163 0.215049 0.122907
H21   H     H_    0.970653 0.939654 0.257066 0.106021
C53   C     C_3   0.960255 0.682034 0.189036 -0.284629
H22   H     H_    0.993279 0.564349 0.175084 0.200111
H23   H     H_    0.921788 0.615129 0.216548 0.182638
C54   C     C_3   0.921385 0.782751 0.116873 -0.825826
H24   H     H_    0.887199 0.899081 0.129754 0.224753
H25   H     H_    0.888520 0.675276 0.079051 0.231270
H26   H     H_    0.958825 0.847146 0.087411 0.237932
O23   O     O_3   0.545942 0.792471 0.812230 -0.564760
C55   C     C_3   0.559485 0.983032 0.842227 0.117540
H27   H     H_    0.612153 0.028689 0.837870 0.148131
H28   H     H_    0.558920 0.994846 0.902798 0.080036
C56   C     C_3   0.505232 0.127900 0.798795 -0.324614
H29   H     H_    0.451632 0.079885 0.796821 0.182570
H30   H     H_    0.511965 0.269276 0.828298 0.169495
C57   C     C_3   0.511291 0.160067 0.718761 -0.686332
H31   H     H_    0.561717 0.230377 0.719509 0.216107
H32   H     H_    0.468932 0.257873 0.688962 0.205803
H33   H     H_    0.506603 0.019571 0.688290 0.246267
O24   O     O_3   0.457028 0.223038 0.192866 -0.573266
C58   C     C_3   0.494211 0.326023 0.256887 0.059768
H34   H     H_    0.456572 0.395347 0.285019 0.123007
H35   H     H_    0.528994 0.441097 0.243111 0.105908
C59   C     C_3   0.539807 0.183476 0.311187 -0.284772
H36   H     H_    0.506991 0.065149 0.325074 0.200166
H37   H     H_    0.578489 0.117360 0.283773 0.182618
C60   C     C_3   0.578348 0.284632 0.383392 -0.825603
H38   H     H_    0.612290 0.401718 0.370581 0.224734
H39   H     H_    0.611427 0.177632 0.421254 0.231240
H40   H     H_    0.540694 0.348135 0.412779 0.237929

loop_
_geom_bond_atom_site_label_1
_geom_bond_atom_site_label_2
_ccdc_geom_bond_type
C34   C38   A    
O1    C5    A    
O19   V1    S    
O13   V1    S    
O3    C7    A    
C56   H29   S    
C44   C48   T    
O15   V3    S    
C45   C46   S    
O21   C49   S    
C2    C43   S    
O7    C3    A    
C21   C33   A    
C26   C30   A    
C13   C17   A    
O9    V1    S    
C10   O22   S    
C14   C18   A    
O4    C8    A    
C49   H14   S    
C36   H8    S    
C52   H20   S    
O1    V3    S    
C55   H27   S    
O2    V4    S    
C18   C22   A    
C33   C37   A    
O3    V1    S    
C9    O21   S    
O24   C58   S    
C53   H22   S    
C12   C16   A    
C1    O15   A    
C2    O16   A    
O2    C6    A    
C60   H40   S    
O23   C55   S    
O14   V2    S    
C21   C25   A    
C50   H16   S    
C12   O24   S    
C16   C20   A    
O11   C7    A    
O12   C8    A    
C10   C14   A    
C31   C40   A    
O17   V1    S    
C56   C57   S    
O10   V2    S    
C53   H23   S    
C52   H21   S    
C24   C36   A    
O5    V1    S    
C58   H35   S    
C9    C29   A    
O7    V3    S    
C11   C31   A    
C27   C28   A    
O8    V4    S    
O20   V4    S    
C56   H30   S    
C4    C41   S    
O18   V4    S    
C34   H6    S    
C15   C19   A    
C37   H9    S    
O19   V3    S    
C53   C54   S    
C9    C13   A    
C1    C44   S    
C11   C15   A    
O5    C1    A    
C12   C32   A    
C3    C42   S    
C29   C38   A    
C42   C46   T    
C57   H32   S    
C47   C48   S    
C41   C45   T    
O8    C4    A    
O22   C52   S    
C51   H18   S    
C8    C13   S    
C40   H12   S    
C32   C39   A    
O9    C5    A    
C54   H25   S    
C50   C51   S    
O11   V3    S    
O6    V2    S    
C10   C30   A    
C60   H38   S    
C20   H4    S    
C59   H37   S    
C52   C53   S    
C60   H39   S    
O16   V4    S    
C58   C59   S    
C3    O13   A    
C49   H13   S    
O17   V3    S    
C49   C50   S    
O6    C2    A    
C23   C27   A    
C58   H34   S    
C57   H31   S    
C30   C37   A    
O12   V4    S    
C7    C14   S    
C22   C26   A    
C35   C39   A    
C55   C56   S    
C36   C40   A    
O10   C6    A    
C59   C60   S    
O20   V2    S    
C59   H36   S    
C43   C47   T    
C5    C16   S    
C39   H11   S    
C25   C29   A    
C6    C15   S    
C51   H17   S    
C55   H28   S    
C54   H26   S    
C27   C31   A    
C51   H19   S    
C17   H1    S    
O4    V2    S    
C57   H33   S    
C11   O23   S    
C23   C35   A    
C28   C32   A    
C24   C28   A    
C19   H3    S    
C25   C26   A    
C4    O14   A    
C54   H24   S    
C18   H2    S    
C17   C21   A    
C38   H10   S    
C33   H5    S    
C50   H15   S    
C19   C23   A    
C22   C34   A    
C20   C24   A    
C35   H7    S    
O18   V2    S    
