data_mof_unit_17891.cif
_audit_creation_date              2012-12-11T14:34:14-0500
_audit_creation_method            fapswitch 2.2
_symmetry_space_group_name_H-M    P1
_symmetry_Int_Tables_number       1
_space_group_crystal_system       triclinic
_cell_length_a                    13.847129
_cell_length_b                    13.970964
_cell_length_c                    27.325948
_cell_angle_alpha                 89.958754
_cell_angle_beta                  90.095104
_cell_angle_gamma                 119.611335
_cell_volume                      4595.98901993

loop_
_atom_site_label
_atom_site_type_symbol
_atom_type_description
_atom_site_fract_x
_atom_site_fract_y
_atom_site_fract_z
_atom_type_partial_charge
C1    C     C_R   0.233897 0.787208 0.568742 0.539690
C2    C     C_1   0.708085 0.862286 0.860054 -0.056804
C3    C     C_1   0.114022 0.881206 0.852678 -0.059591
C4    C     C_1   0.113598 0.231850 0.852376 -0.059400
C5    C     C_1   0.629735 0.814499 0.658790 -0.073239
C6    C     C_1   0.177316 0.819156 0.656313 -0.073846
C7    C     C_1   0.178196 0.358363 0.656280 -0.073855
C8    C     C_1   0.601787 0.796394 0.616551 -0.015473
C9    C     C_1   0.199149 0.806193 0.615147 -0.015608
C10   C     C_1   0.192887 0.393035 0.615121 -0.015706
C11   C     C_R   0.064866 0.150335 0.095981 0.576171
C12   C     C_R   0.212539 0.446385 0.568740 0.542630
C13   C     C_R   0.777500 0.884067 0.088388 0.550241
C14   C     C_R   0.116472 0.893636 0.088155 0.563439
C15   C     C_R   0.069317 0.160433 0.943233 0.536212
C16   C     C_R   0.779675 0.887136 0.950776 0.547408
C17   C     C_R   0.090642 0.929736 0.943385 0.533131
C18   C     C_R   0.618356 0.895642 0.361478 -0.132974
C19   C     C_R   0.097199 0.732524 0.362849 -0.134533
C20   C     C_R   0.264404 0.357734 0.363756 -0.135261
C21   C     C_R   0.644745 0.911283 0.311862 0.014239
C22   C     C_R   0.080616 0.743999 0.313189 0.014347
C23   C     C_R   0.552984 0.765370 0.568958 0.539408
C24   C     C_R   0.241457 0.306895 0.317664 0.014038
C25   C     C_R   0.681227 0.929247 0.210390 0.016981
C26   C     C_R   0.060617 0.759964 0.211558 0.016858
C27   C     C_R   0.200849 0.226039 0.220970 0.017165
C28   C     C_R   0.232507 0.788339 0.431809 0.547515
C29   C     C_R   0.211709 0.444521 0.431364 0.549535
C30   C     C_R   0.555571 0.767207 0.431890 0.548498
C31   C     C_R   0.653607 0.000954 0.234497 -0.137538
C32   C     C_R   0.977447 0.670874 0.237623 -0.127335
C33   C     C_R   0.303208 0.256878 0.243569 -0.123488
C34   C     C_3   0.663974 0.733270 0.789527 -0.078129
C35   C     C_R   0.635174 0.991876 0.284973 -0.130892
C36   C     C_R   0.988008 0.662236 0.288103 -0.128743
C37   C     C_R   0.323504 0.297332 0.291531 -0.128564
C38   C     C_R   0.704209 0.939659 0.160141 -0.149091
C39   C     C_R   0.050685 0.771109 0.161194 -0.134303
C40   C     C_R   0.183024 0.195234 0.171513 -0.127899
C41   C     C_R   0.729005 0.864872 0.137130 -0.002117
C42   C     C_R   0.135358 0.861308 0.136261 -0.003757
C43   C     C_R   0.082886 0.172639 0.148628 -0.009088
C44   C     C_R   0.658793 0.744862 0.364114 -0.131395
C45   C     C_3   0.246970 0.955397 0.783014 -0.078343
C46   C     C_R   0.266110 0.910821 0.361905 -0.128467
C47   C     C_R   0.076261 0.328172 0.367964 -0.130240
C48   C     C_R   0.682978 0.757710 0.314584 0.013478
C49   C     C_R   0.254355 0.920463 0.312202 0.013869
C50   C     C_R   0.052801 0.279232 0.321901 0.011799
C51   C     C_R   0.673491 0.839539 0.288029 0.064093
C52   C     C_R   0.162379 0.835922 0.287423 0.063495
C53   C     C_R   0.136287 0.270584 0.296099 0.062720
C54   C     C_R   0.708199 0.684420 0.290593 -0.126837
C55   C     C_R   0.337650 0.009624 0.286450 -0.127218
C56   C     C_3   0.050594 0.310459 0.785043 -0.080229
C57   C     C_R   0.949333 0.245401 0.299995 -0.129068
C58   C     C_R   0.720195 0.689552 0.240129 -0.126827
C59   C     C_R   0.331791 0.013373 0.235865 -0.129312
C60   C     C_R   0.930381 0.208174 0.251820 -0.122134
C61   C     C_R   0.710296 0.770025 0.213574 0.010857
C62   C     C_R   0.240676 0.930040 0.210938 0.014019
C63   C     C_R   0.013516 0.201865 0.225357 0.016859
C64   C     C_3   0.564012 0.849774 0.737355 -0.218624
C65   C     C_3   0.141398 0.733207 0.738669 -0.217635
C66   C     C_3   0.270183 0.393557 0.737298 -0.217649
C67   C     C_3   0.641829 0.720956 0.733393 -0.208475
C68   C     C_R   0.688811 0.846710 0.237350 0.065239
C69   C     C_R   0.154329 0.841951 0.236639 0.063811
C70   C     C_R   0.116290 0.231012 0.247727 0.062143
C71   C     C_R   0.724893 0.776635 0.163591 -0.121942
C72   C     C_R   0.232736 0.936058 0.160779 -0.131341
C73   C     C_R   0.997320 0.171995 0.176174 -0.128798
C74   C     C_R   0.618596 0.807909 0.386706 -0.003289
C75   C     C_R   0.193502 0.813120 0.386392 -0.003641
C76   C     C_R   0.183307 0.372617 0.388097 -0.004830
C77   C     C_3   0.768637 0.924918 0.723051 -0.222555
C78   C     C_3   0.263071 0.937851 0.728117 -0.208215
C79   C     C_3   0.056944 0.849904 0.714268 -0.220337
C80   C     C_3   0.124893 0.201715 0.713177 -0.220100
C81   C     C_3   0.788027 0.937397 0.779165 -0.236008
C82   C     C_3   0.039575 0.865137 0.769110 -0.237138
C83   C     C_3   0.107289 0.168444 0.767842 -0.238735
C84   C     C_1   0.735089 0.873307 0.902443 -0.007196
C85   C     C_1   0.102654 0.901560 0.894346 -0.006617
C86   C     C_1   0.095735 0.200156 0.894082 -0.009968
C87   C     C_3   0.651345 0.827876 0.711723 0.055448
C88   C     C_3   0.159412 0.834453 0.707969 0.054290
C89   C     C_3   0.069873 0.345297 0.730187 -0.208709
C90   C     C_3   0.161214 0.325065 0.707862 0.054149
C91   C     C_3   0.584474 0.862941 0.793405 -0.206795
C92   C     C_3   0.122995 0.749055 0.793469 -0.202456
C93   C     C_3   0.252872 0.358842 0.791929 -0.201297
C94   C     C_3   0.685136 0.848430 0.807129 0.053170
C95   C     C_3   0.131132 0.862859 0.801143 0.052890
C96   C     C_3   0.131000 0.267722 0.800903 0.051202
C97   C     C_1   0.571773 0.642050 0.816287 0.176963
C98   C     C_1   0.339150 0.961542 0.812759 0.178666
C99   C     C_1   0.062745 0.402488 0.816007 0.180341
Cr1   Cr    Cr6+3 0.164410 0.584450 0.499910 1.018000
Cr2   Cr    Cr6+3 0.415550 0.579960 0.499910 1.018535
Cr3   Cr    Cr6+3 0.420040 0.835590 0.499910 1.015485
Cr4   Cr    Cr6+3 0.155170 0.075460 0.019960 1.031412
Cr5   Cr    Cr6+3 0.924540 0.079710 0.019960 1.019104
Cr6   Cr    Cr6+3 0.920290 0.844830 0.019960 1.020459
H1    H     H_    0.600616 0.945990 0.804866 0.145182
H2    H     H_    0.739669 0.726971 0.797110 0.097670
H3    H     H_    0.250834 0.036263 0.786943 0.091884
H4    H     H_    0.963463 0.242508 0.789415 0.096429
H5    H     H_    0.706364 0.006983 0.139502 0.107022
H6    H     H_    0.975585 0.713374 0.142043 0.115891
H7    H     H_    0.248265 0.193085 0.150499 0.123031
H8    H     H_    0.588595 0.945617 0.379136 0.127391
H9    H     H_    0.039762 0.657873 0.382010 0.123066
H10   H     H_    0.346880 0.390903 0.379299 0.124566
H11   H     H_    0.646253 0.063885 0.214349 0.099564
H12   H     H_    0.039813 0.682263 0.805197 0.136304
H13   H     H_    0.905276 0.607185 0.218872 0.099569
H14   H     H_    0.368834 0.253221 0.223609 0.101585
H15   H     H_    0.612227 0.046933 0.302865 0.099701
H16   H     H_    0.924426 0.591314 0.307412 0.100789
H17   H     H_    0.404428 0.324114 0.307653 0.102031
H18   H     H_    0.742205 0.717172 0.145955 0.130832
H19   H     H_    0.298781 0.005278 0.141436 0.125425
H20   H     H_    0.919127 0.151840 0.158716 0.118209
H21   H     H_    0.737346 0.630789 0.221850 0.099231
H22   H     H_    0.397878 0.081847 0.216283 0.095553
H23   H     H_    0.310626 0.328232 0.802250 0.133690
H24   H     H_    0.852324 0.188367 0.234638 0.110956
H25   H     H_    0.715118 0.621070 0.310623 0.101186
H26   H     H_    0.408975 0.074490 0.305245 0.097086
H27   H     H_    0.884699 0.252049 0.319401 0.103109
H28   H     H_    0.568148 0.925712 0.722230 0.121720
H29   H     H_    0.068144 0.657294 0.724547 0.121003
H30   H     H_    0.337686 0.381535 0.721757 0.121057
H31   H     H_    0.661045 0.678584 0.383846 0.127815
H32   H     H_    0.339076 0.974923 0.380158 0.130983
H33   H     H_    0.012553 0.337567 0.386779 0.129975
H34   H     H_    0.478790 0.780483 0.730083 0.115598
H35   H     H_    0.832968 0.910511 0.705630 0.111174
H36   H     H_    0.068608 0.923145 0.693238 0.112353
H37   H     H_    0.046361 0.150647 0.692604 0.112657
H38   H     H_    0.777671 0.002667 0.707618 0.117167
H39   H     H_    0.981457 0.776962 0.699580 0.118025
H40   H     H_    0.189228 0.185042 0.697443 0.116343
H41   H     H_    0.806343 0.021176 0.790639 0.115959
H42   H     H_    0.956089 0.798842 0.780820 0.114232
H43   H     H_    0.163322 0.136258 0.778255 0.110621
H44   H     H_    0.861801 0.929386 0.788549 0.098911
H45   H     H_    0.214875 0.721298 0.735180 0.117131
H46   H     H_    0.040757 0.944245 0.774153 0.098401
H47   H     H_    0.020477 0.101692 0.773335 0.100757
H48   H     H_    0.558061 0.650200 0.724853 0.119927
H49   H     H_    0.338025 0.928985 0.722507 0.119684
H50   H     H_    0.094146 0.433679 0.725580 0.119183
H51   H     H_    0.703459 0.703217 0.715475 0.102978
H52   H     H_    0.277027 0.011737 0.706933 0.103052
H53   H     H_    0.990709 0.296717 0.709673 0.105056
H54   H     H_    0.297426 0.482850 0.734422 0.119907
H55   H     H_    0.508659 0.801486 0.813033 0.150124
H56   H     H_    0.185609 0.741846 0.816350 0.154366
H57   H     H_    0.273839 0.431699 0.815292 0.166430
N1    N     N_1   0.499770 0.570703 0.837370 -0.316771
N2    N     N_1   0.411199 0.966343 0.836113 -0.315352
N3    N     N_1   0.072332 0.474619 0.840217 -0.302808
O1    O     O_R   0.137150 0.468200 0.553200 -0.511272
O2    O     O_R   0.140110 0.470540 0.446010 -0.521654
O3    O     O_R   0.529460 0.669570 0.446010 -0.521546
O4    O     O_R   0.330430 0.859890 0.446010 -0.524028
O5    O     O_R   0.176710 0.690910 0.450560 -0.502106
O6    O     O_R   0.309090 0.485800 0.450560 -0.501292
O7    O     O_R   0.514200 0.823290 0.450560 -0.504056
O8    O     O_3   0.333333 0.666667 0.499990 -0.263082
O9    O     O_R   0.176750 0.985260 0.074180 -0.529083
O10   O     O_R   0.014740 0.191490 0.074180 -0.490291
O11   O     O_R   0.808510 0.823250 0.074180 -0.516030
O12   O     O_R   0.531800 0.668950 0.553200 -0.511312
O13   O     O_R   0.146100 0.172630 0.068980 -0.476809
O14   O     O_R   0.827370 0.973470 0.068980 -0.517959
O15   O     O_R   0.026530 0.853900 0.068980 -0.489096
O16   O     O_3   1.000000 0.000000 0.020040 -0.294151
O17   O     O_R   0.148270 0.170520 0.969620 -0.485276
O18   O     O_R   0.829480 0.977750 0.969620 -0.521191
O19   O     O_R   0.022250 0.851730 0.969620 -0.478216
O20   O     O_R   0.331050 0.862850 0.553200 -0.509732
O21   O     O_R   0.179100 0.982980 0.967000 -0.491066
O22   O     O_R   0.017020 0.196120 0.967000 -0.470965
O23   O     O_R   0.803880 0.820900 0.967000 -0.505615
O24   O     O_R   0.173970 0.688730 0.549930 -0.500599
O25   O     O_R   0.311270 0.485240 0.549930 -0.499882
O26   O     O_R   0.514760 0.826030 0.549930 -0.498651

loop_
_geom_bond_atom_site_label_1
_geom_bond_atom_site_label_2
_ccdc_geom_bond_type
C92   H56   S    
C44   H31   S    
C13   O11   A    
C26   C32   A    
C55   C59   A    
C65   C92   S    
C18   C21   A    
C56   H4    S    
C57   H27   S    
Cr2   O8    S    
Cr1   O24   S    
C17   O19   A    
C77   H35   S    
C8    C23   S    
C6    C9    T    
C23   O26   A    
C82   H42   S    
C16   O18   A    
C89   H53   S    
C40   H7    S    
C29   C76   S    
C66   H30   S    
C27   C33   A    
Cr3   O8    S    
C48   C54   A    
Cr4   O21   S    
C46   C49   A    
C60   C63   A    
C17   C85   S    
C34   H2    S    
C32   C36   A    
Cr6   O23   S    
C71   H18   S    
C47   C76   A    
C45   C98   S    
C12   O1    A    
C30   C74   S    
C73   H20   S    
C26   C39   A    
C89   H50   S    
Cr5   O14   S    
C4    C86   T    
C59   H22   S    
Cr4   O17   S    
C15   O17   A    
C16   C84   S    
C34   C97   S    
C6    C88   S    
C20   C76   A    
Cr1   O1    S    
C7    C10   T    
C65   H45   S    
C66   H54   S    
C52   C69   A    
C4    C96   S    
C2    C84   T    
C43   C73   A    
C40   C43   A    
C20   C24   A    
C97   N1    T    
Cr6   O11   S    
C11   C43   S    
C45   C78   S    
C47   C50   A    
C17   O21   A    
C64   C87   S    
C82   H46   S    
C45   H3    S    
C41   C71   A    
C61   C71   A    
C58   C61   A    
C39   H6    S    
Cr5   O16   S    
C46   C75   A    
C18   C74   A    
C72   H19   S    
C91   H1    S    
C35   H15   S    
C25   C68   A    
C80   C83   S    
C53   C70   A    
C18   H8    S    
C13   C41   S    
C79   C88   S    
Cr3   O26   S    
C39   C42   A    
C79   C82   S    
C48   C51   A    
Cr3   O7    S    
C54   H25   S    
C50   C53   A    
Cr1   O5    S    
Cr3   O20   S    
C2    C94   S    
C19   C22   A    
C1    C9    S    
C38   C41   A    
C66   C90   S    
Cr2   O25   S    
C16   O23   A    
C78   H49   S    
C57   C60   A    
C63   C73   A    
C19   H9    S    
C24   C53   A    
C13   O14   A    
C7    C90   S    
C15   O22   A    
Cr4   O9    S    
C33   C37   A    
C83   H43   S    
C62   C69   A    
C67   H51   S    
C34   C67   S    
Cr2   O3    S    
C92   H12   S    
C77   H38   S    
C25   C38   A    
C5    C8    T    
C78   H52   S    
C98   N2    T    
C79   H39   S    
C63   C70   A    
C77   C81   S    
C27   C40   A    
C49   C52   A    
C42   C72   A    
C24   C37   A    
C62   C72   A    
C11   O13   A    
C29   O6    A    
C44   C74   A    
C30   O7    A    
C91   H55   S    
C27   C70   A    
C10   C12   S    
C66   C93   S    
C28   O5    A    
C80   H40   S    
C33   H14   S    
C93   C96   S    
C55   H26   S    
C46   H32   S    
C31   C35   A    
C3    C85   T    
C38   H5    S    
Cr6   O15   S    
C45   C95   S    
C31   H11   S    
C21   C51   A    
C12   O25   A    
C65   C88   S    
C22   C52   A    
C83   H47   S    
C54   C58   A    
C78   C88   S    
C56   C96   S    
Cr5   O22   S    
C64   H28   S    
C56   C89   S    
C59   C62   A    
C82   C95   S    
Cr4   O16   S    
C50   C57   A    
C11   O10   A    
C25   C31   A    
C34   C94   S    
C32   H13   S    
C60   H24   S    
C20   H10   S    
C15   C86   S    
C58   H21   S    
C21   C35   A    
C1    O20   A    
C22   C36   A    
C80   H37   S    
C56   C99   S    
C14   C42   S    
C67   H48   S    
Cr4   O13   S    
C29   O2    A    
C19   C75   A    
C36   H16   S    
C93   H23   S    
C30   O3    A    
C14   O9    A    
C49   C55   A    
C91   C94   S    
C81   C94   S    
C61   C68   A    
C79   H36   S    
C93   H57   S    
Cr3   O4    S    
C81   H44   S    
C83   C96   S    
C47   H33   S    
Cr1   O2    S    
Cr5   O10   S    
Cr2   O6    S    
C65   H29   S    
C51   C68   A    
C92   C95   S    
Cr6   O19   S    
C80   C90   S    
C23   O12   A    
Cr2   O12   S    
C37   H17   S    
C5    C87   S    
C28   O4    A    
Cr5   O18   S    
C77   C87   S    
C81   H41   S    
Cr1   O8    S    
C26   C69   A    
C3    C95   S    
C64   C91   S    
Cr6   O16   S    
C89   C90   S    
C28   C75   S    
C14   O15   A    
C44   C48   A    
C67   C87   S    
C99   N3    T    
C64   H34   S    
C1    O24   A    
