data_mof_unit_18458.cif
_audit_creation_date              2012-12-10T17:35:43-0500
_audit_creation_method            fapswitch 2.2
_symmetry_space_group_name_H-M    P1
_symmetry_Int_Tables_number       1
_space_group_crystal_system       monoclinic
_cell_length_a                    38.647762
_cell_length_b                    31.473996
_cell_length_c                    23.32828
_cell_angle_alpha                 90.0
_cell_angle_beta                  52.420803
_cell_angle_gamma                 90.0
_cell_volume                      22488.6984494

loop_
_atom_site_label
_atom_site_type_symbol
_atom_type_description
_atom_site_fract_x
_atom_site_fract_y
_atom_site_fract_z
_atom_type_partial_charge
C1    C     C_R   0.914993 0.500282 0.581581 0.906868
C2    C     C_R   0.085006 0.500282 0.418419 0.906868
C3    C     C_R   0.414993 0.000282 0.581581 0.906868
C4    C     C_R   0.585006 0.000282 0.418419 0.906868
C5    C     C_3   0.976476 0.458203 0.237227 -0.471151
C6    C     C_3   0.023523 0.458203 0.762773 -0.471151
C7    C     C_3   0.476476 0.958203 0.237227 -0.471151
C8    C     C_3   0.523524 0.958203 0.762773 -0.471151
C9    C     C_R   0.656712 0.472100 0.881632 -0.243706
C10   C     C_R   0.343288 0.472100 0.118368 -0.243706
C11   C     C_R   0.156712 0.972100 0.881632 -0.243706
C12   C     C_R   0.843288 0.972100 0.118368 -0.243706
C13   C     C_R   0.633705 0.499968 0.866167 -0.036036
C14   C     C_R   0.366295 0.499968 0.133833 -0.036037
C15   C     C_R   0.133705 0.999968 0.866167 -0.036036
C16   C     C_R   0.866295 0.999968 0.133833 -0.036037
C17   C     C_R   0.657521 0.527827 0.804242 -0.240310
C18   C     C_R   0.342479 0.527827 0.195758 -0.240310
C19   C     C_R   0.157521 0.027827 0.804242 -0.240310
C20   C     C_R   0.842479 0.027827 0.195758 -0.240310
C21   C     C_R   0.703517 0.528427 0.756513 0.047278
C22   C     C_R   0.296483 0.528427 0.243487 0.047278
C23   C     C_R   0.203517 0.028427 0.756513 0.047278
C24   C     C_R   0.796483 0.028427 0.243487 0.047278
C25   C     C_R   0.726741 0.499990 0.773226 0.038576
C26   C     C_R   0.273259 0.499990 0.226774 0.038576
C27   C     C_R   0.226740 0.999990 0.773226 0.038576
C28   C     C_R   0.773259 0.999990 0.226774 0.038576
C29   C     C_R   0.703509 0.471531 0.836417 0.071208
C30   C     C_R   0.296490 0.471531 0.163583 0.071208
C31   C     C_R   0.203510 0.971531 0.836417 0.071208
C32   C     C_R   0.796490 0.971531 0.163583 0.071208
C33   C     C_R   0.726598 0.557070 0.693126 -0.080151
C34   C     C_R   0.273401 0.557070 0.306874 -0.080151
C35   C     C_R   0.226598 0.057070 0.693126 -0.080151
C36   C     C_R   0.773401 0.057070 0.306874 -0.080151
C37   C     C_R   0.773335 0.557393 0.646249 0.173550
C38   C     C_R   0.226665 0.557393 0.353751 0.173550
C39   C     C_R   0.273335 0.057393 0.646249 0.173550
C40   C     C_R   0.726665 0.057393 0.353751 0.173550
C41   C     C_R   0.796438 0.528466 0.663557 0.074117
C42   C     C_R   0.203562 0.528466 0.336443 0.074117
C43   C     C_R   0.296438 0.028466 0.663557 0.074117
C44   C     C_R   0.703562 0.028466 0.336443 0.074117
C45   C     C_R   0.999011 0.500066 0.381376 0.838349
C46   C     C_R   0.000989 0.500066 0.618624 0.838349
C47   C     C_R   0.499011 0.000066 0.381376 0.838349
C48   C     C_R   0.500989 0.000066 0.618624 0.838349
C49   C     C_R   0.773215 0.499988 0.726755 -0.039599
C50   C     C_R   0.226784 0.499988 0.273244 -0.039599
C51   C     C_R   0.273215 0.999988 0.726755 -0.039599
C52   C     C_R   0.726784 0.999988 0.273244 -0.039599
C53   C     C_R   0.796517 0.471412 0.743562 0.005339
C54   C     C_R   0.203483 0.471412 0.256438 0.005339
C55   C     C_R   0.296517 0.971412 0.743562 0.005339
C56   C     C_R   0.703483 0.971412 0.256438 0.005339
C57   C     C_R   0.774229 0.440085 0.809017 -0.080094
C58   C     C_R   0.225771 0.440085 0.190982 -0.080093
C59   C     C_R   0.274229 0.940085 0.809017 -0.080094
C60   C     C_R   0.725771 0.940085 0.190982 -0.080093
C61   C     C_R   0.726688 0.443001 0.853253 -0.030017
C62   C     C_R   0.273312 0.443001 0.146747 -0.030016
C63   C     C_R   0.226688 0.943001 0.853253 -0.030017
C64   C     C_R   0.773312 0.943001 0.146747 -0.030016
C65   C     C_R   0.843122 0.527703 0.618245 -0.276592
C66   C     C_R   0.156878 0.527703 0.381755 -0.276592
C67   C     C_R   0.343122 0.027703 0.618245 -0.276592
C68   C     C_R   0.656878 0.027703 0.381755 -0.276592
C69   C     C_R   0.866228 0.499963 0.633822 -0.078568
C70   C     C_R   0.133772 0.499963 0.366178 -0.078568
C71   C     C_R   0.366228 0.999963 0.633822 -0.078568
C72   C     C_R   0.633772 0.999963 0.366178 -0.078568
C73   C     C_R   0.843330 0.471088 0.697561 0.138974
C74   C     C_R   0.156669 0.471088 0.302439 0.138974
C75   C     C_R   0.343330 0.971088 0.697561 0.138974
C76   C     C_R   0.656669 0.971088 0.302439 0.138974
C77   C     C_R   1.000000 0.584790 0.000000 0.917709
C78   C     C_R   0.500000 0.084791 0.000000 0.917709
C79   C     C_R   0.999729 0.498572 0.118526 0.833726
C80   C     C_R   0.000271 0.498572 0.881474 0.833728
C81   C     C_R   0.499729 0.998572 0.118526 0.833726
C82   C     C_R   0.500271 0.998572 0.881474 0.833728
C83   C     C_R   0.000000 0.415138 0.000000 0.899706
C84   C     C_R   0.500000 0.915138 0.000000 0.899706
C85   C     C_3   0.975816 0.542470 0.310571 -0.426677
C86   C     C_3   0.024184 0.542470 0.689429 -0.426677
C87   C     C_3   0.475816 0.042470 0.310571 -0.426677
C88   C     C_3   0.524184 0.042470 0.689429 -0.426677
C89   C     C_R   0.500000 0.415164 0.000000 0.848502
C90   C     C_R   1.000000 0.915164 0.000000 0.848502
C91   C     C_R   0.584389 0.499200 0.915976 0.832882
C92   C     C_R   0.415610 0.499200 0.084024 0.832883
C93   C     C_R   0.084389 0.999200 0.915976 0.832882
C94   C     C_R   0.915610 0.999200 0.084024 0.832883
C95   C     C_R   0.500000 0.584887 0.000000 0.881154
C96   C     C_R   0.000000 0.084887 0.000000 0.881154
C97   C     C_R   0.529144 0.342670 0.932846 -0.226453
C98   C     C_R   0.470855 0.342670 0.067154 -0.226453
C99   C     C_R   0.029144 0.842669 0.932846 -0.226453
C100  C     C_R   0.970855 0.842669 0.067154 -0.226453
C101  C     C_R   0.500000 0.366270 0.000000 -0.049514
C102  C     C_R   1.000000 0.866270 0.000000 -0.049514
C103  C     C_R   0.471515 0.296420 0.068338 0.068097
C104  C     C_R   0.528485 0.296420 0.931662 0.068097
C105  C     C_R   0.971515 0.796420 0.068338 0.068097
C106  C     C_R   0.028485 0.796420 0.931662 0.068097
C107  C     C_R   0.500000 0.273176 0.000000 0.031214
C108  C     C_R   1.000000 0.773176 0.000000 0.031214
C109  C     C_R   0.442919 0.273299 0.136887 -0.039010
C110  C     C_R   0.557081 0.273299 0.863112 -0.039009
C111  C     C_R   0.942919 0.773300 0.136887 -0.039010
C112  C     C_R   0.057081 0.773300 0.863112 -0.039009
C113  C     C_R   0.941028 0.727925 0.134191 -0.261441
C114  C     C_R   0.058972 0.727925 0.865809 -0.261441
C115  C     C_R   0.441028 0.227925 0.134191 -0.261441
C116  C     C_R   0.558972 0.227925 0.865809 -0.261441
C117  C     C_R   0.968957 0.705505 0.066104 0.062017
C118  C     C_R   0.031043 0.705505 0.933896 0.062017
C119  C     C_R   0.468957 0.205505 0.066104 0.062017
C120  C     C_R   0.531043 0.205505 0.933896 0.062017
C121  C     C_3   0.974993 0.542826 0.239262 -0.186237
C122  C     C_3   0.025006 0.542826 0.760738 -0.186237
C123  C     C_3   0.474993 0.042826 0.239262 -0.186237
C124  C     C_3   0.525006 0.042826 0.760738 -0.186237
C125  C     C_R   1.000000 0.726856 0.000000 0.051645
C126  C     C_R   0.500000 0.226855 0.000000 0.051645
C127  C     C_R   0.969054 0.653747 0.065982 -0.269504
C128  C     C_R   0.030946 0.653747 0.934018 -0.269504
C129  C     C_R   0.469054 0.153747 0.065982 -0.269504
C130  C     C_R   0.530946 0.153747 0.934018 -0.269504
C131  C     C_R   0.000000 0.633402 0.000000 0.021669
C132  C     C_R   0.500000 0.133402 0.000000 0.021669
C133  C     C_R   0.528769 0.656635 0.012074 -0.050616
C134  C     C_R   0.471231 0.656635 0.987926 -0.050619
C135  C     C_R   0.028769 0.156635 0.012074 -0.050616
C136  C     C_R   0.971231 0.156635 0.987926 -0.050619
C137  C     C_R   0.500000 0.633736 0.000000 0.051609
C138  C     C_R   1.000000 0.133736 0.000000 0.051609
C139  C     C_R   0.471509 0.703479 0.988349 -0.019144
C140  C     C_R   0.528490 0.703479 0.011651 -0.019144
C141  C     C_R   0.971509 0.203479 0.988349 -0.019144
C142  C     C_R   0.028490 0.203479 0.011651 -0.019144
C143  C     C_R   0.500000 0.726747 0.000000 -0.015369
C144  C     C_R   0.000000 0.226747 0.000000 -0.015369
C145  C     C_R   0.442427 0.726371 0.975589 0.204315
C146  C     C_R   0.557572 0.726371 0.024411 0.204314
C147  C     C_R   0.942427 0.226371 0.975589 0.204315
C148  C     C_R   0.057572 0.226371 0.024411 0.204314
C149  C     C_R   0.943168 0.273126 0.977234 -0.250295
C150  C     C_R   0.056832 0.273126 0.022766 -0.250295
C151  C     C_R   0.443168 0.773126 0.977234 -0.250295
C152  C     C_R   0.556832 0.773126 0.022766 -0.250295
C153  C     C_R   0.971516 0.296463 0.988438 0.087531
C154  C     C_R   0.028483 0.296463 0.011562 0.087532
C155  C     C_R   0.471517 0.796463 0.988438 0.087531
C156  C     C_R   0.528483 0.796463 0.011562 0.087532
C157  C     C_3   0.049025 0.501401 0.236682 -0.480185
C158  C     C_3   0.950974 0.501401 0.763318 -0.480183
C159  C     C_3   0.549025 0.001401 0.236682 -0.480185
C160  C     C_3   0.450974 0.001401 0.763318 -0.480183
C161  C     C_R   0.000000 0.273220 0.000000 0.054306
C162  C     C_R   0.500000 0.773220 0.000000 0.054306
C163  C     C_R   0.971598 0.342854 0.988688 -0.228906
C164  C     C_R   0.028401 0.342854 0.011312 -0.228907
C165  C     C_R   0.471598 0.842854 0.988688 -0.228906
C166  C     C_R   0.528401 0.842854 0.011312 -0.228907
C167  C     C_R   1.000000 0.366280 0.000000 -0.050359
C168  C     C_R   0.500000 0.866280 0.000000 -0.050359
C169  C     C_3   0.976136 0.457964 0.310279 0.451996
C170  C     C_3   0.023864 0.457964 0.689721 0.451996
C171  C     C_3   0.476136 0.957964 0.310279 0.451996
C172  C     C_3   0.523864 0.957964 0.689721 0.451996
C173  C     C_3   0.000359 0.500472 0.311611 0.015715
C174  C     C_3   0.999641 0.500472 0.688389 0.015715
C175  C     C_3   0.500359 0.000472 0.311611 0.015715
C176  C     C_3   0.499641 0.000472 0.688389 0.015715
C177  C     C_3   0.999709 0.500779 0.188210 -0.046007
C178  C     C_3   0.000291 0.500779 0.811790 -0.046008
C179  C     C_3   0.499709 0.000779 0.188210 -0.046007
C180  C     C_3   0.500291 0.000779 0.811790 -0.046008
C181  C     C_3   0.048616 0.501288 0.164275 0.413563
C182  C     C_3   0.951383 0.501288 0.835724 0.413563
C183  C     C_3   0.548616 0.001288 0.164275 0.413563
C184  C     C_3   0.451383 0.001288 0.835724 0.413563
H1    H     H_    0.992417 0.573551 0.310569 0.193790
H2    H     H_    0.007583 0.573551 0.689431 0.193790
H3    H     H_    0.492417 0.073551 0.310569 0.193790
H4    H     H_    0.507583 0.073551 0.689431 0.193790
H5    H     H_    0.993578 0.427947 0.201713 0.157033
H6    H     H_    0.006422 0.427947 0.798287 0.157033
H7    H     H_    0.493578 0.927947 0.201713 0.157033
H8    H     H_    0.506422 0.927947 0.798287 0.157033
H9    H     H_    0.067515 0.472471 0.234565 0.154533
H10   H     H_    0.932485 0.472471 0.765435 0.154532
H11   H     H_    0.567515 0.972472 0.234565 0.154533
H12   H     H_    0.432485 0.972472 0.765435 0.154532
H13   H     H_    0.637375 0.453841 0.929503 0.148984
H14   H     H_    0.362625 0.453841 0.070497 0.148984
H15   H     H_    0.137375 0.953841 0.929503 0.148984
H16   H     H_    0.862625 0.953841 0.070497 0.148984
H17   H     H_    0.641961 0.547172 0.792134 0.154528
H18   H     H_    0.358039 0.547172 0.207866 0.154528
H19   H     H_    0.141961 0.047172 0.792134 0.154528
H20   H     H_    0.858039 0.047172 0.207866 0.154528
H21   H     H_    0.863834 0.548481 0.571309 0.158510
H22   H     H_    0.136165 0.548481 0.428691 0.158510
H23   H     H_    0.363834 0.048481 0.571309 0.158510
H24   H     H_    0.636165 0.048481 0.428691 0.158510
H25   H     H_    0.940781 0.544123 0.363609 0.148341
H26   H     H_    0.059219 0.544123 0.636391 0.148341
H27   H     H_    0.440781 0.044123 0.363609 0.148341
H28   H     H_    0.559219 0.044123 0.636391 0.148341
H29   H     H_    0.552124 0.362135 0.880974 0.163611
H30   H     H_    0.447876 0.362135 0.119026 0.163611
H31   H     H_    0.052124 0.862135 0.880974 0.163611
H32   H     H_    0.947876 0.862135 0.119026 0.163611
H33   H     H_    0.919723 0.709750 0.189029 0.124749
H34   H     H_    0.080276 0.709750 0.810971 0.124749
H35   H     H_    0.419724 0.209750 0.189029 0.124749
H36   H     H_    0.580276 0.209750 0.810971 0.124749
H37   H     H_    0.947700 0.637232 0.117470 0.147362
H38   H     H_    0.052300 0.637232 0.882530 0.147362
H39   H     H_    0.447700 0.137232 0.117470 0.147362
H40   H     H_    0.552300 0.137232 0.882530 0.147362
H41   H     H_    0.921278 0.290885 0.968381 0.143131
H42   H     H_    0.078722 0.290885 0.031619 0.143131
H43   H     H_    0.421278 0.790885 0.968381 0.143131
H44   H     H_    0.578722 0.790885 0.031619 0.143131
H45   H     H_    0.949726 0.360714 0.979891 0.137812
H46   H     H_    0.050274 0.360714 0.020109 0.137812
H47   H     H_    0.449726 0.860714 0.979891 0.137812
H48   H     H_    0.550274 0.860714 0.020109 0.137812
H49   H     H_    0.939435 0.542835 0.259464 0.148469
H50   H     H_    0.060565 0.542835 0.740536 0.148469
H51   H     H_    0.439435 0.042835 0.259464 0.148469
H52   H     H_    0.560565 0.042835 0.740536 0.148469
H53   H     H_    0.067473 0.530703 0.236566 0.144861
H54   H     H_    0.932527 0.530703 0.763434 0.144861
H55   H     H_    0.567472 0.030703 0.236566 0.144861
H56   H     H_    0.432527 0.030703 0.763434 0.144861
H57   H     H_    0.941252 0.455695 0.255628 0.179449
H58   H     H_    0.058748 0.455695 0.744372 0.179449
H59   H     H_    0.441252 0.955695 0.255628 0.179449
H60   H     H_    0.558748 0.955695 0.744372 0.179449
O1    O     O_R   0.933920 0.537280 0.566050 -0.633789
O2    O     O_R   0.066080 0.537280 0.433950 -0.633788
O3    O     O_R   0.433920 0.037280 0.566050 -0.633789
O4    O     O_R   0.566080 0.037280 0.433950 -0.633788
O5    O     O_R   0.566010 0.499970 0.881660 -0.619264
O6    O     O_R   0.433990 0.499970 0.118340 -0.619265
O7    O     O_R   0.066010 0.999970 0.881660 -0.619264
O8    O     O_R   0.933990 0.999970 0.118340 -0.619265
O9    O     O_R   0.566080 0.499950 0.986150 -0.661723
O10   O     O_R   0.433920 0.499950 0.013850 -0.661722
O11   O     O_R   0.066080 0.999950 0.986150 -0.661723
O12   O     O_R   0.933920 0.999950 0.013850 -0.661722
O13   O     O_R   0.499950 0.566010 0.947790 -0.722475
O14   O     O_R   0.500050 0.566010 0.052210 -0.722476
O15   O     O_R   0.999950 0.066010 0.947790 -0.722475
O16   O     O_R   0.000050 0.066010 0.052210 -0.722476
O17   O     O_R   0.933880 0.462680 0.566080 -0.703092
O18   O     O_R   0.066120 0.462680 0.433920 -0.703092
O19   O     O_R   0.433880 0.962680 0.566080 -0.703092
O20   O     O_R   0.566120 0.962680 0.433920 -0.703092
O21   O     O_R   0.999990 0.537270 0.407410 -0.630756
O22   O     O_R   0.000010 0.537270 0.592590 -0.630757
O23   O     O_R   0.499990 0.037270 0.407410 -0.630756
O24   O     O_R   0.500010 0.037270 0.592590 -0.630757
O25   O     O_R   0.999940 0.462670 0.407440 -0.658629
O26   O     O_R   0.000060 0.462670 0.592560 -0.658629
O27   O     O_R   0.499940 0.962670 0.407440 -0.658629
O28   O     O_R   0.500060 0.962670 0.592560 -0.658629
O29   O     O_R   0.962660 0.566020 0.037320 -0.658637
O30   O     O_R   0.037340 0.566020 0.962680 -0.658637
O31   O     O_R   0.462660 0.066020 0.037320 -0.658637
O32   O     O_R   0.537340 0.066020 0.962680 -0.658637
O33   O     O_R   0.962680 0.499950 0.129900 -0.633478
O34   O     O_R   0.037320 0.499950 0.870100 -0.633478
O35   O     O_R   0.462680 0.999950 0.129900 -0.633478
O36   O     O_R   0.537320 0.999950 0.870100 -0.633478
O37   O     O_R   0.037280 0.499990 0.055330 -0.702706
O38   O     O_R   0.962720 0.499990 0.944670 -0.702705
O39   O     O_R   0.537280 0.999990 0.055330 -0.702706
O40   O     O_R   0.462720 0.999990 0.944670 -0.702705
O41   O     O_R   0.962680 0.433880 0.037290 -0.634989
O42   O     O_R   0.037320 0.433880 0.962710 -0.634990
O43   O     O_R   0.462680 0.933880 0.037290 -0.634989
O44   O     O_R   0.537320 0.933880 0.962710 -0.634990
O45   O     O_R   0.499930 0.433870 0.947760 -0.619019
O46   O     O_R   0.500070 0.433870 0.052240 -0.619020
O47   O     O_R   0.999930 0.933870 0.947760 -0.619019
O48   O     O_R   0.000070 0.933870 0.052240 -0.619020
Zn1   Zn    Zn3+2 1.000000 0.549780 0.500000 0.937658
Zn2   Zn    Zn3+2 0.500000 0.049780 0.500000 0.937658
Zn3   Zn    Zn3+2 1.000000 0.450160 0.500000 0.822312
Zn4   Zn    Zn3+2 0.500000 0.950160 0.500000 0.822312
Zn5   Zn    Zn3+2 0.950160 0.499940 0.049810 0.900893
Zn6   Zn    Zn3+2 0.049840 0.499940 0.950190 0.900892
Zn7   Zn    Zn3+2 0.450160 0.999940 0.049810 0.900893
Zn8   Zn    Zn3+2 0.549840 0.999940 0.950190 0.900892
Zn9   Zn    Zn3+2 0.499930 0.499950 0.930250 0.886142
Zn10  Zn    Zn3+2 0.500070 0.499950 0.069750 0.886142
Zn11  Zn    Zn3+2 0.999930 0.999950 0.930250 0.886142
Zn12  Zn    Zn3+2 0.000070 0.999950 0.069750 0.886142
N1    N     N_2   0.074259 0.462070 0.114686 -0.277626
H61   H     H_    0.067565 0.431373 0.133814 0.185946
C185  C     C_3   0.115477 0.468586 0.035213 -0.631814
H62   H     H_    0.129645 0.436519 0.007621 0.188028
H63   H     H_    0.140188 0.487262 0.037079 0.228002
H64   H     H_    0.107794 0.486582 0.001211 0.250650
N2    N     N_2   0.925741 0.462070 0.885313 -0.277626
H65   H     H_    0.932435 0.431373 0.866186 0.185946
C186  C     C_3   0.884523 0.468586 0.964787 -0.631814
H66   H     H_    0.870355 0.436519 0.992379 0.188028
H67   H     H_    0.859812 0.487262 0.962920 0.228002
H68   H     H_    0.892206 0.486582 0.998788 0.250650
N3    N     N_2   0.574259 0.962070 0.114686 -0.277626
H69   H     H_    0.567565 0.931373 0.133814 0.185946
C187  C     C_3   0.615477 0.968586 0.035213 -0.631814
H70   H     H_    0.629645 0.936519 0.007621 0.188028
H71   H     H_    0.640188 0.987263 0.037079 0.228002
H72   H     H_    0.607794 0.986582 0.001211 0.250650
N4    N     N_2   0.425741 0.962070 0.885313 -0.277626
H73   H     H_    0.432435 0.931373 0.866186 0.185946
C188  C     C_3   0.384523 0.968586 0.964787 -0.631814
H74   H     H_    0.370355 0.936519 0.992379 0.188028
H75   H     H_    0.359812 0.987263 0.962920 0.228002
H76   H     H_    0.392206 0.986582 0.998788 0.250650
C189  C     C_R   0.701583 0.587666 0.675471 0.064834
C190  C     C_R   0.659280 0.576364 0.692730 -0.175435
C191  C     C_R   0.636470 0.603925 0.677798 -0.117999
C192  C     C_R   0.654978 0.644606 0.642043 -0.112811
C193  C     C_R   0.696823 0.656934 0.622867 -0.179076
C194  C     C_R   0.719886 0.628391 0.641622 0.064887
H77   H     H_    0.642397 0.547520 0.720461 0.132160
H78   H     H_    0.604096 0.594385 0.693183 0.124965
H79   H     H_    0.637140 0.666472 0.629603 0.119704
H80   H     H_    0.710896 0.688741 0.594648 0.123505
H81   H     H_    0.716269 0.640593 0.627180 -0.007229
C195  C     C_R   0.298417 0.587666 0.324529 0.064835
C196  C     C_R   0.340720 0.576364 0.307270 -0.175435
C197  C     C_R   0.363530 0.603925 0.322202 -0.117999
C198  C     C_R   0.345022 0.644606 0.357957 -0.112811
C199  C     C_R   0.303177 0.656934 0.377133 -0.179076
C200  C     C_R   0.280114 0.628391 0.358378 0.064886
H82   H     H_    0.357603 0.547520 0.279539 0.132160
H83   H     H_    0.395904 0.594385 0.306816 0.124965
H84   H     H_    0.362860 0.666472 0.370397 0.119704
H85   H     H_    0.289104 0.688741 0.405352 0.123505
H86   H     H_    0.283731 0.640593 0.372820 -0.007228
C201  C     C_R   0.201583 0.087666 0.675471 0.064834
C202  C     C_R   0.159280 0.076364 0.692730 -0.175435
C203  C     C_R   0.136470 0.103925 0.677798 -0.117999
C204  C     C_R   0.154978 0.144605 0.642043 -0.112811
C205  C     C_R   0.196823 0.156934 0.622867 -0.179076
C206  C     C_R   0.219886 0.128391 0.641622 0.064887
H87   H     H_    0.142397 0.047520 0.720461 0.132160
H88   H     H_    0.104096 0.094385 0.693183 0.124965
H89   H     H_    0.137140 0.166472 0.629603 0.119704
H90   H     H_    0.210896 0.188741 0.594648 0.123505
H91   H     H_    0.216269 0.140593 0.627180 -0.007229
C207  C     C_R   0.798417 0.087666 0.324529 0.064835
C208  C     C_R   0.840720 0.076364 0.307270 -0.175435
C209  C     C_R   0.863530 0.103925 0.322202 -0.117999
C210  C     C_R   0.845022 0.144605 0.357957 -0.112811
C211  C     C_R   0.803177 0.156934 0.377133 -0.179076
C212  C     C_R   0.780114 0.128391 0.358378 0.064886
H92   H     H_    0.857603 0.047520 0.279539 0.132160
H93   H     H_    0.895904 0.094385 0.306816 0.124965
H94   H     H_    0.862860 0.166472 0.370397 0.119704
H95   H     H_    0.789104 0.188741 0.405352 0.123505
H96   H     H_    0.783731 0.140593 0.372820 -0.007228
N5    N     N_2   0.798784 0.586886 0.579121 -0.308460
H97   H     H_    0.787670 0.607676 0.561532 0.241361
C213  C     C_3   0.847171 0.589478 0.525688 -0.776354
H98   H     H_    0.860567 0.612238 0.481509 0.237134
H99   H     H_    0.858757 0.552873 0.501680 0.217022
H100  H     H_    0.858034 0.598009 0.561485 0.238290
N6    N     N_2   0.201216 0.586886 0.420879 -0.308460
H101  H     H_    0.212330 0.607676 0.438468 0.241361
C214  C     C_3   0.152829 0.589478 0.474312 -0.776354
H102  H     H_    0.139432 0.612238 0.518491 0.237134
H103  H     H_    0.141243 0.552873 0.498320 0.217022
H104  H     H_    0.141966 0.598009 0.438515 0.238290
N7    N     N_2   0.298784 0.086886 0.579121 -0.308460
H105  H     H_    0.287670 0.107676 0.561532 0.241361
C215  C     C_3   0.347171 0.089478 0.525688 -0.776354
H106  H     H_    0.360567 0.112238 0.481509 0.237134
H107  H     H_    0.358757 0.052873 0.501680 0.217022
H108  H     H_    0.358034 0.098009 0.561485 0.238290
N8    N     N_2   0.701216 0.086886 0.420879 -0.308460
H109  H     H_    0.712330 0.107676 0.438468 0.241361
C216  C     C_3   0.652829 0.089478 0.474312 -0.776354
H110  H     H_    0.639432 0.112238 0.518491 0.237134
H111  H     H_    0.641243 0.052873 0.498320 0.217022
H112  H     H_    0.641966 0.098009 0.438515 0.238290
N9    N     N_2   0.868545 0.442124 0.713487 -0.336761
H113  H     H_    0.851640 0.420789 0.748667 0.248609
C217  C     C_3   0.919226 0.438836 0.666637 -0.606443
H114  H     H_    0.929122 0.414052 0.684633 0.210850
H115  H     H_    0.930460 0.473341 0.666481 0.237230
H116  H     H_    0.939722 0.429905 0.609321 0.315651
N10   N     N_2   0.131455 0.442124 0.286513 -0.336761
H117  H     H_    0.148360 0.420789 0.251333 0.248608
C218  C     C_3   0.080774 0.438836 0.333363 -0.606444
H118  H     H_    0.070878 0.414052 0.315367 0.210850
H119  H     H_    0.069540 0.473341 0.333519 0.237230
H120  H     H_    0.060278 0.429905 0.390679 0.315651
N11   N     N_2   0.368545 0.942124 0.713487 -0.336761
H121  H     H_    0.351640 0.920789 0.748667 0.248609
C219  C     C_3   0.419226 0.938836 0.666637 -0.606443
H122  H     H_    0.429122 0.914052 0.684633 0.210850
H123  H     H_    0.430460 0.973341 0.666481 0.237230
H124  H     H_    0.439722 0.929905 0.609321 0.315651
N12   N     N_2   0.631455 0.942124 0.286513 -0.336761
H125  H     H_    0.648360 0.920789 0.251333 0.248608
C220  C     C_3   0.580774 0.938836 0.333363 -0.606444
H126  H     H_    0.570878 0.914052 0.315367 0.210850
H127  H     H_    0.569540 0.973341 0.333519 0.237230
H128  H     H_    0.560278 0.929905 0.390679 0.315651
C221  C     C_R   0.797178 0.345550 0.850883 -0.053165
C222  C     C_R   0.823970 0.378484 0.816685 0.062914
C223  C     C_R   0.852146 0.351060 0.789081 -0.290943
C224  C     C_R   0.845298 0.357106 0.858652 -0.064490
C225  C     C_R   0.816567 0.388715 0.912035 -0.140243
C226  C     C_R   0.792618 0.413851 0.893989 -0.126668
H129  H     H_    0.833428 0.377049 0.720294 0.074576
H130  H     H_    0.872716 0.327661 0.745570 0.145661
H131  H     H_    0.862795 0.333439 0.870390 0.117608
H132  H     H_    0.811067 0.389615 0.965656 0.119279
H133  H     H_    0.769934 0.439804 0.936265 0.136819
C227  C     C_R   0.202822 0.345549 0.149117 -0.053168
C228  C     C_R   0.176030 0.378484 0.183315 0.062915
C229  C     C_R   0.147854 0.351060 0.210919 -0.290941
C230  C     C_R   0.154702 0.357106 0.141348 -0.064492
C231  C     C_R   0.183433 0.388715 0.087965 -0.140242
C232  C     C_R   0.207381 0.413851 0.106011 -0.126667
H134  H     H_    0.166572 0.377049 0.279706 0.074576
H135  H     H_    0.127284 0.327661 0.254430 0.145661
H136  H     H_    0.137205 0.333439 0.129610 0.117609
H137  H     H_    0.188933 0.389615 0.034344 0.119279
H138  H     H_    0.230066 0.439804 0.063735 0.136818
C233  C     C_R   0.297178 0.845550 0.850883 -0.053165
C234  C     C_R   0.323970 0.878484 0.816685 0.062914
C235  C     C_R   0.352146 0.851060 0.789081 -0.290943
C236  C     C_R   0.345298 0.857106 0.858652 -0.064490
C237  C     C_R   0.316567 0.888715 0.912035 -0.140243
C238  C     C_R   0.292618 0.913851 0.893989 -0.126668
H139  H     H_    0.333428 0.877049 0.720294 0.074576
H140  H     H_    0.372716 0.827661 0.745570 0.145661
H141  H     H_    0.362795 0.833439 0.870390 0.117608
H142  H     H_    0.311067 0.889615 0.965656 0.119279
H143  H     H_    0.269934 0.939804 0.936265 0.136819
C239  C     C_R   0.702822 0.845549 0.149117 -0.053168
C240  C     C_R   0.676030 0.878484 0.183315 0.062915
C241  C     C_R   0.647854 0.851060 0.210919 -0.290941
C242  C     C_R   0.654702 0.857106 0.141348 -0.064492
C243  C     C_R   0.683433 0.888715 0.087965 -0.140242
C244  C     C_R   0.707381 0.913851 0.106011 -0.126667
H144  H     H_    0.666572 0.877049 0.279706 0.074576
H145  H     H_    0.627284 0.827661 0.254430 0.145661
H146  H     H_    0.637205 0.833439 0.129610 0.117609
H147  H     H_    0.688933 0.889615 0.034344 0.119279
H148  H     H_    0.730066 0.939804 0.063735 0.136818
C245  C     C_R   0.701656 0.412292 0.921284 0.091644
C246  C     C_R   0.660887 0.423620 0.987695 -0.170276
C247  C     C_R   0.636629 0.396062 0.049119 -0.115636
C248  C     C_R   0.655106 0.355417 0.047769 -0.113903
C249  C     C_R   0.696905 0.343099 0.983366 -0.118340
C250  C     C_R   0.719652 0.371358 0.920263 -0.111980
H149  H     H_    0.647021 0.452574 0.988849 0.126278
H150  H     H_    0.604189 0.405629 0.098789 0.125484
H151  H     H_    0.637050 0.333551 0.096482 0.115583
H152  H     H_    0.711145 0.311594 0.982027 0.124387
H153  H     H_    0.750946 0.363334 0.868009 0.151755
C251  C     C_R   0.298344 0.412292 0.078716 0.091645
C252  C     C_R   0.339113 0.423620 0.012305 -0.170275
C253  C     C_R   0.363370 0.396062 0.950881 -0.115636
C254  C     C_R   0.344894 0.355417 0.952231 -0.113902
C255  C     C_R   0.303094 0.343099 0.016634 -0.118342
C256  C     C_R   0.280347 0.371358 0.079737 -0.111978
H154  H     H_    0.352979 0.452574 0.011151 0.126277
H155  H     H_    0.395811 0.405629 0.901211 0.125484
H156  H     H_    0.362950 0.333551 0.903517 0.115583
H157  H     H_    0.288854 0.311594 0.017973 0.124387
H158  H     H_    0.249054 0.363333 0.131991 0.151754
C257  C     C_R   0.201656 0.912292 0.921284 0.091644
C258  C     C_R   0.160887 0.923620 0.987695 -0.170276
C259  C     C_R   0.136629 0.896062 0.049119 -0.115636
C260  C     C_R   0.155106 0.855417 0.047769 -0.113903
C261  C     C_R   0.196905 0.843099 0.983366 -0.118340
C262  C     C_R   0.219652 0.871358 0.920263 -0.111980
H159  H     H_    0.147021 0.952574 0.988849 0.126278
H160  H     H_    0.104189 0.905629 0.098789 0.125484
H161  H     H_    0.137050 0.833551 0.096482 0.115583
H162  H     H_    0.211146 0.811594 0.982027 0.124387
H163  H     H_    0.250946 0.863334 0.868009 0.151755
C263  C     C_R   0.798344 0.912292 0.078716 0.091645
C264  C     C_R   0.839113 0.923620 0.012305 -0.170275
C265  C     C_R   0.863370 0.896062 0.950881 -0.115636
C266  C     C_R   0.844894 0.855417 0.952231 -0.113902
C267  C     C_R   0.803094 0.843099 0.016634 -0.118342
C268  C     C_R   0.780347 0.871358 0.079737 -0.111978
H164  H     H_    0.852979 0.952574 0.011151 0.126277
H165  H     H_    0.895811 0.905629 0.901211 0.125484
H166  H     H_    0.862950 0.833551 0.903517 0.115583
H167  H     H_    0.788854 0.811594 0.017973 0.124387
H168  H     H_    0.749054 0.863333 0.131991 0.151754
C269  C     C_R   0.412302 0.298186 0.210593 0.017323
C270  C     C_R   0.371432 0.279854 0.268936 -0.117912
C271  C     C_R   0.343013 0.303061 0.337097 -0.123215
C272  C     C_R   0.355255 0.344813 0.347349 -0.121890
C273  C     C_R   0.396047 0.363383 0.289366 -0.100462
C274  C     C_R   0.425304 0.339442 0.222979 -0.089827
H169  H     H_    0.361806 0.247605 0.261463 0.117159
H170  H     H_    0.311444 0.288757 0.382025 0.119259
H171  H     H_    0.333190 0.362648 0.400132 0.118412
H172  H     H_    0.405364 0.395714 0.296895 0.121816
H173  H     H_    0.457888 0.303773 0.177844 0.129749
C275  C     C_R   0.587698 0.298186 0.789407 0.017323
C276  C     C_R   0.628568 0.279854 0.731064 -0.117912
C277  C     C_R   0.656987 0.303061 0.662903 -0.123215
C278  C     C_R   0.644745 0.344813 0.652651 -0.121889
C279  C     C_R   0.603953 0.363383 0.710634 -0.100462
C280  C     C_R   0.574696 0.339442 0.777021 -0.089828
H174  H     H_    0.638193 0.247605 0.738537 0.117159
H175  H     H_    0.688555 0.288757 0.617975 0.119259
H176  H     H_    0.666809 0.362648 0.599868 0.118412
H177  H     H_    0.594636 0.395714 0.703105 0.121816
H178  H     H_    0.542111 0.303773 0.822156 0.129749
C281  C     C_R   0.912302 0.798186 0.210593 0.017323
C282  C     C_R   0.871432 0.779854 0.268936 -0.117912
C283  C     C_R   0.843013 0.803061 0.337097 -0.123215
C284  C     C_R   0.855255 0.844813 0.347349 -0.121890
C285  C     C_R   0.896047 0.863383 0.289366 -0.100462
C286  C     C_R   0.925303 0.839442 0.222979 -0.089827
H179  H     H_    0.861806 0.747605 0.261463 0.117159
H180  H     H_    0.811444 0.788757 0.382025 0.119259
H181  H     H_    0.833190 0.862648 0.400132 0.118412
H182  H     H_    0.905364 0.895714 0.296895 0.121816
H183  H     H_    0.957888 0.803773 0.177844 0.129749
C287  C     C_R   0.087698 0.798186 0.789407 0.017323
C288  C     C_R   0.128568 0.779854 0.731064 -0.117912
C289  C     C_R   0.156987 0.803061 0.662903 -0.123215
C290  C     C_R   0.144745 0.844813 0.652651 -0.121889
C291  C     C_R   0.103953 0.863383 0.710634 -0.100462
C292  C     C_R   0.074696 0.839442 0.777021 -0.089828
H184  H     H_    0.138193 0.747605 0.738537 0.117159
H185  H     H_    0.188555 0.788757 0.617975 0.119259
H186  H     H_    0.166809 0.862648 0.599868 0.118412
H187  H     H_    0.094636 0.895714 0.703105 0.121816
H188  H     H_    0.042111 0.803773 0.822156 0.129749
N13   N     N_2   0.556963 0.631211 0.009760 -0.359489
H189  H     H_    0.557374 0.649614 0.027242 0.299482
C293  C     C_3   0.560610 0.583431 0.026730 -0.576807
H190  H     H_    0.583733 0.569558 0.034215 0.199348
H191  H     H_    0.569786 0.570616 0.969553 0.238651
H192  H     H_    0.527500 0.568037 0.071650 0.327734
N14   N     N_2   0.443037 0.631211 0.990238 -0.359492
H193  H     H_    0.442626 0.649614 0.972758 0.299484
C294  C     C_3   0.439390 0.583431 0.973270 -0.576802
H194  H     H_    0.416267 0.569558 0.965785 0.199347
H195  H     H_    0.430214 0.570616 0.030447 0.238650
H196  H     H_    0.472500 0.568037 0.928350 0.327734
N15   N     N_2   0.056963 0.131211 0.009760 -0.359489
H197  H     H_    0.057374 0.149614 0.027242 0.299482
C295  C     C_3   0.060610 0.083431 0.026730 -0.576807
H198  H     H_    0.083733 0.069558 0.034215 0.199348
H199  H     H_    0.069786 0.070615 0.969553 0.238651
H200  H     H_    0.027500 0.068037 0.071650 0.327734
N16   N     N_2   0.943037 0.131211 0.990238 -0.359492
H201  H     H_    0.942626 0.149614 0.972758 0.299484
C296  C     C_3   0.939390 0.083431 0.973270 -0.576802
H202  H     H_    0.916267 0.069558 0.965785 0.199347
H203  H     H_    0.930214 0.070615 0.030447 0.238650
H204  H     H_    0.972500 0.068037 0.928350 0.327734
N17   N     N_2   0.410215 0.703117 0.953082 -0.309208
H205  H     H_    0.412490 0.680852 0.915442 0.210851
C297  C     C_3   0.362651 0.707723 0.019245 -0.697905
H206  H     H_    0.345683 0.687133 0.001750 0.214304
H207  H     H_    0.353947 0.742533 0.019527 0.222660
H208  H     H_    0.351588 0.697946 0.077046 0.235744
N18   N     N_2   0.589785 0.703117 0.046918 -0.309208
H209  H     H_    0.587510 0.680852 0.084558 0.210850
C298  C     C_3   0.637349 0.707723 0.980755 -0.697905
H210  H     H_    0.654317 0.687133 0.998250 0.214304
H211  H     H_    0.646053 0.742533 0.980473 0.222660
H212  H     H_    0.648412 0.697946 0.922954 0.235744
N19   N     N_2   0.910214 0.203117 0.953082 -0.309208
H213  H     H_    0.912490 0.180852 0.915442 0.210851
C299  C     C_3   0.862651 0.207723 0.019245 -0.697905
H214  H     H_    0.845683 0.187133 0.001750 0.214304
H215  H     H_    0.853947 0.242533 0.019527 0.222660
H216  H     H_    0.851588 0.197946 0.077046 0.235744
N20   N     N_2   0.089785 0.203117 0.046918 -0.309208
H217  H     H_    0.087510 0.180852 0.084558 0.210850
C300  C     C_3   0.137349 0.207723 0.980755 -0.697905
H218  H     H_    0.154317 0.187133 0.998250 0.214304
H219  H     H_    0.146053 0.242533 0.980473 0.222660
H220  H     H_    0.148412 0.197946 0.922954 0.235744
C301  C     C_R   0.996571 0.588856 0.196185 0.128557
C302  C     C_R   0.041208 0.596028 0.165481 -0.048517
C303  C     C_R   0.061538 0.633736 0.122034 -0.168094
C304  C     C_R   0.036424 0.662720 0.110042 -0.094423
C305  C     C_R   0.992797 0.654129 0.144142 -0.125333
C306  C     C_R   0.971958 0.615261 0.184928 -0.198675
H221  H     H_    0.061523 0.572251 0.172700 0.145116
H222  H     H_    0.095969 0.639432 0.095390 0.132934
H223  H     H_    0.051629 0.692731 0.077273 0.128579
H224  H     H_    0.974847 0.677865 0.136382 0.156616
H225  H     H_    0.937171 0.607893 0.210032 0.115737
C307  C     C_R   0.003429 0.588856 0.803814 0.128557
C308  C     C_R   0.958792 0.596028 0.834519 -0.048518
C309  C     C_R   0.938462 0.633736 0.877966 -0.168094
C310  C     C_R   0.963576 0.662720 0.889958 -0.094423
C311  C     C_R   0.007203 0.654129 0.855858 -0.125333
C312  C     C_R   0.028042 0.615261 0.815072 -0.198675
H226  H     H_    0.938477 0.572251 0.827300 0.145116
H227  H     H_    0.904031 0.639432 0.904610 0.132934
H228  H     H_    0.948371 0.692731 0.922727 0.128579
H229  H     H_    0.025152 0.677865 0.863618 0.156616
H230  H     H_    0.062829 0.607893 0.789968 0.115737
C313  C     C_R   0.496571 0.088856 0.196185 0.128557
C314  C     C_R   0.541208 0.096028 0.165481 -0.048517
C315  C     C_R   0.561538 0.133736 0.122034 -0.168094
C316  C     C_R   0.536424 0.162720 0.110042 -0.094423
C317  C     C_R   0.492797 0.154129 0.144142 -0.125333
C318  C     C_R   0.471958 0.115261 0.184928 -0.198675
H231  H     H_    0.561523 0.072251 0.172700 0.145116
H232  H     H_    0.595969 0.139432 0.095390 0.132934
H233  H     H_    0.551629 0.192731 0.077273 0.128579
H234  H     H_    0.474847 0.177865 0.136382 0.156616
H235  H     H_    0.437171 0.107893 0.210032 0.115737
C319  C     C_R   0.503429 0.088856 0.803814 0.128557
C320  C     C_R   0.458792 0.096028 0.834519 -0.048518
C321  C     C_R   0.438462 0.133736 0.877966 -0.168094
C322  C     C_R   0.463576 0.162720 0.889958 -0.094423
C323  C     C_R   0.507203 0.154129 0.855858 -0.125333
C324  C     C_R   0.528042 0.115261 0.815072 -0.198675
H236  H     H_    0.438477 0.072251 0.827300 0.145116
H237  H     H_    0.404031 0.139432 0.904610 0.132934
H238  H     H_    0.448371 0.192731 0.922727 0.128579
H239  H     H_    0.525152 0.177865 0.863618 0.156616
H240  H     H_    0.562829 0.107893 0.789968 0.115737
N21   N     N_2   0.087389 0.540331 0.114366 -0.364211
H241  H     H_    0.100542 0.547759 0.132334 0.178538
C325  C     C_3   0.059983 0.561066 0.064828 -0.594243
H242  H     H_    0.078115 0.589987 0.033905 0.217684
H243  H     H_    0.025382 0.548729 0.104603 0.217266
H244  H     H_    0.069319 0.540382 0.025597 0.287342
N22   N     N_2   0.912611 0.540331 0.885634 -0.364211
H245  H     H_    0.899458 0.547759 0.867665 0.178538
C326  C     C_3   0.940017 0.561066 0.935172 -0.594242
H246  H     H_    0.921884 0.589987 0.966094 0.217684
H247  H     H_    0.974618 0.548729 0.895397 0.217265
H248  H     H_    0.930681 0.540382 0.974403 0.287342
N23   N     N_2   0.587389 0.040331 0.114366 -0.364211
H249  H     H_    0.600542 0.047759 0.132334 0.178538
C327  C     C_3   0.559983 0.061066 0.064828 -0.594243
H250  H     H_    0.578115 0.089987 0.033905 0.217684
H251  H     H_    0.525382 0.048729 0.104603 0.217266
H252  H     H_    0.569319 0.040382 0.025597 0.287342
N24   N     N_2   0.412611 0.040331 0.885634 -0.364211
H253  H     H_    0.399457 0.047759 0.867665 0.178538
C328  C     C_3   0.440017 0.061066 0.935172 -0.594242
H254  H     H_    0.421884 0.089987 0.966094 0.217684
H255  H     H_    0.474618 0.048729 0.895397 0.217265
H256  H     H_    0.430680 0.040382 0.974403 0.287342
N25   N     N_2   0.997882 0.416218 0.311267 -0.265854
H257  H     H_    0.980617 0.393202 0.355707 0.222937
C329  C     C_3   0.045067 0.405685 0.247833 -0.722454
H258  H     H_    0.055300 0.374480 0.258796 0.218650
H259  H     H_    0.067954 0.431559 0.237747 0.221168
H260  H     H_    0.045259 0.402159 0.196562 0.189577
N26   N     N_2   0.002118 0.416218 0.688733 -0.265853
H261  H     H_    0.019383 0.393202 0.644293 0.222937
C330  C     C_3   0.954933 0.405685 0.752166 -0.722454
H262  H     H_    0.944700 0.374480 0.741204 0.218650
H263  H     H_    0.932045 0.431559 0.762253 0.221168
H264  H     H_    0.954741 0.402159 0.803438 0.189577
N27   N     N_2   0.497882 0.916218 0.311267 -0.265854
H265  H     H_    0.480617 0.893202 0.355707 0.222937
C331  C     C_3   0.545067 0.905685 0.247833 -0.722454
H266  H     H_    0.555300 0.874480 0.258796 0.218650
H267  H     H_    0.567954 0.931559 0.237747 0.221168
H268  H     H_    0.545259 0.902159 0.196562 0.189577
N28   N     N_2   0.502118 0.916218 0.688733 -0.265853
H269  H     H_    0.519383 0.893202 0.644293 0.222937
C332  C     C_3   0.454933 0.905685 0.752166 -0.722454
H270  H     H_    0.444700 0.874480 0.741204 0.218650
H271  H     H_    0.432046 0.931559 0.762253 0.221168
H272  H     H_    0.454741 0.902159 0.803438 0.189577
N29   N     N_2   0.928614 0.457163 0.380825 -0.310445
H273  H     H_    0.906877 0.483127 0.393461 0.190404
C333  C     C_3   0.912180 0.418976 0.434957 -0.725879
H274  H     H_    0.877513 0.423388 0.482857 0.229822
H275  H     H_    0.932156 0.416378 0.458275 0.246356
H276  H     H_    0.914920 0.387658 0.405137 0.211745
N30   N     N_2   0.071386 0.457163 0.619175 -0.310445
H277  H     H_    0.093123 0.483127 0.606539 0.190404
C334  C     C_3   0.087820 0.418976 0.565043 -0.725879
H278  H     H_    0.122487 0.423388 0.517143 0.229822
H279  H     H_    0.067844 0.416378 0.541725 0.246356
H280  H     H_    0.085080 0.387658 0.594863 0.211745
N31   N     N_2   0.428614 0.957163 0.380825 -0.310445
H281  H     H_    0.406877 0.983127 0.393461 0.190404
C335  C     C_3   0.412180 0.918976 0.434957 -0.725879
H282  H     H_    0.377513 0.923388 0.482857 0.229822
H283  H     H_    0.432156 0.916378 0.458275 0.246356
H284  H     H_    0.414919 0.887658 0.405137 0.211745
N32   N     N_2   0.571386 0.957163 0.619175 -0.310445
H285  H     H_    0.593123 0.983127 0.606539 0.190404
C336  C     C_3   0.587820 0.918976 0.565043 -0.725879
H286  H     H_    0.622487 0.923388 0.517143 0.229822
H287  H     H_    0.567844 0.916378 0.541725 0.246356
H288  H     H_    0.585080 0.887658 0.594863 0.211745

loop_
_geom_bond_atom_site_label_1
_geom_bond_atom_site_label_2
_ccdc_geom_bond_type
C151  H43   S    
C295  H198  S    
C133  C137  A    
N25   H257  S    
C55   C59   A    
C219  H123  S    
C184  N4    S    
C336  H287  S    
C298  H210  S    
C154  C161  A    
C281  C282  A    
C129  H39   S    
C215  H108  S    
C255  C256  A    
N32   H285  S    
C302  H221  S    
C61   C245  S    
C193  C194  A    
C331  H267  S    
C323  C324  A    
C280  H178  S    
C157  H9    S    
C327  H251  S    
C315  C316  A    
C197  H83   S    
C26   C50   A    
C170  C174  S    
C314  H231  S    
C21   C33   A    
C264  C265  A    
C8    H60   S    
C63   C257  S    
C225  C226  A    
C9    C13   A    
C54   C74   A    
C11   C15   A    
C269  C274  A    
C158  C174  S    
C135  C142  A    
O5    Zn9   S    
C12   C16   A    
C27   C51   A    
C294  H195  S    
C279  H177  S    
C70   C74   A    
O19   Zn4   S    
C46   C174  S    
C85   C121  S    
C212  H96   S    
C151  C155  A    
C279  C280  A    
C160  H12   S    
C89   C101  S    
C45   O21   A    
C98   H30   S    
C13   C91   S    
C84   O44   A    
C109  C269  S    
C311  C312  A    
N23   C327  S    
O31   Zn7   S    
N23   H249  S    
C155  C162  A    
C25   C29   A    
C224  H131  S    
C147  C149  A    
C190  C191  A    
C27   C31   A    
C273  H172  S    
C77   O29   A    
N6    H101  S    
C195  C196  A    
C141  C144  A    
C1    O17   A    
C133  N13   S    
C197  C198  A    
C249  C250  A    
C303  C304  A    
C17   C21   A    
C153  C161  A    
C86   C174  S    
C322  C323  A    
C296  H204  S    
C19   C23   A    
C276  H174  S    
C136  C141  A    
C84   C168  S    
C31   C63   A    
C278  H176  S    
C10   C30   A    
C145  N17   S    
C205  C206  A    
C156  C166  A    
C90   O47   A    
C16   C20   A    
C276  C277  A    
C202  C203  A    
C19   H19   S    
C263  C264  A    
O44   Zn8   S    
C329  H260  S    
C111  C113  A    
C158  H10   S    
C328  H256  S    
C17   H17   S    
C178  C182  S    
C83   O42   A    
N5    H97   S    
C158  H54   S    
C227  C228  A    
C122  H50   S    
C169  N29   S    
C92   O6    A    
C284  H181  S    
C214  H102  S    
O36   Zn8   S    
C298  H212  S    
C142  C144  A    
C64   C263  S    
C260  C261  A    
C215  H106  S    
C110  C116  A    
C223  C224  A    
C231  C232  A    
O16   Zn12  S    
C47   O23   A    
C221  C226  A    
C217  H115  S    
C271  H170  S    
C100  H32   S    
N10   C218  S    
C81   O35   A    
C16   C94   S    
C82   O36   A    
C290  H186  S    
C94   O8    A    
O37   Zn6   S    
C240  C241  A    
C87   H3    S    
C213  H98   S    
C57   C61   A    
C111  C281  S    
C79   O37   A    
C216  H110  S    
O40   Zn7   S    
C59   C63   A    
C245  C250  A    
N27   H265  S    
C60   C64   A    
C289  C290  A    
N9    C217  S    
C292  H188  S    
C5    H5    S    
C50   C54   A    
C1    O1    A    
C210  C211  A    
C104  C110  A    
C3    O3    A    
O34   Zn6   S    
C83   C167  S    
C155  C165  A    
C96   O15   A    
C49   C53   A    
C35   C201  S    
C258  C259  A    
C326  H247  S    
C251  C256  A    
C51   C55   A    
N24   C328  S    
O24   Zn2   S    
C235  C236  A    
C127  C131  A    
O25   Zn3   S    
C141  C147  A    
C124  H52   S    
C119  C126  A    
C282  C283  A    
C332  H270  S    
C88   H28   S    
C295  H200  S    
C239  C244  A    
C165  H47   S    
C288  H184  S    
C103  C107  A    
C297  H207  S    
C301  C302  A    
C218  H118  S    
C211  H95   S    
C104  C107  A    
C180  C184  S    
N7    C215  S    
C62   C251  S    
C266  H166  S    
C187  H71   S    
C330  H262  S    
C193  H80   S    
C188  H76   S    
C208  H92   S    
N26   H261  S    
C81   O39   A    
C140  C143  A    
C78   O32   A    
C88   C124  S    
C82   O40   A    
C112  C114  A    
C302  C303  A    
C135  C138  A    
C66   C70   A    
N15   H197  S    
O14   Zn10  S    
C159  H11   S    
C307  C312  A    
C24   C36   A    
C287  C292  A    
C153  C163  A    
O22   Zn1   S    
C253  H155  S    
C164  H46   S    
C148  C150  A    
C250  H153  S    
C333  H275  S    
C96   C138  S    
C186  H67   S    
C65   H21   S    
C207  C208  A    
C317  C318  A    
O35   Zn7   S    
C265  C266  A    
N3    C187  S    
C77   C131  S    
C200  H86   S    
C188  H75   S    
N13   H189  S    
C78   C132  S    
C324  H240  S    
C90   C102  S    
C149  C153  A    
C211  C212  A    
C139  C143  A    
C322  H238  S    
C58   C227  S    
C288  C289  A    
C232  H138  S    
C241  C242  A    
N1    C185  S    
C214  H104  S    
O7    Zn11  S    
C242  H146  S    
N12   C220  S    
C239  C240  A    
O8    Zn12  S    
C116  H36   S    
C191  H78   S    
C4    O20   A    
C55   C75   A    
C44   C52   A    
C222  H129  S    
C46   O26   A    
C266  C267  A    
C166  C168  A    
N27   C331  S    
C188  H74   S    
C114  H34   S    
C194  H81   S    
C314  C315  A    
C220  H127  S    
C9    H13   S    
C304  H223  S    
C290  C291  A    
C11   H15   S    
C85   H1    S    
C22   C34   A    
C216  H112  S    
C29   C61   A    
C95   C137  S    
C274  H173  S    
C243  C244  A    
C237  C238  A    
C152  C156  A    
C192  C193  A    
C32   C64   A    
C123  C179  S    
C10   C14   A    
C218  H120  S    
C134  C139  A    
C254  H156  S    
C121  C177  S    
C91   O9    A    
C238  H143  S    
C121  C301  S    
C116  C120  A    
C182  N22   S    
C234  C235  A    
N4    C188  S    
C209  H93   S    
C86   C122  S    
N21   C325  S    
C293  H191  S    
N20   H217  S    
C189  C194  A    
C332  H272  S    
C14   C92   S    
O21   Zn1   S    
C12   H16   S    
C114  C118  A    
C142  C148  A    
C228  H134  S    
C313  C318  A    
C309  C310  A    
C42   C50   A    
C113  C117  A    
C210  H94   S    
C89   O45   A    
C224  C225  A    
C26   C30   A    
C330  H264  S    
C115  C119  A    
C190  H77   S    
N2    C186  S    
C222  C223  A    
O33   Zn5   S    
C187  H70   S    
C195  C200  A    
C271  C272  A    
C128  C131  A    
C219  H122  S    
N32   C336  S    
C6    C170  S    
C300  H220  S    
C308  H226  S    
N8    C216  S    
C242  C243  A    
C21   C25   A    
C170  N26   S    
C166  H48   S    
C284  C285  A    
C87   H27   S    
C24   C28   A    
C215  H107  S    
C192  H79   S    
C299  H216  S    
C278  C279  A    
C282  H179  S    
C87   C175  S    
C3    O19   A    
C263  C268  A    
C88   C176  S    
C60   C239  S    
C185  H64   S    
C335  H284  S    
O17   Zn3   S    
N11   H121  S    
N9    H113  S    
C87   C123  S    
N22   C326  S    
C202  H87   S    
C320  H236  S    
C106  C108  A    
C317  H234  S    
C177  C181  S    
C119  C129  A    
C260  H161  S    
C136  N16   S    
C37   C41   A    
C253  C254  A    
C293  H192  S    
O29   Zn5   S    
C277  C278  A    
C36   C207  S    
C47   O27   A    
C40   C44   A    
C199  C200  A    
C48   O28   A    
C43   C67   A    
C294  H194  S    
C257  C258  A    
C316  C317  A    
C6    H58   S    
C97   H29   S    
C261  C262  A    
C117  C125  A    
C305  H224  S    
C241  H145  S    
C47   C175  S    
C172  C176  S    
O38   Zn5   S    
C48   C176  S    
C92   O10   A    
C58   C62   A    
C95   O14   A    
C283  H180  S    
C80   O38   A    
C275  C280  A    
C150  H42   S    
C256  H158  S    
C7    C171  S    
C144  C161  A    
C217  H116  S    
O45   Zn9   S    
C261  H162  S    
C254  C255  A    
C171  N31   S    
O47   Zn11  S    
C134  C137  A    
C229  C230  A    
C67   H23   S    
C325  H242  S    
N28   C332  S    
C203  C204  A    
C268  H168  S    
C15   C19   A    
O3    Zn2   S    
C221  C222  A    
O43   Zn7   S    
C33   C189  S    
N26   C330  S    
C199  H85   S    
N5    C213  S    
C269  C270  A    
C14   C18   A    
C120  C126  A    
C213  H100  S    
C134  N14   S    
C246  H149  S    
C99   C106  A    
N12   H125  S    
C291  C292  A    
C336  H286  S    
C41   C49   A    
C301  C306  A    
C296  H203  S    
C75   N11   S    
C286  H183  S    
C303  H222  S    
C235  H140  S    
N10   H117  S    
C90   O48   A    
N17   C297  S    
C68   H24   S    
N24   H253  S    
C329  H259  S    
C69   C73   A    
C257  C262  A    
C118  C125  A    
C328  H255  S    
C83   O41   A    
C72   C76   A    
C267  H167  S    
C129  C132  A    
C312  H230  S    
N29   C333  S    
C247  H150  S    
C105  C111  A    
N16   H201  S    
N25   C329  S    
C18   C22   A    
C283  C284  A    
C6    C178  S    
C219  H124  S    
C80   O34   A    
N13   C293  S    
C7    H7    S    
C157  C181  S    
O9    Zn10  S    
C251  C252  A    
O32   Zn8   S    
C207  C212  A    
N19   C299  S    
C331  H268  S    
C183  N23   S    
C327  H250  S    
C265  H165  S    
C298  H211  S    
C213  H99   S    
C185  H62   S    
N8    H109  S    
C327  H252  S    
C20   H20   S    
C318  H235  S    
C140  C146  A    
N18   C298  S    
C53   C57   A    
C79   C177  S    
C300  H218  S    
C1    C69   S    
C208  C209  A    
C297  H206  S    
C80   C178  S    
C262  H163  S    
C3    C71   S    
C293  H190  S    
C252  C253  A    
N28   H269  S    
C28   C32   A    
C46   O22   A    
C294  H196  S    
O6    Zn10  S    
C96   O16   A    
C206  H91   S    
O4    Zn2   S    
C18   H18   S    
C117  C127  A    
C81   C179  S    
C233  C238  A    
O28   Zn4   S    
C123  H51   S    
C157  H53   S    
N20   C300  S    
C84   O43   A    
C86   H2    S    
C23   C35   A    
C243  H147  S    
C295  H199  S    
C240  H144  S    
C326  H248  S    
C183  N3    S    
C4    C72   S    
C315  H232  S    
C33   C37   A    
N7    H105  S    
C91   O5    A    
C148  N20   S    
C154  C164  A    
C122  C178  S    
C267  C268  A    
O41   Zn5   S    
C217  H114  S    
C201  C206  A    
C77   O30   A    
C164  C167  A    
C86   H26   S    
C15   C93   S    
C196  H82   S    
C93   O11   A    
C59   C233  S    
C171  N27   S    
C13   C17   A    
C98   C101  A    
C244  H148  S    
O2    Zn1   S    
C110  C275  S    
C38   N6    S    
C103  C109  A    
C297  H208  S    
C218  H119  S    
C281  C286  A    
C2    O2    A    
N30   H277  S    
C191  C192  A    
C255  H157  S    
C43   C51   A    
C186  H66   S    
C34   C195  S    
C270  H169  S    
C65   C69   A    
C130  H40   S    
C304  C305  A    
C321  H237  S    
C67   C71   A    
C334  H278  S    
C8    H8    S    
C40   N8    S    
C25   C49   A    
C97   C104  A    
C335  H282  S    
C56   C60   A    
C74   N10   S    
N18   H209  S    
C99   C102  A    
C133  C140  A    
N31   H281  S    
C22   C26   A    
C310  C311  A    
C214  H103  S    
C159  H55   S    
C79   O33   A    
O20   Zn4   S    
C331  H266  S    
C2    C70   S    
C204  C205  A    
C8    C172  S    
C157  C173  S    
C325  H244  S    
C198  C199  A    
C236  C237  A    
C56   C76   A    
O23   Zn2   S    
C149  H41   S    
C189  C190  A    
C2    O18   A    
C316  H233  S    
C130  C132  A    
C313  C314  A    
C259  H160  S    
O13   Zn9   S    
C220  H126  S    
C320  C321  A    
N14   C294  S    
C106  C112  A    
C196  C197  A    
C209  C210  A    
C45   O25   A    
C216  H111  S    
C100  C105  A    
C112  C287  S    
N1    H61   S    
C120  C130  A    
C306  H225  S    
C38   C42   A    
C45   C173  S    
C277  H175  S    
O30   Zn6   S    
C311  H229  S    
C66   H22   S    
N6    C214  S    
C248  H151  S    
C48   O24   A    
C204  H89   S    
C319  C324  A    
C5    C169  S    
C172  N32   S    
C334  H279  S    
C273  C274  A    
O11   Zn12  S    
C8    C180  S    
C4    O4    A    
O12   Zn11  S    
O26   Zn3   S    
C152  H44   S    
O39   Zn8   S    
C329  H258  S    
O1    Zn1   S    
C275  C276  A    
C332  H271  S    
C181  N1    S    
C98   C103  A    
C85   C173  S    
C285  C286  A    
C310  H228  S    
O46   Zn10  S    
C23   C27   A    
C108  C125  A    
N11   C219  S    
C259  C260  A    
C143  C162  A    
C229  H135  S    
C172  N28   S    
C68   C72   A    
C122  C307  S    
C205  H90   S    
C187  H72   S    
C11   C31   A    
C330  H263  S    
C159  C175  S    
C272  H171  S    
C272  C273  A    
C160  C176  S    
N17   H205  S    
C115  H35   S    
N3    H69   S    
C118  C128  A    
C78   O31   A    
N29   H273  S    
C10   H14   S    
C113  H33   S    
C179  C183  S    
C226  H133  S    
N15   C295  S    
C39   C43   A    
C227  C232  A    
C105  C108  A    
N16   C296  S    
C124  C180  S    
C135  N15   S    
C225  H132  S    
C291  H187  S    
C247  C248  A    
C20   C24   A    
C36   C40   A    
C37   N5    S    
C136  C138  A    
C231  H137  S    
C333  H276  S    
C128  H38   S    
C146  N18   S    
C299  H215  S    
C109  C115  A    
C186  H68   S    
C41   C65   A    
N2    H65   S    
N31   C335  S    
C171  C175  S    
C252  H154  S    
N19   H213  S    
C299  H214  S    
C185  H63   S    
C170  N30   S    
C334  H280  S    
C163  C167  A    
C76   N12   S    
C270  C271  A    
C94   O12   A    
N14   H193  S    
C237  H142  S    
C6    H6    S    
C100  C102  A    
C245  C246  A    
C73   N9    S    
C7    C179  S    
C309  H227  S    
C289  H185  S    
C248  C249  A    
C158  C182  S    
C5    C177  S    
C145  C151  A    
O10   Zn9   S    
C236  H141  S    
C146  C152  A    
C234  H139  S    
C264  H164  S    
C165  C168  A    
C123  C313  S    
C258  H159  S    
C336  H288  S    
C44   C68   A    
C82   C180  S    
C182  N2    S    
C220  H128  S    
C181  N21   S    
C42   C66   A    
C54   C58   A    
C95   O13   A    
C333  H274  S    
C325  H243  S    
C139  C145  A    
C169  C173  S    
C160  H56   S    
C34   C38   A    
C53   C73   A    
C287  C288  A    
C203  H88   S    
C107  C126  A    
C163  H45   S    
C249  H152  S    
C230  H136  S    
C305  C306  A    
C223  H130  S    
N22   H245  S    
C9    C29   A    
C121  H49   S    
C246  C247  A    
C308  C309  A    
C159  C183  S    
C30   C62   A    
C319  C320  A    
C233  C234  A    
C326  H246  S    
C184  N24   S    
C71   C75   A    
C28   C52   A    
C201  C202  A    
C285  H182  S    
N21   H241  S    
C99   H31   S    
C323  H239  S    
C169  N25   S    
C35   C39   A    
O15   Zn11  S    
C307  C308  A    
O48   Zn12  S    
N4    H73   S    
C296  H202  S    
C97   C101  A    
O27   Zn4   S    
N30   C334  S    
C127  H37   S    
C156  C162  A    
C230  C231  A    
C93   O7    A    
C89   O46   A    
C88   H4    S    
C57   C221  S    
C85   H25   S    
C228  C229  A    
C150  C154  A    
C7    H59   S    
C147  N19   S    
C124  C319  S    
O18   Zn3   S    
O42   Zn6   S    
C39   N7    S    
C300  H219  S    
C5    H57   S    
C328  H254  S    
C198  H84   S    
C160  C184  S    
C12   C32   A    
C52   C56   A    
C321  C322  A    
C335  H283  S    
