data_mof_unit_18638.cif
_audit_creation_date              2013-03-05T15:44:27-0500
_audit_creation_method            fapswitch 2.2
_symmetry_space_group_name_H-M    P1
_symmetry_Int_Tables_number       1
_space_group_crystal_system       triclinic
_cell_length_a                    19.97817
_cell_length_b                    7.219251
_cell_length_c                    19.731325
_cell_angle_alpha                 89.870575
_cell_angle_beta                  98.273864
_cell_angle_gamma                 90.165338
_cell_volume                      2816.16117006

loop_
_atom_site_label
_atom_site_type_symbol
_atom_site_description
_atom_site_fract_x
_atom_site_fract_y
_atom_site_fract_z
_atom_type_partial_charge
O1    O     O_R   0.673210 0.377390 0.686390 -0.505340
O2    O     O_R   0.326790 0.622610 0.313610 -0.505344
O3    O     O_R   0.826790 0.877390 0.813610 -0.506469
O4    O     O_R   0.173210 0.122610 0.186390 -0.506437
O5    O     O_R   0.810750 0.706450 0.681250 -0.516230
O6    O     O_R   0.189250 0.293550 0.318750 -0.516234
O7    O     O_R   0.689250 0.206450 0.818750 -0.514471
O8    O     O_R   0.310750 0.793550 0.181250 -0.514471
C1    C     C_R   0.832013 0.539177 0.666364 0.865507
C2    C     C_R   0.167987 0.460823 0.333636 0.865505
C3    C     C_R   0.668039 0.038518 0.833600 0.868470
C4    C     C_R   0.331961 0.961482 0.166400 0.868489
O9    O     O_R   0.672750 0.707060 0.678240 -0.559678
O10   O     O_R   0.327250 0.292940 0.321760 -0.559682
O11   O     O_R   0.827250 0.207060 0.821760 -0.560192
O12   O     O_R   0.172750 0.792940 0.178240 -0.560207
O13   O     O_R   0.687800 0.877990 0.810580 -0.553092
O14   O     O_R   0.312200 0.122010 0.189420 -0.553071
O15   O     O_R   0.812200 0.377990 0.689420 -0.555161
O16   O     O_R   0.187800 0.622010 0.310580 -0.555162
C5    C     C_R   0.648877 0.539272 0.660833 0.882192
C6    C     C_R   0.351123 0.460728 0.339166 0.882195
C7    C     C_R   0.851113 0.039383 0.839181 0.880800
C8    C     C_R   0.148889 0.960617 0.160817 0.880844
O17   O     O_3   0.755100 0.544060 0.793420 -0.255281
O18   O     O_3   0.244900 0.455940 0.206580 -0.255265
O19   O     O_3   0.744900 0.044060 0.706580 -0.256033
O20   O     O_3   0.255100 0.955940 0.293420 -0.256041
V1    V     V_3+5 0.749050 0.818670 0.741950 1.323227
V2    V     V_3+5 0.250950 0.181330 0.258050 1.323245
V3    V     V_3+5 0.750950 0.318670 0.758050 1.324041
V4    V     V_3+5 0.249050 0.681330 0.241950 1.324047
C9    C     C_R   0.088495 0.960832 0.106729 -0.142575
C10   C     C_R   0.911510 0.039168 0.893264 -0.142577
C11   C     C_R   0.411521 0.461235 0.393230 -0.141318
C12   C     C_R   0.588479 0.538765 0.606770 -0.141319
C13   C     C_R   0.013627 0.200843 0.944847 -0.001479
C14   C     C_R   0.986381 0.799152 0.055141 -0.001448
C15   C     C_R   0.486111 0.698830 0.555552 0.002067
C16   C     C_R   0.513888 0.301169 0.444449 0.002068
C17   C     C_R   0.958675 0.183755 0.893072 -0.069169
C18   C     C_R   0.041331 0.816242 0.106918 -0.069183
C19   C     C_R   0.541123 0.681955 0.607252 -0.067763
C20   C     C_R   0.458876 0.318045 0.392749 -0.067768
C21   C     C_R   0.921088 0.906787 0.946779 0.322345
C22   C     C_R   0.078919 0.093213 0.053212 0.322338
C23   C     C_R   0.579076 0.407583 0.553017 0.323020
C24   C     C_R   0.420923 0.592417 0.446984 0.323019
C25   C     C_R   0.976792 0.925200 0.000281 -0.036098
C26   C     C_R   0.023215 0.074798 0.999710 -0.036116
C27   C     C_R   0.523319 0.425889 0.499564 -0.035646
C28   C     C_R   0.476681 0.574112 0.500436 -0.035647
H1    H     H_    0.047113 0.714224 0.147705 0.134437
H2    H     H_    0.952892 0.285772 0.852284 0.134438
H3    H     H_    0.453206 0.217004 0.351773 0.137555
H4    H     H_    0.546794 0.782996 0.648228 0.137558
H5    H     H_    0.048347 0.314626 0.941442 0.157017
H6    H     H_    0.951662 0.685363 0.058543 0.157022
H7    H     H_    0.451215 0.811404 0.559236 0.159248
H8    H     H_    0.548784 0.188594 0.440765 0.159245
C29   C     C_R   0.563730 0.158131 0.878171 0.375198
C30   C     C_R   0.436271 0.841874 0.121830 0.375196
C31   C     C_R   0.932205 0.670461 0.616430 0.363702
C32   C     C_R   0.067795 0.329538 0.383570 0.363702
C33   C     C_R   0.617146 0.028914 0.881555 -0.170419
C34   C     C_R   0.382854 0.971087 0.118445 -0.170421
C35   C     C_R   0.882376 0.531354 0.617734 -0.178591
C36   C     C_R   0.117624 0.468646 0.382266 -0.178588
C37   C     C_R   0.622577 0.888622 0.931265 -0.052396
C38   C     C_R   0.377422 0.111378 0.068735 -0.052399
C39   C     C_R   0.880066 0.382404 0.571974 -0.038399
C40   C     C_R   0.119934 0.617595 0.428026 -0.038396
C41   C     C_R   0.575907 0.872915 0.978106 -0.008042
C42   C     C_R   0.424093 0.127093 0.021894 -0.008045
C43   C     C_R   0.925216 0.369918 0.523622 -0.006076
C44   C     C_R   0.074784 0.630082 0.476378 -0.006077
C45   C     C_R   0.523337 0.005193 0.976055 -0.011633
C46   C     C_R   0.476663 0.994814 0.023945 -0.011631
C47   C     C_R   0.976014 0.507106 0.523153 0.001498
C48   C     C_R   0.023986 0.492894 0.476847 0.001497
C49   C     C_R   0.517162 0.147484 0.925961 -0.036269
C50   C     C_R   0.482838 0.852523 0.074040 -0.036271
C51   C     C_R   0.979170 0.658088 0.569216 -0.022875
C52   C     C_R   0.020830 0.341911 0.430785 -0.022874
C53   C     C_R   0.581678 0.731313 0.028360 0.331353
C54   C     C_R   0.418324 0.268702 0.971642 0.331340
C55   C     C_R   0.921626 0.221416 0.476512 0.336357
C56   C     C_R   0.078374 0.778583 0.523488 0.336357
C57   C     C_R   0.536103 0.724961 0.075985 -0.071105
C58   C     C_R   0.463898 0.275050 0.924016 -0.071102
C59   C     C_R   0.969536 0.208486 0.431511 -0.067672
C60   C     C_R   0.030464 0.791513 0.568489 -0.067676
H9    H     H_    0.664868 0.794540 0.933892 0.189095
H10   H     H_    0.335129 0.205452 0.066106 0.189116
H11   H     H_    0.842440 0.275795 0.574700 0.192033
H12   H     H_    0.157560 0.724205 0.425300 0.192034
H13   H     H_    0.542422 0.616166 0.114117 0.171110
H14   H     H_    0.457581 0.383846 0.885885 0.171131
H15   H     H_    0.964870 0.094615 0.395583 0.168025
H16   H     H_    0.035130 0.905384 0.604417 0.168023
N1    N     N_R   0.126883 0.240838 0.051641 0.085551
O21   O     O_R   0.189278 0.204264 0.044726 -0.348486
O22   O     O_R   0.108881 0.411435 0.059851 -0.352955
N2    N     N_R   0.873121 0.759171 0.948353 0.085536
O23   O     O_R   0.810750 0.795746 0.955361 -0.348436
O24   O     O_R   0.891110 0.588577 0.940112 -0.352934
N3    N     N_R   0.372763 0.738670 0.448806 0.087231
O25   O     O_R   0.390731 0.910086 0.441550 -0.349396
O26   O     O_R   0.310124 0.700088 0.454304 -0.330415
N4    N     N_R   0.627234 0.261323 0.551196 0.087229
O27   O     O_R   0.609263 0.089911 0.558459 -0.349398
O28   O     O_R   0.689872 0.299895 0.545694 -0.330409
N5    N     N_R   0.555330 0.294733 0.824568 0.078620
O29   O     O_R   0.544448 0.243132 0.760783 -0.367524
O30   O     O_R   0.564056 0.469614 0.839127 -0.342589
N6    N     N_R   0.444672 0.705274 0.175435 0.078620
O31   O     O_R   0.455554 0.756881 0.239219 -0.367530
O32   O     O_R   0.435941 0.530393 0.160877 -0.342573
N7    N     N_R   0.937372 0.818527 0.665353 0.077972
O33   O     O_R   0.952456 0.783039 0.730429 -0.367685
O34   O     O_R   0.923745 0.987654 0.645182 -0.369780
N8    N     N_R   0.062628 0.181472 0.334647 0.077973
O35   O     O_R   0.047544 0.216961 0.269571 -0.367681
O36   O     O_R   0.076255 0.012346 0.354819 -0.369779
N9    N     N_R   0.633279 0.591794 0.032113 0.091761
O37   O     O_R   0.639602 0.491960 0.978617 -0.332699
O38   O     O_R   0.665045 0.541031 0.091446 -0.296727
N10   N     N_R   0.366729 0.408240 0.967894 0.091756
O39   O     O_R   0.360395 0.508012 0.021404 -0.332695
O40   O     O_R   0.334990 0.459099 0.908560 -0.296773
N11   N     N_R   0.868580 0.085071 0.471862 0.097022
O41   O     O_R   0.805640 0.137297 0.463358 -0.279002
O42   O     O_R   0.882243 0.911916 0.462023 -0.349801
N12   N     N_R   0.131420 0.914929 0.528138 0.097021
O43   O     O_R   0.194360 0.862703 0.536642 -0.279003
O44   O     O_R   0.117757 0.088084 0.537977 -0.349804

loop_
_geom_bond_atom_site_label_1
_geom_bond_atom_site_label_2
_geom_bond_distance
_ccdc_geom_bond_type
O17   V3    1.768966 S    
C39   C43   1.407309 A    
O1    C5    1.336579 A    
N1    O21   1.301236 A    
C16   H8    1.081621 S    
C55   C59   1.399568 A    
O19   V1    1.766505 S    
O13   V1    1.999261 S    
C53   N9    1.437505 S    
C40   C44   1.407309 A    
O15   V3    1.996439 S    
N10   O39   1.300761 A    
N2    O24   1.301003 A    
C5    C12   1.491130 S    
C45   C46   1.421576 A    
O7    C3    1.329047 A    
C6    C11   1.491132 S    
C50   C57   1.405588 A    
C9    C18   1.404550 A    
C32   C36   1.414809 A    
O9    V1    1.999764 S    
C38   H10   1.080914 S    
C14   C18   1.393247 A    
C37   H9    1.080919 S    
C18   H1    1.083741 S    
O4    C8    1.336858 A    
C33   C37   1.401825 A    
C24   N3    1.434503 S    
C39   H11   1.080917 S    
C31   C51   1.417281 A    
O1    V3    1.990007 S    
N6    O31   1.301117 A    
C12   C23   1.415370 A    
O2    V4    1.990009 S    
C55   N11   1.437632 S    
O3    V1    1.989462 S    
N4    O27   1.300842 A    
C32   C52   1.417279 A    
C14   H6    1.081801 S    
O3    C7    1.336856 A    
C1    O15   1.328344 A    
C56   C60   1.399568 A    
C2    O16   1.328345 A    
C38   C42   1.408316 A    
N3    O25   1.300842 A    
C37   C41   1.408313 A    
O14   V2    1.999261 S    
C52   C59   1.405921 A    
C45   C49   1.417206 A    
C44   C56   1.415409 A    
C16   C20   1.393167 A    
C48   C52   1.416217 A    
O11   C7    1.328545 A    
C15   C28   1.404744 A    
C30   C50   1.418585 A    
O12   C8    1.328546 A    
C9    C22   1.415393 A    
N3    O26   1.300883 A    
C10   C17   1.404549 A    
O10   V2    1.999762 S    
C11   C24   1.415372 A    
N2    O23   1.301216 A    
O5    V1    2.011290 S    
N7    O34   1.300701 A    
C22   N1    1.434401 S    
C31   C35   1.414807 A    
O7    V3    2.006238 S    
C30   C34   1.413647 A    
C54   N10   1.437522 S    
C27   C28   1.422646 A    
O8    V4    2.006237 S    
C54   C58   1.399993 A    
C14   C25   1.404772 A    
C53   C57   1.399986 A    
O18   V4    1.768966 S    
C15   C19   1.393169 A    
C4    C34   1.486648 S    
O4    V2    1.989462 S    
C57   H13   1.081422 S    
C36   C40   1.402057 A    
C1    C35   1.488175 S    
O5    C1    1.328707 A    
C51   C60   1.405921 A    
C21   N2    1.434390 S    
C31   N7    1.435418 S    
C46   C50   1.417210 A    
C21   C25   1.425546 A    
O8    C4    1.329046 A    
C7    C10   1.491345 S    
C15   H7    1.081621 S    
O9    C5    1.328190 A    
C10   C21   1.415373 A    
C42   C54   1.415895 A    
C11   C20   1.404284 A    
C41   C53   1.415880 A    
N6    O32   1.301079 A    
C49   C58   1.405594 A    
C43   C55   1.415409 A    
O6    V2    2.011289 S    
C29   N5    1.436825 S    
N9    O37   1.300748 A    
N8    O36   1.300700 A    
N11   O41   1.301213 A    
C23   N4    1.434500 S    
C60   H16   1.081754 S    
N5    O29   1.301112 A    
O16   V4    1.996439 S    
C3    O13   1.327334 A    
C44   C48   1.416948 A    
N11   O42   1.301205 A    
N10   O40   1.301255 A    
O6    C2    1.328706 A    
C23   C27   1.425752 A    
N7    O33   1.301071 A    
O11   V3    2.001019 S    
N12   O43   1.301213 A    
C2    C36   1.488175 S    
O12   V4    2.001019 S    
C16   C27   1.404742 A    
C22   C26   1.425555 A    
C8    C9    1.491354 S    
O10   C6    1.328190 A    
O20   V2    1.766503 S    
C56   N12   1.437631 S    
C29   C49   1.418586 A    
O2    C6    1.336578 A    
C47   C51   1.416217 A    
C13   C26   1.404782 A    
C20   H3    1.083709 S    
C34   C38   1.401828 A    
C32   N8    1.435418 S    
N12   O44   1.301205 A    
C35   C39   1.402057 A    
C13   C17   1.393249 A    
N4    O28   1.300882 A    
C17   H2    1.083741 S    
C30   N6    1.436837 S    
C47   C48   1.420169 A    
C40   H12   1.080916 S    
C29   C33   1.413652 A    
C19   H4    1.083709 S    
C24   C28   1.425753 A    
N1    O22   1.301000 A    
C25   C26   1.422618 A    
C42   C46   1.417739 A    
C4    O14   1.327334 A    
N9    O38   1.301219 A    
C41   C45   1.417738 A    
C12   C19   1.404283 A    
C59   H15   1.081754 S    
N8    O35   1.301072 A    
C43   C47   1.416946 A    
C58   H14   1.081424 S    
C13   H5    1.081796 S    
C3    C33   1.486647 S    
N5    O30   1.301081 A    
