data_mof_unit_48844.cif
_audit_creation_date              2012-12-11T14:04:25-0500
_audit_creation_method            fapswitch 2.2
_symmetry_space_group_name_H-M    P1
_symmetry_Int_Tables_number       1
_space_group_crystal_system       triclinic
_cell_length_a                    19.05566
_cell_length_b                    10.987785
_cell_length_c                    18.798581
_cell_angle_alpha                 89.851867
_cell_angle_beta                  89.094953
_cell_angle_gamma                 90.223328
_cell_volume                      3935.50267138

loop_
_atom_site_label
_atom_site_type_symbol
_atom_type_description
_atom_site_fract_x
_atom_site_fract_y
_atom_site_fract_z
_atom_type_partial_charge
C1    C     C_R   0.241570 0.464154 0.647901 0.532682
C2    C     C_R   0.758673 0.463851 0.351699 0.540655
C3    C     C_R   0.741286 0.964612 0.647666 0.536252
C4    C     C_R   0.259228 0.967114 0.353239 0.533574
C5    C     C_2   0.270828 0.812296 0.531312 -0.109371
C6    C     C_2   0.722800 0.819520 0.468176 -0.109399
C7    C     C_2   0.777586 0.320264 0.531321 -0.119162
C8    C     C_2   0.225968 0.315849 0.468953 -0.110032
C9    C     C_R   0.999092 0.662517 0.424652 -0.020938
C10   C     C_R   0.053911 0.663312 0.561163 -0.032892
C11   C     C_R   0.457495 0.158356 0.438569 -0.030418
C12   C     C_R   0.539864 0.154331 0.561440 -0.034955
C13   C     C_R   0.028075 0.882179 0.411109 -0.024022
C14   C     C_R   0.049539 0.894157 0.555847 -0.044754
C15   C     C_R   0.459173 0.384690 0.444196 -0.051820
C16   C     C_R   0.559089 0.373380 0.546951 -0.034851
C17   C     C_R   0.031080 0.994534 0.443948 -0.082704
C18   C     C_R   0.041079 0.999603 0.516378 -0.101849
C19   C     C_R   0.491615 0.491074 0.466340 -0.127021
C20   C     C_R   0.543435 0.484850 0.516707 -0.099894
C21   C     C_R   0.043556 0.777104 0.524602 0.036510
C22   C     C_R   0.025459 0.773256 0.451890 0.024821
C23   C     C_R   0.525291 0.265784 0.527422 0.020920
C24   C     C_R   0.479739 0.269362 0.469480 0.032809
C25   C     C_R   0.042502 0.553644 0.524104 -0.000069
C26   C     C_R   0.997914 0.556942 0.467612 0.020235
C27   C     C_R   0.519436 0.044482 0.528526 0.027047
C28   C     C_R   0.470091 0.047909 0.474747 0.019978
C29   C     C_R   0.061409 0.439025 0.550166 -0.085475
C30   C     C_R   0.951986 0.455937 0.459044 -0.068721
C31   C     C_R   0.544318 0.929689 0.550399 -0.077456
C32   C     C_R   0.434971 0.939263 0.457801 -0.081933
C33   C     C_R   0.019373 0.338418 0.539999 -0.113829
C34   C     C_R   0.962998 0.346888 0.495297 -0.123815
C35   C     C_R   0.509805 0.823164 0.532675 -0.117199
C36   C     C_R   0.453261 0.828376 0.487843 -0.117231
C37   C     C_2   0.256565 0.938149 0.913250 -0.109230
C38   C     C_2   0.743454 0.938226 0.086799 -0.112336
C39   C     C_2   0.756566 0.438147 0.913250 -0.109442
C40   C     C_2   0.243449 0.438231 0.086803 -0.114328
C41   C     C_2   0.271686 0.989048 0.065990 -0.030578
C42   C     C_2   0.729660 0.986438 0.933810 -0.040745
C43   C     C_2   0.771687 0.489046 0.065988 -0.029291
C44   C     C_2   0.229660 0.486437 0.933811 -0.040878
C45   C     C_R   0.227649 0.872985 0.647332 0.535447
C46   C     C_R   0.772753 0.872871 0.353063 0.546066
C47   C     C_R   0.727185 0.372775 0.646686 0.524613
C48   C     C_R   0.272833 0.372729 0.353177 0.526091
C49   C     C_2   0.233587 0.059182 0.022112 0.204926
C50   C     C_2   0.766197 0.058953 0.977793 0.207706
C51   C     C_2   0.733591 0.559185 0.022110 0.205266
C52   C     C_2   0.266191 0.558958 0.977795 0.207798
C53   C     C_2   0.217278 0.018091 0.949562 -0.160087
C54   C     C_2   0.782799 0.018505 0.050335 -0.155578
C55   C     C_2   0.717281 0.518094 0.949561 -0.160038
C56   C     C_2   0.282791 0.518516 0.050340 -0.155952
C57   C     C_2   0.044563 0.656048 0.933057 -0.097075
C58   C     C_2   0.017134 0.663158 0.086932 -0.103932
C59   C     C_2   0.544555 0.156046 0.933053 -0.097681
C60   C     C_2   0.517122 0.163153 0.086923 -0.103310
C61   C     C_2   0.037444 0.562763 0.051748 -0.155484
C62   C     C_2   0.059830 0.564203 0.976924 -0.170746
C63   C     C_2   0.537428 0.062756 0.051740 -0.155789
C64   C     C_2   0.559821 0.064198 0.976919 -0.170763
C65   C     C_R   0.064516 0.652103 0.638506 0.560199
C66   C     C_R   0.968079 0.654666 0.355248 0.540138
C67   C     C_R   0.561176 0.150460 0.637033 0.538902
C68   C     C_R   0.438128 0.150923 0.362696 0.539347
C69   C     C_R   0.224547 0.516868 0.858735 0.589005
C70   C     C_R   0.775780 0.517774 0.141405 0.608453
C71   C     C_R   0.724547 0.016869 0.858735 0.588386
C72   C     C_R   0.275780 0.017775 0.141406 0.610919
C73   C     C_R   0.228198 0.876339 0.851472 0.575161
C74   C     C_R   0.771778 0.876587 0.148590 0.578661
C75   C     C_R   0.728198 0.376339 0.851472 0.575669
C76   C     C_R   0.271776 0.376592 0.148594 0.581073
C77   C     C_R   0.061977 0.647813 0.858025 0.558401
C78   C     C_R   0.973077 0.652638 0.150560 0.550198
C79   C     C_R   0.561975 0.147813 0.858025 0.557099
C80   C     C_R   0.473072 0.152636 0.150558 0.561723
C81   C     C_2   0.250110 0.903618 0.575468 -0.055969
C82   C     C_2   0.751756 0.905701 0.425257 -0.059797
C83   C     C_2   0.747514 0.405203 0.573776 -0.084078
C84   C     C_2   0.252620 0.404002 0.425896 -0.075654
C85   C     C_2   0.238360 0.909482 0.420757 0.223206
C86   C     C_2   0.762317 0.899760 0.581983 0.228674
C87   C     C_2   0.737917 0.395658 0.416119 0.226198
C88   C     C_2   0.263781 0.398857 0.582574 0.225115
C89   C     C_2   0.278406 0.829113 0.453779 -0.114467
C90   C     C_2   0.715043 0.836678 0.545342 -0.103523
C91   C     C_2   0.786138 0.338289 0.454102 -0.102510
C92   C     C_2   0.218360 0.331295 0.546342 -0.104367
Cr1   Cr    Cr6+3 0.113970 0.508630 0.747920 1.004671
Cr2   Cr    Cr6+3 0.886030 0.508630 0.252080 1.011907
Cr3   Cr    Cr6+3 0.613970 0.008630 0.747920 1.008506
Cr4   Cr    Cr6+3 0.386030 0.008630 0.252080 1.009494
Cr5   Cr    Cr6+3 0.269200 0.666740 0.749850 1.049255
Cr6   Cr    Cr6+3 0.730800 0.666740 0.250150 1.051733
Cr7   Cr    Cr6+3 0.769200 0.166740 0.749850 1.047037
Cr8   Cr    Cr6+3 0.230800 0.166740 0.250150 1.037919
Cr9   Cr    Cr6+3 0.112300 0.820070 0.749800 1.009104
Cr10  Cr    Cr6+3 0.887700 0.820070 0.250200 1.021085
Cr11  Cr    Cr6+3 0.612300 0.320070 0.749800 1.022801
Cr12  Cr    Cr6+3 0.387700 0.320070 0.250200 1.014324
H1    H     H_    0.318732 0.779918 0.424687 0.078516
H2    H     H_    0.669899 0.796607 0.572022 0.074195
H3    H     H_    0.833575 0.306956 0.428032 0.081247
H4    H     H_    0.174278 0.287701 0.573180 0.075375
H5    H     H_    0.167809 0.048802 0.927979 0.150191
H6    H     H_    0.832224 0.050155 0.071807 0.149461
H7    H     H_    0.667814 0.548809 0.927976 0.150469
H8    H     H_    0.332213 0.550175 0.071815 0.149914
H9    H     H_    0.297059 0.906389 0.047870 0.044221
H10   H     H_    0.706437 0.901260 0.951682 0.042380
H11   H     H_    0.797057 0.406385 0.047869 0.044353
H12   H     H_    0.206438 0.401258 0.951683 0.042356
H13   H     H_    0.307922 0.911252 0.931557 0.122893
H14   H     H_    0.692133 0.910643 0.068360 0.114098
H15   H     H_    0.807922 0.411246 0.931558 0.122825
H16   H     H_    0.192130 0.410640 0.068362 0.113715
H17   H     H_    0.031330 0.473391 0.075970 0.158370
H18   H     H_    0.083129 0.481568 0.955778 0.130852
H19   H     H_    0.531313 0.973383 0.075961 0.158789
H20   H     H_    0.583123 0.981566 0.955774 0.131107
H21   H     H_    0.026429 0.753645 0.065569 0.109338
H22   H     H_    0.019366 0.738590 0.951658 0.116828
H23   H     H_    0.526417 0.253639 0.065560 0.109310
H24   H     H_    0.519354 0.238584 0.951653 0.116855
H25   H     H_    0.280314 0.721367 0.551795 0.145738
H26   H     H_    0.704800 0.733283 0.446795 0.148583
H27   H     H_    0.797003 0.235512 0.553290 0.149209
H28   H     H_    0.209397 0.229333 0.447249 0.125225
H29   H     H_    0.242181 0.996050 0.556884 0.133259
H30   H     H_    0.768918 0.992793 0.446104 0.145681
H31   H     H_    0.728715 0.490486 0.551914 0.139963
H32   H     H_    0.268637 0.491755 0.446721 0.139974
H33   H     H_    0.030216 0.077481 0.412743 0.104209
H34   H     H_    0.048918 0.085215 0.541539 0.089334
H35   H     H_    0.478603 0.576748 0.441902 0.107355
H36   H     H_    0.574180 0.563948 0.530104 0.112174
H37   H     H_    0.028876 0.883591 0.353807 0.136398
H38   H     H_    0.060502 0.912223 0.610024 0.175622
H39   H     H_    0.417688 0.394717 0.408210 0.186225
H40   H     H_    0.603262 0.368187 0.579118 0.177885
H41   H     H_    0.905516 0.463571 0.428095 0.155754
H42   H     H_    0.101519 0.431162 0.587513 0.156030
H43   H     H_    0.392533 0.941243 0.422208 0.145861
H44   H     H_    0.587928 0.922672 0.584969 0.146983
H45   H     H_    0.026774 0.259950 0.572945 0.099598
H46   H     H_    0.928387 0.269620 0.489872 0.107572
H47   H     H_    0.525250 0.738261 0.556249 0.102038
H48   H     H_    0.424164 0.746870 0.475882 0.102834
O1    O     O_R   0.043230 0.549300 0.667990 -0.498769
O2    O     O_R   0.956770 0.549300 0.332010 -0.526320
O3    O     O_R   0.543230 0.049300 0.667990 -0.503082
O4    O     O_R   0.456770 0.049300 0.332010 -0.504848
O5    O     O_R   0.262920 0.788600 0.824420 -0.462994
O6    O     O_R   0.737080 0.788600 0.175580 -0.467772
O7    O     O_R   0.762920 0.288600 0.824420 -0.463373
O8    O     O_R   0.237080 0.288600 0.175580 -0.465764
O9    O     O_R   0.167530 0.905110 0.830340 -0.527858
O10   O     O_R   0.832470 0.905110 0.169660 -0.521675
O11   O     O_R   0.667530 0.405110 0.830340 -0.525795
O12   O     O_R   0.332470 0.405110 0.169660 -0.517744
O13   O     O_R   0.054010 0.748440 0.822860 -0.480949
O14   O     O_R   0.945990 0.748440 0.177140 -0.497254
O15   O     O_R   0.554010 0.248440 0.822860 -0.479549
O16   O     O_R   0.445990 0.248440 0.177140 -0.488055
O17   O     O_3   0.165160 0.665150 0.749190 -0.316778
O18   O     O_3   0.834840 0.665150 0.250810 -0.274026
O19   O     O_3   0.665160 0.165150 0.749190 -0.314489
O20   O     O_3   0.334840 0.165150 0.250810 -0.291927
O21   O     O_R   0.178620 0.457600 0.674100 -0.550462
O22   O     O_R   0.821380 0.457600 0.325900 -0.527363
O23   O     O_R   0.678620 0.957600 0.674100 -0.542168
O24   O     O_R   0.321380 0.957600 0.325900 -0.545801
O25   O     O_R   0.284680 0.542100 0.669460 -0.522616
O26   O     O_R   0.715320 0.542100 0.330540 -0.524836
O27   O     O_R   0.784680 0.042100 0.669460 -0.525606
O28   O     O_R   0.215320 0.042100 0.330540 -0.524257
O29   O     O_R   0.262860 0.790390 0.676650 -0.501035
O30   O     O_R   0.737140 0.790390 0.323350 -0.505724
O31   O     O_R   0.762860 0.290390 0.676650 -0.496130
O32   O     O_R   0.237140 0.290390 0.323350 -0.505238
O33   O     O_R   0.167460 0.907030 0.670940 -0.540256
O34   O     O_R   0.832540 0.907030 0.329060 -0.504710
O35   O     O_R   0.667460 0.407030 0.670940 -0.544418
O36   O     O_R   0.332540 0.407030 0.329060 -0.545591
O37   O     O_R   0.053950 0.750220 0.675100 -0.509436
O38   O     O_R   0.946050 0.750220 0.324900 -0.512394
O39   O     O_R   0.553950 0.250220 0.675100 -0.488683
O40   O     O_R   0.446050 0.250220 0.324900 -0.507056
O41   O     O_R   0.043300 0.547370 0.827390 -0.493841
O42   O     O_R   0.956700 0.547370 0.172610 -0.518420
O43   O     O_R   0.543300 0.047370 0.827390 -0.493591
O44   O     O_R   0.456700 0.047370 0.172610 -0.514918
O45   O     O_R   0.178690 0.455820 0.821860 -0.531711
O46   O     O_R   0.821310 0.455820 0.178140 -0.518042
O47   O     O_R   0.678690 0.955820 0.821860 -0.531657
O48   O     O_R   0.321310 0.955820 0.178140 -0.515718
O49   O     O_R   0.284750 0.540170 0.828860 -0.443780
O50   O     O_R   0.715250 0.540170 0.171140 -0.457789
O51   O     O_R   0.784750 0.040170 0.828860 -0.445083
O52   O     O_R   0.215250 0.040170 0.171140 -0.456730
O53   O     O_3   0.177270 0.945645 0.454587 -0.719826
H49   H     H_    0.168068 0.031737 0.442683 0.325671
O54   O     O_3   0.829205 0.914268 0.552678 -0.713441
H50   H     H_    0.860501 0.952569 0.587744 0.342527
O55   O     O_3   0.670036 0.401157 0.442493 -0.734044
H51   H     H_    0.638784 0.430735 0.404631 0.346443
O56   O     O_3   0.330291 0.416956 0.553067 -0.728109
H52   H     H_    0.361111 0.457173 0.587821 0.348348
O57   O     O_3   0.202200 0.163439 0.048338 -0.685566
H53   H     H_    0.175310 0.202219 0.009733 0.307132
O58   O     O_3   0.795713 0.165521 0.951751 -0.685630
H54   H     H_    0.821759 0.205619 0.990507 0.309185
O59   O     O_3   0.702208 0.663446 0.048335 -0.685245
H55   H     H_    0.675320 0.702227 0.009729 0.307262
O60   O     O_3   0.295705 0.665527 0.951754 -0.685396
H56   H     H_    0.321746 0.705631 0.990511 0.309285

loop_
_geom_bond_atom_site_label_1
_geom_bond_atom_site_label_2
_ccdc_geom_bond_type
Cr10  O18   S    
C67   O39   A    
C7    C83   D    
C14   H38   S    
C15   C19   A    
C69   O49   A    
C46   O30   A    
C6    C82   D    
C87   C91   D    
Cr8   O20   S    
C14   C18   A    
C35   C36   A    
C6    H26   S    
C30   C34   A    
C45   O33   A    
C34   H46   S    
C85   O53   S    
C57   C62   D    
C32   H43   S    
O57   H53   S    
C51   O59   S    
C71   O51   A    
C12   C23   A    
Cr1   O17   S    
C59   C64   D    
C50   C54   S    
C60   C63   D    
Cr4   O48   S    
C32   C36   A    
C14   C21   A    
C61   H17   S    
C17   H33   S    
C16   H40   S    
C48   O36   A    
Cr7   O7    S    
C3    O27   A    
C9    C22   A    
Cr7   O19   S    
C68   O40   A    
C77   O13   A    
Cr12  O40   S    
C49   O57   S    
C11   C24   A    
C79   O43   A    
C54   H6    S    
C75   O11   A    
C78   O42   A    
Cr1   O21   S    
C18   H34   S    
Cr3   O47   S    
Cr3   O23   S    
C9    C66   S    
C65   O1    A    
C43   H11   S    
C46   C82   S    
C1    O25   A    
C92   H4    S    
C39   C55   D    
C88   C92   D    
C29   C33   A    
C40   C56   D    
C88   O56   S    
C84   H32   S    
C8    H28   S    
C73   O9    A    
C23   C24   A    
C29   H42   S    
C67   O3    A    
Cr9   O17   S    
C8    C92   S    
C39   C75   S    
Cr6   O26   S    
C41   H9    S    
Cr7   O31   S    
Cr2   O2    S    
C72   O52   A    
C37   C53   D    
C44   C52   D    
C1    C88   S    
C5    H25   S    
C48   O32   A    
C37   C73   S    
C70   O46   A    
C8    C84   D    
C21   C22   A    
C3    C86   S    
C69   O45   A    
C87   O55   S    
C56   H8    S    
C35   H47   S    
C4    O28   A    
Cr9   O33   S    
C1    O21   A    
C41   C49   D    
C42   H10   S    
C9    C26   A    
C17   C18   A    
C10   C21   A    
C25   C29   A    
Cr12  O36   S    
C12   C67   S    
C45   C81   S    
C78   O14   A    
C76   O8    A    
C74   O6    A    
C12   C27   A    
C45   O29   A    
O54   H50   S    
Cr6   O6    S    
C28   C32   A    
Cr11  O35   S    
C90   H2    S    
C47   O31   A    
C86   C90   D    
C59   C79   S    
C57   H22   S    
C74   O10   A    
C85   C89   D    
C11   C68   S    
C36   H48   S    
C4    C85   S    
C25   C26   A    
C64   H20   S    
C27   C31   A    
C70   O50   A    
C48   C84   S    
C81   H29   S    
Cr11  O11   S    
Cr2   O46   S    
Cr5   O5    S    
C82   H30   S    
Cr1   O45   S    
O58   H54   S    
Cr7   O27   S    
C57   C77   S    
C72   O48   A    
C5    C81   D    
Cr8   O8    S    
Cr5   O25   S    
O56   H52   S    
C38   C54   D    
C16   C20   A    
C7    C91   S    
C59   H24   S    
O55   H51   S    
C37   H13   S    
C2    C87   S    
Cr10  O34   S    
Cr11  O15   S    
C46   O34   A    
Cr5   O29   S    
C42   C50   D    
C41   C72   S    
C15   H39   S    
C31   H44   S    
C10   C25   A    
C3    O23   A    
C15   C24   A    
C40   H16   S    
Cr2   O22   S    
C26   C30   A    
C43   C70   S    
C47   C83   S    
C4    O24   A    
Cr9   O13   S    
C31   C35   A    
C76   O12   A    
C50   O58   S    
Cr11  O39   S    
C47   O35   A    
Cr8   O28   S    
Cr12  O20   S    
C62   H18   S    
Cr10  O10   S    
C30   H41   S    
C66   O2    A    
C38   C74   S    
C10   C65   S    
C75   O7    A    
O60   H56   S    
O53   H49   S    
C60   C80   S    
C52   O60   S    
Cr3   O43   S    
Cr4   O24   S    
C55   H7    S    
C77   O41   A    
Cr2   O42   S    
C83   H31   S    
C13   H37   S    
Cr6   O50   S    
C60   H23   S    
Cr1   O41   S    
C65   O37   A    
C68   O4    A    
C86   O54   S    
Cr12  O12   S    
C63   H19   S    
Cr12  O16   S    
C71   O47   A    
C73   O5    A    
Cr5   O49   S    
Cr6   O30   S    
C16   C23   A    
Cr9   O37   S    
C13   C17   A    
C80   O44   A    
C89   H1    S    
C20   H36   S    
C19   C20   A    
Cr9   O9    S    
O59   H55   S    
Cr5   O17   S    
C7    H27   S    
C33   H45   S    
C2    O22   A    
Cr8   O52   S    
Cr11  O19   S    
C43   C51   D    
Cr4   O4    S    
C11   C28   A    
C58   C61   D    
C39   H15   S    
C66   O38   A    
Cr1   O1    S    
C42   C71   S    
Cr10  O38   S    
C33   C34   A    
C13   C22   A    
C51   C55   S    
Cr3   O3    S    
C61   C62   S    
Cr8   O32   S    
C5    C89   S    
C49   C53   S    
C58   C78   S    
C63   C64   S    
Cr6   O18   S    
C40   C76   S    
Cr4   O44   S    
C6    C90   S    
C44   H12   S    
C58   H21   S    
Cr10  O14   S    
Cr4   O20   S    
Cr7   O51   S    
C27   C28   A    
C44   C69   S    
C38   H14   S    
C53   H5    S    
C2    O26   A    
C79   O15   A    
Cr3   O19   S    
C80   O16   A    
C19   H35   S    
Cr2   O18   S    
C52   C56   S    
C91   H3    S    
