data_mof_unit_35275.cif
_audit_creation_date              2012-12-10T17:39:19-0500
_audit_creation_method            fapswitch 2.2
_symmetry_space_group_name_H-M    P1
_symmetry_Int_Tables_number       1
_space_group_crystal_system       triclinic
_cell_length_a                    12.328022
_cell_length_b                    13.090035
_cell_length_c                    27.796267
_cell_angle_alpha                 77.236852
_cell_angle_beta                  101.16573
_cell_angle_gamma                 116.549255
_cell_volume                      3890.23000619

loop_
_atom_site_label
_atom_site_type_symbol
_atom_type_description
_atom_site_fract_x
_atom_site_fract_y
_atom_site_fract_z
_atom_type_partial_charge
C1    C     C_R   0.854840 0.285582 0.505001 0.804800
C2    C     C_R   0.898283 0.495668 0.712627 -0.142943
C3    C     C_R   0.000961 0.501759 0.746091 0.235452
C4    C     C_R   0.993093 0.491941 0.898092 -0.087057
C5    C     C_R   0.973112 0.389711 0.880827 -0.158292
C6    C     C_R   0.954233 0.287410 0.915968 0.445228
C7    C     C_R   0.013490 0.594803 0.864102 -0.004921
C8    C     C_R   0.000489 0.502016 0.645128 -0.080045
C9    C     C_R   0.999168 0.497102 0.354947 -0.023192
C10   C     C_R   0.987525 0.394145 0.035502 0.069927
C11   C     C_R   0.999623 0.591761 0.016009 0.040834
C12   C     C_R   0.999954 0.500473 0.592351 0.858282
C13   C     C_R   0.993895 0.493085 0.051057 0.075779
C14   C     C_R   0.991663 0.301623 0.072390 -0.191341
C15   C     C_R   0.994745 0.303731 0.122393 -0.144767
C16   C     C_R   0.994923 0.398375 0.137761 -0.019862
C17   C     C_R   0.994915 0.493496 0.102241 -0.047686
C18   C     C_R   0.996125 0.589116 0.118018 -0.022496
C19   C     C_R   0.997008 0.587721 0.168737 0.535635
C20   C     C_R   0.996065 0.400552 0.188131 0.534742
C21   C     C_R   0.895237 0.489116 0.271325 -0.115526
C22   C     C_R   0.895813 0.489998 0.321412 -0.238831
C23   C     C_R   0.144896 0.713801 0.493509 0.887181
C24   C     C_R   0.101285 0.501568 0.337676 -0.226322
C25   C     C_R   0.100426 0.500439 0.287548 -0.107449
C26   C     C_R   0.997577 0.494592 0.254192 0.362654
C27   C     C_R   0.979028 0.391477 0.983948 -0.031019
C28   C     C_R   0.992956 0.492295 0.949277 0.083596
C29   C     C_R   0.006839 0.593862 0.965369 0.057014
C30   C     C_R   0.955815 0.290254 0.966041 -0.249938
C31   C     C_R   0.032500 0.695303 0.880691 -0.104979
C32   C     C_R   0.997345 0.685060 0.032970 -0.190265
C33   C     C_R   0.995844 0.683608 0.082964 -0.133538
C34   C     C_R   0.999977 0.499388 0.407658 0.779975
C35   C     C_R   0.029167 0.695063 0.930201 -0.185106
C36   C     C_R   0.279855 0.017885 0.428715 -0.201847
C37   C     C_R   0.227221 0.836314 0.484085 -0.159062
C38   C     C_R   0.813636 0.077293 0.535468 0.449627
C39   C     C_R   0.731542 0.960842 0.542527 -0.211531
C40   C     C_R   0.609124 0.927111 0.525038 -0.159273
C41   C     C_R   0.564519 0.009120 0.500584 0.115309
C42   C     C_R   0.649992 0.123240 0.485583 0.017481
C43   C     C_R   0.438060 0.978461 0.486747 -0.013997
C44   C     C_R   0.402224 0.052311 0.448170 0.121142
C45   C     C_R   0.972141 0.395532 0.829078 0.649107
C46   C     C_R   0.489202 0.158718 0.428603 -0.210675
C47   C     C_R   0.610996 0.194534 0.447424 -0.168794
C48   C     C_R   0.345391 0.877090 0.509312 0.327403
C49   C     C_R   0.193979 0.908416 0.445126 -0.281775
C50   C     C_R   0.772867 0.160717 0.507719 -0.206631
C51   C     C_R   0.348702 0.331145 0.581163 -0.297649
C52   C     C_R   0.759553 0.646081 0.431955 0.674471
C53   C     C_R   0.660079 0.676712 0.418220 -0.372127
C54   C     C_R   0.558512 0.621595 0.444090 -0.264604
C55   C     C_R   0.551482 0.533996 0.484500 0.005627
C56   C     C_R   0.016238 0.595983 0.813965 0.607695
C57   C     C_R   0.653312 0.504953 0.498129 0.203499
C58   C     C_R   0.447248 0.474762 0.511935 -0.012970
C59   C     C_R   0.447858 0.388927 0.553007 0.166356
C60   C     C_R   0.547523 0.361504 0.565872 -0.258908
C61   C     C_R   0.647663 0.417934 0.539015 -0.162761
C62   C     C_R   0.341579 0.496756 0.500552 0.048749
C63   C     C_R   0.248468 0.357567 0.568338 0.084839
C64   C     C_R   0.105525 0.510059 0.728958 0.412990
C65   C     C_R   0.103920 0.509174 0.678593 -0.228088
C66   C     C_R   0.898084 0.496366 0.662451 -0.209040
Cu1   Cu    Cu3+1 0.098270 0.475420 0.511360 0.988197
Cu2   Cu    Cu3+1 0.901730 0.524580 0.488640 0.969782
H1    H     H_    0.817227 0.490839 0.637396 0.168959
H2    H     H_    0.050253 0.775476 0.855312 0.201480
H3    H     H_    0.993758 0.759895 0.008378 0.150842
H4    H     H_    0.182105 0.507022 0.362760 0.150951
H5    H     H_    0.994502 0.757366 0.094010 0.191521
H6    H     H_    0.179899 0.504830 0.274508 0.139798
H7    H     H_    0.047921 0.777049 0.939902 0.152991
H8    H     H_    0.101940 0.879322 0.426971 0.184119
H9    H     H_    0.462956 0.214810 0.398636 0.141108
H10   H     H_    0.251839 0.073049 0.398911 0.149589
H11   H     H_    0.818097 0.489613 0.725727 0.167221
H12   H     H_    0.550595 0.835949 0.529510 0.198283
H13   H     H_    0.762478 0.896367 0.563007 0.168339
H14   H     H_    0.674524 0.275732 0.429393 0.165476
H15   H     H_    0.171870 0.313704 0.590080 0.152988
H16   H     H_    0.548304 0.295489 0.597183 0.171746
H17   H     H_    0.348897 0.266089 0.612949 0.157247
H18   H     H_    0.332515 0.559794 0.469806 0.112401
H19   H     H_    0.486641 0.649856 0.431383 0.154492
H20   H     H_    0.657251 0.742076 0.387239 0.159076
H21   H     H_    0.718924 0.390445 0.551930 0.205231
H22   H     H_    0.815135 0.484355 0.333935 0.154415
H23   H     H_    0.815126 0.483762 0.245794 0.143009
H24   H     H_    0.997379 0.230503 0.149064 0.188481
H25   H     H_    0.996163 0.227098 0.064124 0.156227
H26   H     H_    0.935027 0.209854 0.990716 0.201773
H27   H     H_    0.183735 0.514989 0.665318 0.201183
N1    N     N_R   0.997111 0.497877 0.797748 -0.464560
N2    N     N_R   0.997006 0.494316 0.202577 -0.467063
N3    N     N_R   0.246290 0.438210 0.528570 -0.181146
N4    N     N_R   0.754320 0.561170 0.471730 -0.239748
O1    O     O_R   0.972510 0.318140 0.514280 -0.552232
O2    O     O_2   0.995118 0.309319 0.222373 -0.549020
O3    O     O_2   0.038343 0.694635 0.781462 -0.502481
O4    O     O_2   0.998907 0.679334 0.184196 -0.542622
O5    O     O_R   0.806530 0.359640 0.495100 -0.614672
O6    O     O_R   0.082990 0.479270 0.579320 -0.561588
O7    O     O_R   0.917010 0.520770 0.560140 -0.610468
O8    O     O_R   0.193470 0.640360 0.504900 -0.550537
O9    O     O_R   0.027490 0.681860 0.485720 -0.548812
O10   O     O_R   0.082990 0.479230 0.439860 -0.608574
O11   O     O_R   0.917010 0.520730 0.420680 -0.544669
O12   O     O_2   0.945652 0.300884 0.809421 -0.419556
S1    S     S_3+6 0.238866 0.522303 0.769611 0.062217
O13   O     O_2   0.270635 0.612647 0.801586 -0.221554
O14   O     O_2   0.216628 0.408573 0.802530 -0.242290
O15   O     O_3   0.357147 0.560101 0.737489 -0.482637
H28   H     H_    0.348066 0.487008 0.728829 0.350961
S2    S     S_3+6 0.362542 0.820976 0.573739 -0.011262
O16   O     O_2   0.246922 0.787612 0.595773 -0.306567
O17   O     O_2   0.386265 0.715347 0.580225 -0.294872
O18   O     O_3   0.478005 0.921525 0.604281 -0.522816
H29   H     H_    0.483218 0.882392 0.638917 0.399754
O19   O     O_3   0.930531 0.109764 0.559695 -0.588857
C67   C     C_3   0.001043 0.079384 0.535758 0.031502
H30   H     H_    0.055937 0.156853 0.510468 0.171550
H31   H     H_    0.946216 0.008195 0.513212 0.118083
C68   C     C_3   0.086615 0.041295 0.575033 -0.332753
H32   H     H_    0.136848 0.107006 0.600106 0.226594
H33   H     H_    0.031883 0.958690 0.597797 0.240298
C69   C     C_3   0.178105 0.024409 0.551418 -0.818454
H34   H     H_    0.129224 0.953717 0.528702 0.266788
H35   H     H_    0.241466 0.000966 0.580914 0.301148
H36   H     H_    0.232507 0.105247 0.527641 0.247820
O20   O     O_3   0.864063 0.696549 0.407012 -0.586369
C70   C     C_3   0.867832 0.783722 0.365919 0.001975
H37   H     H_    0.964202 0.832565 0.357866 0.167116
H38   H     H_    0.843569 0.849438 0.374530 0.128692
C71   C     C_3   0.794850 0.731833 0.319041 -0.374873
H39   H     H_    0.839946 0.685504 0.307644 0.236843
H40   H     H_    0.700637 0.668521 0.326153 0.211841
C72   C     C_3   0.788813 0.825853 0.276441 -0.842257
H41   H     H_    0.741264 0.871810 0.286409 0.251902
H42   H     H_    0.737553 0.786169 0.242856 0.261789
H43   H     H_    0.882165 0.888922 0.267773 0.265478
S3    S     S_3+6 0.931645 0.152898 0.901249 0.065071
O21   O     O_2   0.814937 0.106649 0.867627 -0.218507
O22   O     O_2   0.036984 0.170225 0.875775 -0.200767
O23   O     O_3   0.922503 0.054796 0.952774 -0.559233
H44   H     H_    0.912051 0.984610 0.940895 0.377384

loop_
_geom_bond_atom_site_label_1
_geom_bond_atom_site_label_2
_ccdc_geom_bond_type
C10   C27   A    
C58   C62   A    
C21   C26   A    
C8    C66   A    
C68   H32   S    
C60   H16   S    
C41   C42   A    
O23   H44   S    
C72   H43   S    
C51   H17   S    
C70   C71   S    
S1    O14   D    
C19   N2    A    
C67   H30   S    
C53   C54   A    
C52   C53   A    
C62   H18   S    
C35   H7    S    
C5    C6    A    
C28   C29   A    
C72   H42   S    
C25   H6    S    
C63   N3    A    
S2    O17   D    
C21   H23   S    
C12   O6    A    
C9    C22   A    
C67   H31   S    
C66   H1    S    
C15   C16   A    
C57   N4    A    
C18   C19   A    
C46   C47   A    
C47   H14   S    
C2    H11   S    
Cu1   N3    S    
C15   H24   S    
C62   N3    A    
C19   O4    S    
Cu1   O10   S    
C31   H2    S    
C20   N2    A    
C61   H21   S    
C16   C17   A    
C40   H12   S    
C3    N1    S    
C43   C48   A    
C14   H25   S    
C8    C12   S    
C69   H36   S    
C59   C60   A    
C21   C22   A    
C27   C30   A    
C52   O20   S    
C41   C43   A    
Cu2   O7    S    
C7    C56   A    
S3    O23   S    
C1    O1    A    
S1    O13   D    
C4    C28   A    
C44   C46   A    
C32   H3    S    
C38   C39   A    
C71   C72   S    
C7    C31   A    
Cu1   Cu2   S    
C51   C63   A    
C72   H41   S    
C39   H13   S    
S3    O22   D    
C10   C14   A    
S2    O18   S    
C39   C40   A    
Cu1   O6    S    
C67   C68   S    
C70   H38   S    
C20   O2    S    
C68   C69   S    
C4    C7    A    
C58   C59   A    
C23   C37   S    
C5    C45   A    
C63   H15   S    
C60   C61   A    
C43   C44   A    
C37   C49   A    
C65   H27   S    
C16   C20   A    
C23   O8    A    
C17   C18   A    
C22   H22   S    
C49   H8    S    
Cu2   O11   S    
C24   C25   A    
C37   C48   A    
C71   H40   S    
C1    O5    A    
C38   O19   S    
Cu1   O1    S    
C42   C50   A    
C33   H5    S    
C40   C41   A    
C6    C30   A    
C11   C32   A    
C55   C57   A    
O20   C70   S    
C34   O11   A    
C31   C35   A    
C36   C44   A    
C51   C59   A    
C6    S3    S    
O18   H29   S    
C24   H4    S    
C69   H34   S    
C1    C50   S    
C56   N1    A    
C54   C55   A    
C68   H33   S    
C52   N4    A    
Cu2   O5    S    
C4    C5    A    
C2    C66   A    
C10   C13   A    
C46   H9    S    
C45   O12   S    
C9    C24   A    
C57   C61   A    
C48   S2    S    
C38   C50   A    
C71   H39   S    
C29   C35   A    
C70   H37   S    
C13   C17   A    
S3    O21   D    
C32   C33   A    
C2    C3    A    
C25   C26   A    
Cu2   N4    S    
C56   O3    S    
C30   H26   S    
C36   H10   S    
S2    O16   D    
C64   C65   A    
C12   O7    A    
C11   C13   A    
Cu1   O8    S    
C54   H19   S    
C23   O9    A    
C9    C34   S    
C53   H20   S    
C42   C47   A    
C3    C64   A    
C18   C33   A    
C64   S1    S    
C26   N2    S    
C8    C65   A    
C11   C29   A    
C55   C58   A    
C27   C28   A    
C34   O10   A    
C14   C15   A    
Cu2   O9    S    
O19   C67   S    
C45   N1    A    
S1    O15   S    
C36   C49   A    
O15   H28   S    
C69   H35   S    
