data_mof_unit_19546.cif
_audit_creation_date              2012-12-10T16:52:39-0500
_audit_creation_method            fapswitch 2.2
_symmetry_space_group_name_H-M    P1
_symmetry_Int_Tables_number       1
_space_group_crystal_system       triclinic
_cell_length_a                    13.000291
_cell_length_b                    10.903388
_cell_length_c                    9.676417
_cell_angle_alpha                 89.16898
_cell_angle_beta                  96.514029
_cell_angle_gamma                 90.166253
_cell_volume                      1362.60581818

loop_
_atom_site_label
_atom_site_type_symbol
_atom_type_description
_atom_site_fract_x
_atom_site_fract_y
_atom_site_fract_z
_atom_type_partial_charge
C1    C     C_R   0.496660 0.265129 0.500609 0.871246
C2    C     C_R   0.028716 0.526815 0.557678 0.099268
C3    C     C_R   0.971735 0.484740 0.434324 0.101593
C4    C     C_R   0.864219 0.476796 0.430697 -0.296673
C5    C     C_R   0.870653 0.563089 0.664145 0.139665
C6    C     C_R   0.978847 0.564764 0.670214 -0.182517
C7    C     C_2   0.451095 0.935815 0.387524 0.175208
C8    C     C_2   0.498530 0.867850 0.494447 -0.376238
C9    C     C_2   0.470172 0.069025 0.385971 -0.148866
C10   C     C_2   0.482607 0.133376 0.503339 -0.381240
C11   C     C_2   0.437799 0.432233 0.913714 -0.065463
C12   C     C_R   0.300553 0.499357 0.473561 0.805439
C13   C     C_2   0.439654 0.429867 0.069881 -0.074706
C14   C     C_R   0.497256 0.734911 0.498280 0.834716
C15   C     C_R   0.699709 0.504853 0.526697 0.801906
C16   C     C_R   0.813247 0.514245 0.543214 -0.110651
C17   C     C_R   0.187826 0.497043 0.457163 -0.100223
C18   C     C_R   0.023759 0.451636 0.318495 0.152792
C19   C     C_R   0.132505 0.458641 0.332713 -0.189555
C20   C     C_R   0.135828 0.531767 0.568219 -0.260060
Cu1   Cu    Cu3+1 0.500020 0.500020 0.638640 0.930734
Cu2   Cu    Cu3+1 0.499980 0.499980 0.361360 0.928458
H1    H     H_    0.818635 0.440741 0.339898 0.161268
H2    H     H_    0.475680 0.090259 0.603701 0.155451
H3    H     H_    0.381927 0.373621 0.854634 0.151942
H4    H     H_    0.554019 0.551966 0.901309 0.188069
H5    H     H_    0.387332 0.366825 0.114509 0.146056
H6    H     H_    0.546630 0.561101 0.112122 0.190814
H7    H     H_    0.025829 0.596930 0.761981 0.148264
H8    H     H_    0.175550 0.432360 0.248700 0.166054
H9    H     H_    0.179046 0.563502 0.663597 0.157547
H10   H     H_    0.545161 0.910362 0.580924 0.135387
H11   H     H_    0.471390 0.115244 0.286049 0.174113
N1    N     N_2   0.498860 0.498660 0.846770 -0.282978
N2    N     N_2   0.498840 0.498630 0.152900 -0.283742
O1    O     O_R   0.500020 0.321960 0.617050 -0.573778
O2    O     O_R   0.499980 0.321920 0.382890 -0.573993
O3    O     O_R   0.349010 0.500000 0.598060 -0.578186
O4    O     O_R   0.348980 0.499950 0.363910 -0.589105
O5    O     O_R   0.500020 0.678080 0.617110 -0.575437
O6    O     O_R   0.499980 0.678040 0.382950 -0.582049
O7    O     O_R   0.651020 0.500050 0.636090 -0.594673
O8    O     O_R   0.650990 0.500000 0.401940 -0.573767
C21   C     C_3   0.816638 0.614813 0.782965 -0.364059
C22   C     C_3   0.883847 0.690936 0.890231 -0.896074
H12   H     H_    0.942306 0.632444 0.951962 0.258273
H13   H     H_    0.922664 0.766667 0.838114 0.259884
H14   H     H_    0.834152 0.731781 0.963527 0.246756
H15   H     H_    0.753235 0.676520 0.737822 0.211287
H16   H     H_    0.782600 0.537886 0.839199 0.218431
C23   C     C_3   0.962700 0.410302 0.182743 -0.411977
C24   C     C_3   0.025815 0.383791 0.062235 -0.863207
H17   H     H_    0.070599 0.466121 0.035893 0.245643
H18   H     H_    0.078864 0.305163 0.088895 0.250303
H19   H     H_    0.972443 0.359384 0.968762 0.253490
H20   H     H_    0.919120 0.325522 0.203888 0.204822
H21   H     H_    0.905922 0.483062 0.146184 0.206498
C25   C     C_3   0.382890 0.878081 0.266715 -0.328376
C26   C     C_3   0.304985 0.966512 0.188064 -0.881223
H22   H     H_    0.259956 0.014675 0.261757 0.262169
H23   H     H_    0.344891 0.034605 0.126372 0.241033
H24   H     H_    0.250201 0.914135 0.114585 0.246371
H25   H     H_    0.432673 0.839108 0.192279 0.210277
H26   H     H_    0.336671 0.802436 0.307299 0.207592

loop_
_geom_bond_atom_site_label_1
_geom_bond_atom_site_label_2
_ccdc_geom_bond_type
C12   C17   S    
C4    C16   A    
C23   H21   S    
C9    C10   D    
C7    C25   S    
Cu2   O8    S    
C11   N1    D    
C24   H19   S    
C1    O2    A    
C17   C20   A    
C12   O4    A    
C2    C3    A    
C3    C4    A    
C15   O8    A    
C7    C8    D    
Cu1   O1    S    
C22   H12   S    
C21   C22   S    
C9    H11   S    
Cu2   N2    S    
C11   C13   S    
C2    C6    A    
Cu1   O5    S    
C14   O6    A    
Cu2   O4    S    
C17   C19   A    
C5    C21   S    
C24   H18   S    
C18   C23   S    
C13   N2    D    
H6    N2    S    
C22   H13   S    
C12   O3    A    
C5    C6    A    
C19   H8    S    
C26   H23   S    
Cu2   O6    S    
C11   H3    S    
C2    C20   A    
Cu1   O7    S    
C8    H10   S    
C26   H22   S    
C6    H7    S    
C23   C24   S    
C24   H17   S    
C15   O7    A    
C3    C18   A    
C23   H20   S    
C1    C10   S    
C22   H14   S    
C21   H16   S    
C25   H25   S    
C7    C9    S    
C4    H1    S    
C18   C19   A    
C5    C16   A    
C8    C14   S    
Cu1   N1    S    
C25   H26   S    
C10   H2    S    
C25   C26   S    
Cu1   Cu2   S    
Cu2   O2    S    
C14   O5    A    
H4    N1    S    
C21   H15   S    
C13   H5    S    
Cu1   O3    S    
C15   C16   S    
C1    O1    A    
C26   H24   S    
C20   H9    S    
