data_mof_unit_21766.cif
_audit_creation_date              2012-12-11T16:37:14-0500
_audit_creation_method            fapswitch 2.2
_symmetry_space_group_name_H-M    P1
_symmetry_Int_Tables_number       1
_space_group_crystal_system       triclinic
_cell_length_a                    18.784029
_cell_length_b                    18.941305
_cell_length_c                    20.619891
_cell_angle_alpha                 107.826979
_cell_angle_beta                  106.826125
_cell_angle_gamma                 110.431266
_cell_volume                      5863.43201086

loop_
_atom_site_label
_atom_site_type_symbol
_atom_type_description
_atom_site_fract_x
_atom_site_fract_y
_atom_site_fract_z
_atom_type_partial_charge
C1    C     C_R   0.040826 0.085655 0.344525 0.721222
C2    C     C_R   0.742770 0.000173 0.474649 0.020075
C3    C     C_R   0.769937 0.727588 0.286879 0.132069
C4    C     C_R   0.044875 0.286681 0.545072 -0.112186
C5    C     C_R   0.239296 0.189584 0.653999 -0.137562
C6    C     C_R   0.968402 0.792281 0.538583 -0.200154
C7    C     C_R   0.171864 0.938165 0.430448 0.097311
C8    C     C_R   0.986365 0.056012 0.710592 -0.098557
C9    C     C_R   0.913970 0.916176 0.646917 0.055291
C10   C     C_R   0.239540 0.076830 0.500187 -0.049669
C11   C     C_R   0.162170 0.184218 0.718785 -0.045503
C12   C     C_R   0.754017 0.929230 0.459303 -0.110192
C13   C     C_R   0.046018 0.798940 0.475893 0.717819
C14   C     C_R   0.244165 0.207154 0.726174 0.093985
C15   C     C_R   0.026866 0.769318 0.525148 -0.006680
C16   C     C_R   0.247451 0.011842 0.457319 0.012331
C17   C     C_R   0.937833 0.985070 0.713941 0.126241
C18   C     C_R   0.035242 0.489682 0.607073 -0.365301
C19   C     C_R   0.013693 0.405427 0.585502 0.833442
C20   C     C_R   0.070988 0.377035 0.574012 -0.031247
C21   C     C_R   0.151680 0.435200 0.588509 -0.246982
C22   C     C_R   0.172454 0.519585 0.608836 -0.044853
C23   C     C_R   0.845693 0.777881 0.289120 -0.109826
C24   C     C_R   0.112716 0.546110 0.614998 0.118215
C25   C     C_R   0.114874 0.621662 0.537635 0.757478
C26   C     C_R   0.086971 0.671561 0.512901 -0.325812
C27   C     C_R   0.063426 0.723421 0.556721 -0.132812
C28   C     C_R   0.072909 0.728190 0.628400 0.790801
C29   C     C_R   0.099187 0.676450 0.652535 -0.414954
C30   C     C_R   0.117357 0.620878 0.605999 -0.144677
C31   C     C_R   0.510288 0.943578 0.386133 -0.216944
C32   C     C_R   0.581901 0.933931 0.412602 0.031151
C33   C     C_R   0.663483 0.002671 0.439830 0.067854
C34   C     C_R   0.997283 0.233762 0.566854 0.755948
C35   C     C_R   0.669602 0.077293 0.435720 -0.160897
C36   C     C_R   0.597896 0.087202 0.412811 -0.159355
C37   C     C_R   0.518497 0.021440 0.390877 0.129802
C38   C     C_R   0.467089 0.090550 0.472106 -0.317769
C39   C     C_R   0.400206 0.082942 0.490439 0.774775
C40   C     C_R   0.316441 0.026052 0.434539 -0.091265
C41   C     C_R   0.300583 0.984398 0.358606 -0.267844
C42   C     C_R   0.367878 0.989444 0.340898 -0.157979
C43   C     C_R   0.451314 0.039953 0.398499 0.038218
C44   C     C_R   0.321486 0.240256 0.795856 -0.075509
C45   C     C_R   0.769664 0.772220 0.353635 -0.168298
C46   C     C_R   0.317344 0.227450 0.858758 0.746703
C47   C     C_R   0.390687 0.267801 0.926821 -0.320960
C48   C     C_R   0.469236 0.320676 0.932677 0.152234
C49   C     C_R   0.474310 0.325746 0.867954 -0.159149
C50   C     C_R   0.401126 0.286751 0.800278 -0.226373
C51   C     C_R   0.673446 0.502603 0.137000 -0.326435
C52   C     C_R   0.733814 0.584825 0.191491 0.729145
C53   C     C_R   0.588148 0.471399 0.124038 0.107065
C54   C     C_R   0.709757 0.637726 0.233827 -0.070223
C55   C     C_R   0.626554 0.603841 0.226073 -0.337360
C56   C     C_R   0.075534 0.242079 0.504454 -0.157435
C57   C     C_R   0.565739 0.520904 0.171957 0.018391
C58   C     C_R   0.951560 0.021642 0.200583 0.111217
C59   C     C_R   0.933918 0.959396 0.130364 0.000081
C60   C     C_R   0.894797 0.962781 0.063601 -0.211288
C61   C     C_R   0.877308 0.029684 0.065342 0.259960
C62   C     C_R   0.894647 0.090657 0.134775 -0.196313
C63   C     C_R   0.929878 0.085821 0.201719 -0.122336
C64   C     C_R   0.937343 0.047502 0.903677 0.779806
C65   C     C_R   0.963617 0.042217 0.846984 -0.402385
C66   C     C_R   0.851102 0.998896 0.884761 -0.031652
C67   C     C_R   0.822297 0.069795 0.526137 -0.106765
C68   C     C_R   0.905276 0.989091 0.770762 -0.189721
C69   C     C_R   0.818381 0.945611 0.751114 0.766418
C70   C     C_R   0.792031 0.948886 0.808236 -0.420088
C71   C     C_R   0.969306 0.945216 0.281074 -0.273656
C72   C     C_R   0.988214 0.018177 0.272189 -0.125320
H1    H     H_    0.939925 0.778443 0.574323 0.193674
H2    H     H_    0.002848 0.120044 0.746524 0.124103
H3    H     H_    0.278497 0.142996 0.517264 0.127654
H4    H     H_    0.142266 0.190294 0.763359 0.157856
H5    H     H_    0.987575 0.508741 0.609499 0.177437
H6    H     H_    0.197347 0.414998 0.581388 0.152856
H7    H     H_    0.707498 0.864851 0.418920 0.116816
H8    H     H_    0.232197 0.562557 0.613988 0.149336
H9    H     H_    0.078367 0.664601 0.456709 0.237182
H10   H     H_    0.099873 0.675437 0.704958 0.200589
H11   H     H_    0.448722 0.893564 0.371102 0.132344
H12   H     H_    0.730470 0.130055 0.453916 0.149961
H13   H     H_    0.605035 0.148132 0.417641 0.139861
H14   H     H_    0.531274 0.128851 0.517414 0.171624
H15   H     H_    0.871321 0.759082 0.250481 0.151984
H16   H     H_    0.236450 0.944464 0.313896 0.145529
H17   H     H_    0.354907 0.949709 0.283858 0.133589
H18   H     H_    0.692705 0.464241 0.102818 0.177345
H19   H     H_    0.534361 0.366107 0.871722 0.143636
H20   H     H_    0.406911 0.297141 0.752876 0.160472
H21   H     H_    0.607407 0.643109 0.259528 0.157730
H22   H     H_    0.385400 0.260927 0.975726 0.180152
H23   H     H_    0.030543 0.077477 0.862853 0.221669
H24   H     H_    0.883858 0.143794 0.137347 0.145001
H25   H     H_    0.941402 0.133253 0.254635 0.177059
H26   H     H_    0.886288 0.917729 0.010761 0.143284
H27   H     H_    0.725914 0.910636 0.793026 0.196337
H28   H     H_    0.726770 0.746363 0.375628 0.098445
H29   H     H_    0.126534 0.269237 0.490652 0.203873
H30   H     H_    0.837380 0.135320 0.549995 0.175488
H31   H     H_    0.927206 0.881066 0.237244 0.154223
H32   H     H_    0.290801 0.198278 0.638640 0.131198
N1    N     N_R   0.051550 0.054780 0.395070 -0.108039
N2    N     N_R   0.954870 0.835940 0.500080 -0.089404
N3    N     N_R   0.121370 0.958420 0.460190 -0.062327
N4    N     N_R   0.991220 0.032000 0.644820 -0.054027
N5    N     N_R   0.948450 0.945220 0.604930 -0.066987
N6    N     N_R   0.164140 0.045200 0.500080 -0.069373
N7    N     N_R   0.110060 0.150840 0.644820 -0.058687
N8    N     N_R   0.002520 0.839580 0.460190 -0.112517
N9    N     N_2   0.540323 0.380906 0.003420 -0.075104
N10   N     N_2   0.522354 0.396796 0.057981 -0.074368
N11   N     N_2   0.865968 0.048314 0.002879 -0.023847
N12   N     N_R   0.835860 0.954800 0.499920 -0.051782
N13   N     N_2   0.828337 0.983748 0.940630 -0.067651
N14   N     N_R   0.889940 0.849160 0.355180 -0.052431
N15   N     N_R   0.997480 0.160420 0.539810 -0.129629
N16   N     N_R   0.842280 0.845520 0.395070 -0.046014
N17   N     N_R   0.045130 0.164060 0.499920 -0.088216
N18   N     N_R   0.878630 0.041580 0.539810 -0.043219
N19   N     N_R   0.008780 0.968000 0.355180 -0.085433
N20   N     N_R   0.157720 0.154480 0.604930 -0.053425
Ni1   Ni    Ni4+2 0.103690 0.103690 0.500000 0.219312
Ni2   Ni    Ni4+2 0.896310 0.896310 0.500000 0.210927
Ni3   Ni    Ni4+2 0.005600 0.904650 0.408510 0.221573
Ni4   Ni    Ni4+2 0.994400 0.095350 0.591490 0.267422
F1    F     F_    0.077651 0.168534 0.361533 -0.731335
C73   C     C_R   0.144681 0.855813 0.367072 0.165981
C74   C     C_R   0.061789 0.807667 0.308252 -0.131262
C75   C     C_R   0.035906 0.728585 0.250902 -0.066343
C76   C     C_R   0.092776 0.696826 0.251497 -0.099161
C77   C     C_R   0.175343 0.743714 0.310028 -0.113862
C78   C     C_R   0.201064 0.822419 0.367885 -0.029253
H33   H     H_    0.017215 0.830958 0.306579 0.110382
H34   H     H_    0.971807 0.692112 0.205713 0.167664
H35   H     H_    0.072743 0.635756 0.206824 0.122505
H36   H     H_    0.219247 0.718795 0.310959 0.121295
H37   H     H_    0.264662 0.856855 0.413843 0.119474
C79   C     C_R   0.848902 0.828307 0.619583 0.142250
C80   C     C_R   0.851821 0.790356 0.668516 -0.086426
C81   C     C_R   0.791970 0.706508 0.642338 -0.086123
C82   C     C_R   0.729165 0.659746 0.567111 -0.085322
C83   C     C_R   0.725958 0.696903 0.518092 -0.138426
C84   C     C_R   0.785201 0.780955 0.544345 -0.090766
H38   H     H_    0.900982 0.825301 0.726599 0.127600
H39   H     H_    0.794639 0.677621 0.680247 0.119133
H40   H     H_    0.683099 0.594721 0.546782 0.113936
H41   H     H_    0.677531 0.660621 0.459740 0.111197
H42   H     H_    0.781057 0.809085 0.506276 0.109324
F2    F     F_    0.106781 0.795755 0.455364 -0.734808
F3    F     F_    0.933774 0.350651 0.568818 -0.678669
F4    F     F_    0.128976 0.566357 0.490037 -0.687222
F5    F     F_    0.054326 0.780368 0.673894 -0.703935
C85   C     C_R   0.567956 0.854857 0.418600 0.075514
C86   C     C_R   0.523499 0.777392 0.352412 -0.165813
C87   C     C_R   0.508634 0.702212 0.357650 -0.123788
C88   C     C_R   0.537336 0.703707 0.428843 -0.136982
C89   C     C_R   0.580992 0.780504 0.495022 -0.056570
C90   C     C_R   0.595951 0.855939 0.490096 -0.109348
H43   H     H_    0.500810 0.775394 0.296897 0.122734
H44   H     H_    0.474546 0.642847 0.306466 0.130230
H45   H     H_    0.525592 0.645337 0.432718 0.114961
H46   H     H_    0.603063 0.781499 0.550104 0.175032
H47   H     H_    0.629466 0.915053 0.541714 0.152489
F6    F     F_    0.417722 0.125739 0.564137 -0.709863
F7    F     F_    0.815206 0.611623 0.202225 -0.740942
C91   C     C_R   0.477788 0.489210 0.163284 0.160848
C92   C     C_R   0.461423 0.484116 0.224451 -0.183370
C93   C     C_R   0.378643 0.454612 0.216950 -0.118797
C94   C     C_R   0.311768 0.430338 0.148537 -0.057042
C95   C     C_R   0.327586 0.435748 0.087565 -0.099568
C96   C     C_R   0.410278 0.465327 0.094851 -0.151780
H48   H     H_    0.512719 0.502843 0.277819 0.120466
H49   H     H_    0.366395 0.450763 0.264255 0.128371
H50   H     H_    0.247739 0.407565 0.142842 0.127305
H51   H     H_    0.275799 0.417274 0.034715 0.128339
H52   H     H_    0.421682 0.470146 0.047420 0.121845
F8    F     F_    0.979888 0.259712 0.626589 -0.687633
F9    F     F_    0.242879 0.177274 0.855396 -0.711380
F10   F     F_    0.997649 0.093915 0.977087 -0.682122
F11   F     F_    0.759170 0.900733 0.677427 -0.727858
C97   C     C_R   0.963433 0.895601 0.124518 0.126473
C98   C     C_R   0.050256 0.921140 0.161077 -0.107397
C99   C     C_R   0.078160 0.860913 0.152239 -0.117141
C100  C     C_R   0.019806 0.775021 0.107130 -0.092845
C101  C     C_R   0.933351 0.749082 0.071015 -0.096761
C102  C     C_R   0.905176 0.809080 0.079190 -0.183057
H53   H     H_    0.096249 0.987586 0.195495 0.127418
H54   H     H_    0.145068 0.880776 0.179764 0.111213
H55   H     H_    0.041579 0.728531 0.100339 0.111980
H56   H     H_    0.888211 0.682495 0.036301 0.125036
H57   H     H_    0.838072 0.788237 0.050377 0.122147

loop_
_geom_bond_atom_site_label_1
_geom_bond_atom_site_label_2
_ccdc_geom_bond_type
C94   H50   S    
C93   C94   A    
C86   C87   A    
C62   H24   S    
C41   C42   A    
C54   C55   A    
C3    C23   A    
C35   C36   A    
C55   H21   S    
C2    C12   A    
C23   N14   A    
C83   C84   A    
C98   H53   S    
N2    N8    A    
C95   C96   A    
C97   C98   A    
C5    N20   A    
C26   C27   A    
C29   C30   A    
N12   N18   A    
C38   H14   S    
C18   C24   A    
C46   F9    S    
C71   N19   A    
C28   C29   A    
C56   H29   S    
C13   N8    A    
C60   H26   S    
C11   H4    S    
C51   H18   S    
C38   C39   A    
C3    C54   S    
N16   Ni2   S    
C92   C93   A    
C44   C50   A    
C81   C82   A    
C12   H7    S    
C25   C30   A    
C31   H11   S    
N4    N5    A    
N1    N19   A    
C18   C19   A    
C91   C92   A    
N14   N16   A    
C99   H54   S    
C7    C73   S    
C33   C35   A    
C6    C15   A    
C32   C85   S    
C83   H41   S    
C34   F8    S    
C102  H57   S    
C88   C89   A    
C44   C46   A    
C68   C69   A    
N8    Ni3   S    
C66   N13   S    
C21   H6    S    
C61   N11   S    
C28   F5    S    
C91   C96   A    
C84   H42   S    
C90   H47   S    
C64   F10   S    
N15   Ni4   S    
C61   C62   A    
N7    N20   A    
C5    H32   S    
C59   C60   A    
C23   H15   S    
C21   C22   A    
C4    C56   A    
N18   Ni4   S    
C59   C97   S    
C49   H19   S    
C8    N4    A    
C52   C54   A    
C57   C91   S    
C92   H48   S    
N15   N17   A    
C9    N5    A    
C78   H37   S    
C4    C34   A    
C1    C72   A    
C11   N7    A    
C51   C52   A    
C2    C67   A    
C77   H36   S    
C53   C57   A    
C75   C76   A    
N11   N13   D    
C25   C26   A    
C3    C45   A    
C53   N10   S    
C31   C37   A    
C60   C61   A    
C51   C53   A    
C64   C66   A    
C37   C43   S    
N17   Ni1   S    
C82   H40   S    
C10   H3    S    
C15   C27   S    
C47   C48   A    
C65   H23   S    
C65   C68   A    
C38   C43   A    
C62   C63   A    
C8    H2    S    
C6    N2    A    
C89   H46   S    
N4    Ni4   S    
C48   N9    S    
C5    C14   A    
C87   H44   S    
C16   C40   S    
C79   C84   A    
C45   N16   A    
C50   H20   S    
C40   C41   A    
C73   C78   A    
C69   F11   S    
C101  H56   S    
C74   H33   S    
C26   H9    S    
C13   C15   A    
C87   C88   A    
C19   F3    S    
N3    N6    A    
C7    N3    A    
C42   C43   A    
C74   C75   A    
C67   N18   A    
N19   Ni3   S    
C39   C40   A    
C70   H27   S    
C2    C33   S    
C6    H1    S    
C14   C44   S    
N9    N10   D    
C9    C17   A    
C34   N15   A    
C41   H16   S    
C71   H31   S    
C46   C47   A    
C85   C86   A    
C17   C68   S    
C9    C79   S    
C25   F4    S    
C80   C81   A    
C80   H38   S    
C31   C32   A    
C7    C16   A    
C58   C63   A    
C13   F2    S    
C82   C83   A    
C45   H28   S    
C85   C90   A    
C35   H12   S    
C77   C78   A    
C36   H13   S    
N12   Ni2   S    
C36   C37   A    
C93   H49   S    
N2    Ni2   S    
C1    F1    S    
C8    C17   A    
N1    Ni1   S    
C42   H17   S    
C56   N17   A    
C19   C20   A    
C55   C57   A    
C73   C74   A    
C58   C59   A    
C22   H8    S    
C29   H10   S    
C63   H25   S    
C10   C16   A    
C79   C80   A    
C32   C33   A    
C58   C72   S    
C98   C99   A    
C76   C77   A    
C95   H51   S    
C18   H5    S    
C48   C49   A    
C86   H43   S    
C64   C65   A    
C11   C14   A    
C47   H22   S    
C100  H55   S    
C10   N6    A    
C22   C24   A    
C39   F6    S    
C69   C70   A    
C89   C90   A    
C24   C30   S    
C81   H39   S    
N6    Ni1   S    
N3    Ni3   S    
C94   C95   A    
C4    C20   S    
N5    Ni2   S    
C76   H35   S    
C71   C72   A    
C66   C70   A    
C20   C21   A    
C49   C50   A    
N14   Ni3   S    
N7    Ni4   S    
C88   H45   S    
C101  C102  A    
C100  C101  A    
C75   H34   S    
C12   N12   A    
C99   C100  A    
C96   H52   S    
C97   C102  A    
C52   F7    S    
C67   H30   S    
C1    N1    A    
N20   Ni1   S    
C27   C28   A    
