data_mof_unit_57462.cif
_audit_creation_date              2012-12-10T20:42:41-0500
_audit_creation_method            fapswitch 2.2
_symmetry_space_group_name_H-M    P1
_symmetry_Int_Tables_number       1
_space_group_crystal_system       triclinic
_cell_length_a                    8.901105
_cell_length_b                    10.686423
_cell_length_c                    9.892061
_cell_angle_alpha                 90.234222
_cell_angle_beta                  89.73243
_cell_angle_gamma                 90.051376
_cell_volume                      940.923984472

loop_
_atom_site_label
_atom_site_type_symbol
_atom_type_description
_atom_site_fract_x
_atom_site_fract_y
_atom_site_fract_z
_atom_type_partial_charge
C1    C     C_R   0.496861 0.260181 0.499999 0.868926
C2    C     C_R   0.432603 0.934569 0.386296 -0.201454
C3    C     C_R   0.482633 0.871462 0.501633 -0.120485
C4    C     C_R   0.508499 0.936886 0.621106 -0.022794
C5    C     C_3   0.637501 0.933513 0.720576 0.723886
C6    C     C_3   0.632051 0.076573 0.720187 -0.512180
C7    C     C_R   0.377118 0.459560 0.071313 0.130255
C8    C     C_R   0.615170 0.552972 0.071881 0.532975
C9    C     C_R   0.615456 0.551170 0.927429 -0.204786
C10   C     C_R   0.376904 0.460016 0.929119 0.200876
C11   C     C_3   0.307463 0.333265 0.922432 -0.484741
C12   C     C_R   0.218792 0.500139 0.500185 0.924202
C13   C     C_3   0.308878 0.332231 0.075974 -0.490330
C14   C     C_R   0.497518 0.739774 0.500186 0.845345
C15   C     C_R   0.781194 0.500353 0.499826 0.926642
C16   C     C_1   0.065416 0.500423 0.500293 -0.199100
C17   C     C_1   0.934556 0.500516 0.499738 -0.187594
C18   C     C_R   0.505676 0.064452 0.621556 -0.007707
C19   C     C_R   0.479546 0.128548 0.501876 -0.052508
C20   C     C_R   0.431250 0.064001 0.386408 -0.214777
H1    H     H_    0.399893 0.112636 0.295150 0.154056
H2    H     H_    0.383127 0.262267 0.876074 0.209375
H3    H     H_    0.194597 0.333232 0.121731 0.214146
H4    H     H_    0.386724 0.261371 0.118050 0.203945
H5    H     H_    0.401714 0.884796 0.294898 0.155352
H6    H     H_    0.595466 0.118757 0.817679 0.192653
H7    H     H_    0.731669 0.122817 0.673900 0.181774
H8    H     H_    0.710629 0.588428 0.872358 0.180885
H9    H     H_    0.192319 0.336020 0.879543 0.205606
N1    N     N_R   0.499010 0.499140 0.142800 -0.152151
N2    N     N_R   0.499010 0.499180 0.857150 -0.132693
O1    O     O_R   0.500020 0.316790 0.614690 -0.614983
O2    O     O_R   0.500000 0.316760 0.385350 -0.628415
O3    O     O_R   0.285350 0.500020 0.614650 -0.616384
O4    O     O_R   0.285340 0.499980 0.385310 -0.612879
O5    O     O_R   0.500000 0.683240 0.614650 -0.616918
O6    O     O_R   0.499980 0.683210 0.385310 -0.617931
O7    O     O_R   0.714660 0.500020 0.614690 -0.629783
O8    O     O_R   0.714650 0.499980 0.385350 -0.545807
Zn1   Zn    Zn3+2 0.500010 0.500020 0.653130 0.943957
Zn2   Zn    Zn3+2 0.499990 0.499980 0.346870 0.977168
O9    O     O_3   0.609712 0.878673 0.849964 -0.615448
C21   C     C_3   0.457160 0.880546 0.890839 -0.345705
H10   H     H_    0.389620 0.814366 0.829103 0.194605
H11   H     H_    0.408575 0.976185 0.887169 0.160883
H12   H     H_    0.449822 0.848658 0.997148 0.169710
N3    N     N_2   0.775251 0.885101 0.659833 -0.319141
H13   H     H_    0.765354 0.795270 0.622706 0.215578
C22   C     C_3   0.911104 0.901003 0.738110 -0.768553
H14   H     H_    0.009701 0.873844 0.675418 0.230182
H15   H     H_    0.907836 0.840319 0.828845 0.248744
H16   H     H_    0.925771 0.999971 0.769828 0.239772
O10   O     O_3   0.738811 0.596834 0.141211 -0.585932
C23   C     C_3   0.746021 0.728015 0.129468 -0.261538
H17   H     H_    0.833315 0.763385 0.199603 0.180688
H18   H     H_    0.638093 0.773404 0.158749 0.167207
H19   H     H_    0.779906 0.755727 0.025780 0.183322

loop_
_geom_bond_atom_site_label_1
_geom_bond_atom_site_label_2
_ccdc_geom_bond_type
C8    O10   S    
C7    C10   A    
C5    O9    S    
N1    Zn2   S    
O6    Zn2   S    
C21   H11   S    
C11   H2    S    
C19   C20   A    
C7    C13   S    
C21   H10   S    
C22   H16   S    
O2    Zn2   S    
C2    C3    A    
C9    H8    S    
C8    N1    A    
N3    C22   S    
C7    N1    A    
O10   C23   S    
N2    Zn1   S    
C14   O6    A    
O7    Zn1   S    
C11   C13   S    
C15   O8    A    
C6    H6    S    
C3    C14   S    
C15   O7    A    
O3    Zn1   S    
C4    C5    S    
C10   N2    A    
C5    N3    S    
C13   H3    S    
C18   C19   A    
C2    H5    S    
O1    Zn1   S    
C14   O5    A    
C5    C6    S    
O4    Zn2   S    
C21   H12   S    
C23   H18   S    
C6    C18   S    
C1    C19   S    
O9    C21   S    
C9    N2    A    
C1    O2    A    
C3    C4    A    
N3    H13   S    
C12   C16   S    
O5    Zn1   S    
C20   H1    S    
C11   H9    S    
C12   O4    A    
O8    Zn2   S    
C22   H14   S    
C10   C11   S    
C15   C17   S    
C23   H17   S    
C16   C17   T    
C12   O3    A    
C2    C20   A    
C4    C18   A    
C1    O1    A    
C6    H7    S    
C13   H4    S    
C8    C9    A    
C22   H15   S    
C23   H19   S    
