data_mof_unit_44813.cif
_audit_creation_date              2013-03-05T16:50:07-0500
_audit_creation_method            fapswitch 2.2
_symmetry_space_group_name_H-M    P1
_symmetry_Int_Tables_number       1
_space_group_crystal_system       triclinic
_cell_length_a                    27.800685
_cell_length_b                    10.786673
_cell_length_c                    26.476071
_cell_angle_alpha                 90.061047
_cell_angle_beta                  89.886171
_cell_angle_gamma                 90.343413
_cell_volume                      7939.39936401

loop_
_atom_site_label
_atom_site_type_symbol
_atom_site_description
_atom_site_fract_x
_atom_site_fract_y
_atom_site_fract_z
_atom_type_partial_charge
O1    O     O_R   0.500000 0.319660 0.542350 -0.589053
O2    O     O_R   0.500000 0.680340 0.457650 -0.588792
O3    O     O_R   0.500000 0.319630 0.457650 -0.572186
O4    O     O_R   0.500000 0.680370 0.542350 -0.573681
C1    C     C_R   0.498638 0.262096 0.499966 0.800047
C2    C     C_R   0.501113 0.737933 0.500040 0.797269
O5    O     O_R   0.430260 0.500030 0.542340 -0.589011
O6    O     O_R   0.569740 0.499970 0.457660 -0.588376
O7    O     O_R   0.430270 0.500010 0.457650 -0.585063
O8    O     O_R   0.569730 0.499990 0.542350 -0.586255
C3    C     C_R   0.407389 0.501413 0.499994 0.819878
C4    C     C_R   0.592621 0.500328 0.499975 0.820953
Cu1   Cu    Cu3+1 0.500000 0.500020 0.550150 0.948991
Cu2   Cu    Cu3+1 0.500000 0.499980 0.449850 0.949049
O9    O     O_2   0.520926 0.713095 0.786433 -0.576271
O10   O     O_2   0.478371 0.286342 0.213752 -0.572450
C5    C     C_R   0.519471 0.719129 0.056080 -0.207352
C6    C     C_R   0.479933 0.280076 0.943990 -0.207081
H1    H     H_    0.445249 0.635375 0.630407 0.131192
H2    H     H_    0.555094 0.365565 0.369495 0.129403
C7    C     C_R   0.178471 0.415720 0.500650 0.557524
C8    C     C_R   0.820958 0.623450 0.505552 0.619766
O11   O     O_2   0.203785 0.309409 0.499452 -0.514071
O12   O     O_2   0.794633 0.727545 0.510209 -0.490748
N1    N     N_R   0.202482 0.526351 0.498780 -0.459793
N2    N     N_R   0.797764 0.512064 0.501507 -0.464393
C9    C     C_R   0.178578 0.636467 0.497517 0.618901
C10   C     C_R   0.822296 0.403430 0.497550 0.538331
C11   C     C_R   0.280169 0.561234 0.455543 0.521371
C12   C     C_R   0.721323 0.542875 0.456629 0.507801
C13   C     C_R   0.330676 0.547560 0.455913 -0.370737
C14   C     C_R   0.670818 0.541771 0.456996 -0.320795
C15   C     C_R   0.328168 0.480306 0.543225 -0.219104
C16   C     C_R   0.670824 0.465151 0.543097 -0.244406
C17   C     C_R   0.278262 0.487309 0.542603 -0.196605
C18   C     C_R   0.720882 0.468986 0.543434 -0.191053
C19   C     C_R   0.254167 0.526054 0.499004 0.284065
C20   C     C_R   0.746190 0.508872 0.500633 0.273514
C21   C     C_R   0.102209 0.525056 0.499469 -0.184325
C22   C     C_R   0.897946 0.517964 0.499814 -0.186139
C23   C     C_R   0.127873 0.412481 0.503104 -0.095152
C24   C     C_R   0.871737 0.629347 0.505178 -0.094773
C25   C     C_R   0.102411 0.300418 0.509871 0.475582
C26   C     C_R   0.896663 0.742850 0.510477 0.469205
C27   C     C_R   0.127812 0.638558 0.496170 -0.088888
C28   C     C_R   0.872898 0.403873 0.495068 -0.082994
C29   C     C_R   0.354657 0.508934 0.499731 -0.090338
C30   C     C_R   0.645436 0.501782 0.499935 -0.094186
H3    H     H_    0.345963 0.450304 0.577414 0.168668
H4    H     H_    0.651968 0.434016 0.576650 0.161506
H5    H     H_    0.258027 0.461892 0.576062 0.151653
H6    H     H_    0.740149 0.441418 0.577065 0.156470
C31   C     C_R   0.974926 0.407721 0.496132 0.028931
C32   C     C_R   0.025374 0.637155 0.498158 0.031335
C33   C     C_R   0.974139 0.635283 0.501489 0.029843
C34   C     C_R   0.025844 0.409299 0.500185 0.026731
C35   C     C_R   0.949128 0.520423 0.499170 0.061138
C36   C     C_R   0.051013 0.523925 0.499261 0.062352
C37   C     C_R   0.948966 0.296566 0.488311 -0.328845
C38   C     C_R   0.051937 0.748697 0.493588 -0.327580
C39   C     C_R   0.898836 0.294134 0.486527 0.460175
C40   C     C_R   0.102298 0.750364 0.491033 0.466427
H7    H     H_    0.527574 0.807666 0.039364 0.135947
H8    H     H_    0.471895 0.191501 0.960708 0.135951
H9    H     H_    0.444339 0.638040 0.723830 0.154097
H10   H     H_    0.555668 0.362496 0.276060 0.151612
O13   O     O_2   0.797454 0.295631 0.496018 -0.526454
O14   O     O_2   0.204125 0.743133 0.498091 -0.509501
C41   C     C_R   0.052385 0.299383 0.506454 -0.324453
C42   C     C_R   0.946998 0.744710 0.507250 -0.321183
H11   H     H_    0.651480 0.574647 0.424207 0.163744
H12   H     H_    0.351854 0.567358 0.422670 0.155542
H13   H     H_    0.966596 0.209368 0.481894 0.136470
H14   H     H_    0.034739 0.837303 0.490853 0.131137
H15   H     H_    0.035312 0.210144 0.510884 0.138162
H16   H     H_    0.963792 0.834267 0.510133 0.130566
H17   H     H_    0.366472 0.281341 0.319512 0.135505
H18   H     H_    0.627517 0.715263 0.683910 0.135216
C43   C     C_R   0.375926 0.249573 0.399135 -0.126366
C44   C     C_R   0.621152 0.749845 0.604122 -0.115198
H19   H     H_    0.345018 0.304075 0.409925 0.148237
H20   H     H_    0.652471 0.695794 0.594361 0.144336
C45   C     C_R   0.403737 0.192139 0.436204 -0.111199
C46   C     C_R   0.594751 0.808426 0.566214 -0.099761
H21   H     H_    0.394083 0.203156 0.475604 0.111246
H22   H     H_    0.605810 0.798488 0.527171 0.112168
C47   C     C_R   0.443883 0.121018 0.422384 0.116093
C48   C     C_R   0.554087 0.878969 0.578751 0.113546
C49   C     C_R   0.455346 0.106905 0.371017 -0.153707
C50   C     C_R   0.540647 0.891315 0.629658 -0.154912
H23   H     H_    0.486084 0.052227 0.359662 0.139916
H24   H     H_    0.509422 0.945368 0.639996 0.140157
C51   C     C_R   0.427538 0.164949 0.334099 -0.107403
C52   C     C_R   0.567055 0.832160 0.667392 -0.108704
H25   H     H_    0.436688 0.154441 0.294598 0.183646
H26   H     H_    0.556422 0.841494 0.706514 0.189141
C53   C     C_R   0.387941 0.236464 0.348144 -0.114964
C54   C     C_R   0.607166 0.761121 0.654637 -0.115466
C55   C     C_R   0.476905 0.932700 0.461751 -0.231132
C56   C     C_R   0.522374 0.067313 0.538402 -0.229326
H27   H     H_    0.458115 0.879901 0.432899 0.149630
H28   H     H_    0.541031 0.120000 0.567378 0.151269
C57   C     C_R   0.501974 0.871737 0.500063 -0.077007
C58   C     C_R   0.497455 0.128310 0.500016 -0.078576
C59   C     C_R   0.525289 0.939084 0.538706 0.002178
C60   C     C_R   0.473785 0.060988 0.461587 0.003538
H29   H     H_    0.527863 0.804560 0.872463 0.183680
H30   H     H_    0.471281 0.194831 0.127662 0.183411
H31   H     H_    0.527768 0.808199 0.961724 0.135877
H32   H     H_    0.471329 0.191182 0.038374 0.135892
C61   C     C_R   0.509103 0.605874 0.188467 0.535610
C62   C     C_R   0.490365 0.393421 0.811585 0.537279
O15   O     O_2   0.519637 0.710293 0.214389 -0.547366
O16   O     O_2   0.479894 0.288991 0.785645 -0.546515
N3    N     N_R   0.498966 0.498322 0.214122 -0.450330
N4    N     N_R   0.500491 0.501027 0.785945 -0.449812
C63   C     C_R   0.488949 0.391097 0.188146 0.533666
C64   C     C_R   0.510395 0.608248 0.811973 0.534341
C65   C     C_R   0.530801 0.422171 0.295922 -0.237968
C66   C     C_R   0.469118 0.577991 0.704036 -0.236804
C67   C     C_R   0.530646 0.424364 0.348865 0.053477
C68   C     C_R   0.469472 0.576063 0.651085 0.055452
C69   C     C_R   0.468613 0.573921 0.349232 0.051190
C70   C     C_R   0.531080 0.425398 0.650847 0.051025
C71   C     C_R   0.467502 0.574251 0.296307 -0.237643
C72   C     C_R   0.531995 0.424803 0.703788 -0.236283
C73   C     C_R   0.499006 0.498012 0.268958 0.362834
C74   C     C_R   0.500595 0.501441 0.731089 0.359423
C75   C     C_R   0.499236 0.498986 0.107816 -0.043272
C76   C     C_R   0.500099 0.500276 0.892271 -0.043474
C77   C     C_R   0.509197 0.608193 0.135111 -0.025784
C78   C     C_R   0.490213 0.391062 0.864954 -0.026065
C79   C     C_R   0.519236 0.717387 0.108673 -0.151331
C80   C     C_R   0.480209 0.281827 0.891388 -0.150491
C81   C     C_R   0.489104 0.389452 0.134775 -0.020918
C82   C     C_R   0.510186 0.609848 0.865333 -0.019984
N5    N     N_R   0.500000 0.499970 0.374520 -0.165208
N6    N     N_R   0.500000 0.500030 0.625480 -0.166460
H33   H     H_    0.444275 0.632783 0.370144 0.117652
H34   H     H_    0.555307 0.366146 0.629986 0.121040
H35   H     H_    0.442263 0.633198 0.276756 0.146554
H36   H     H_    0.557012 0.365334 0.723390 0.149704
H37   H     H_    0.527013 0.802930 0.128614 0.184840
H38   H     H_    0.472500 0.196259 0.871437 0.184923
C83   C     C_R   0.509904 0.611433 0.973214 0.040902
C84   C     C_R   0.489368 0.387831 0.026877 0.040837
C85   C     C_R   0.489620 0.388134 0.972847 0.040934
C86   C     C_R   0.509702 0.611102 0.027237 0.041028
C87   C     C_R   0.499875 0.499942 0.946347 0.068633
C88   C     C_R   0.499432 0.499307 0.053741 0.068519
C89   C     C_R   0.519845 0.719835 0.944722 -0.207966
C90   C     C_R   0.479344 0.279489 0.055381 -0.207755
C91   C     C_R   0.519990 0.718741 0.892125 -0.152157
C92   C     C_R   0.479210 0.280599 0.107988 -0.152721
O17   O     O_3   0.126398 0.189384 0.516562 -0.584129
C93   C     C_3   0.119746 0.144882 0.566454 0.067094
H39   H     H_    0.122448 0.042226 0.565191 0.200781
H40   H     H_    0.083615 0.165790 0.582615 0.109600
C94   C     C_3   0.159263 0.195090 0.601300 -0.312553
H41   H     H_    0.195069 0.169562 0.585861 0.259614
H42   H     H_    0.157080 0.297818 0.603238 0.204083
C95   C     C_3   0.154309 0.142544 0.654542 -0.925848
H43   H     H_    0.119076 0.168762 0.671147 0.255631
H44   H     H_    0.183424 0.180532 0.678795 0.261886
H45   H     H_    0.157252 0.039896 0.653773 0.263858
O18   O     O_3   0.871060 0.852797 0.514175 -0.579965
C96   C     C_3   0.887175 0.927237 0.554864 0.053713
H46   H     H_    0.915369 0.992355 0.540898 0.160756
H47   H     H_    0.901977 0.871490 0.586718 0.114998
C97   C     C_3   0.844702 0.001941 0.575086 -0.232730
H48   H     H_    0.826012 0.048586 0.543373 0.284386
H49   H     H_    0.818578 0.937954 0.593539 0.212885
C98   C     C_3   0.861060 0.099725 0.613154 -0.909824
H50   H     H_    0.879464 0.055107 0.645536 0.244242
H51   H     H_    0.829310 0.150909 0.627545 0.260326
H52   H     H_    0.886008 0.167043 0.594914 0.269005
O19   O     O_3   0.746898 0.589668 0.415809 -0.599639
C99   C     C_3   0.741069 0.513049 0.372754 0.037110
H53   H     H_    0.750043 0.570260 0.339127 0.181706
H54   H     H_    0.703431 0.479923 0.367205 0.125548
C100  C     C_3   0.775570 0.402778 0.374535 -0.355728
H55   H     H_    0.812678 0.436422 0.382456 0.229889
H56   H     H_    0.764328 0.338841 0.405226 0.240024
C101  C     C_3   0.775493 0.331270 0.324799 -0.914541
H57   H     H_    0.738869 0.294822 0.316626 0.260738
H58   H     H_    0.800642 0.252038 0.327429 0.259371
H59   H     H_    0.787387 0.392266 0.293333 0.257939
O20   O     O_3   0.253985 0.600507 0.413582 -0.609143
C102  C     C_3   0.278311 0.687779 0.382441 0.054383
H60   H     H_    0.253470 0.710585 0.351024 0.171382
H61   H     H_    0.310269 0.647078 0.363693 0.122277
C103  C     C_3   0.290274 0.809859 0.410130 -0.350100
H62   H     H_    0.256729 0.850272 0.425611 0.258196
H63   H     H_    0.315202 0.793158 0.442059 0.220441
C104  C     C_3   0.313855 0.903650 0.374610 -0.915927
H64   H     H_    0.348089 0.866190 0.359378 0.254414
H65   H     H_    0.321915 0.990499 0.395593 0.273259
H66   H     H_    0.289349 0.925756 0.342827 0.256242
O21   O     O_3   0.874948 0.182659 0.478739 -0.581703
C105  C     C_3   0.884286 0.137472 0.429541 0.055089
H67   H     H_    0.917337 0.079857 0.430245 0.141914
H68   H     H_    0.888980 0.213542 0.401275 0.123855
C106  C     C_3   0.841792 0.057024 0.412695 -0.260589
H69   H     H_    0.834480 0.984240 0.441356 0.280616
H70   H     H_    0.809193 0.115634 0.409447 0.229710
C107  C     C_3   0.851712 0.994964 0.361953 -0.927368
H71   H     H_    0.859035 0.065870 0.332486 0.247275
H72   H     H_    0.819831 0.939327 0.350429 0.271373
H73   H     H_    0.883129 0.932246 0.365005 0.262516
O22   O     O_3   0.127218 0.862037 0.486952 -0.573844
C108  C     C_3   0.111384 0.932304 0.445079 0.062009
H74   H     H_    0.083916 0.999591 0.458269 0.158512
H75   H     H_    0.095539 0.874029 0.414343 0.113575
C109  C     C_3   0.154307 0.002944 0.422839 -0.239049
H76   H     H_    0.174721 0.049961 0.453463 0.287842
H77   H     H_    0.178749 0.936131 0.403988 0.199530
C110  C     C_3   0.138279 0.099566 0.384440 -0.896545
H78   H     H_    0.118309 0.054373 0.353060 0.241343
H79   H     H_    0.170331 0.147732 0.368615 0.263026
H80   H     H_    0.114852 0.169534 0.402821 0.271541

loop_
_geom_bond_atom_site_label_1
_geom_bond_atom_site_label_2
_geom_bond_distance
_ccdc_geom_bond_type
C45   C47   1.405729 A    
C106  H69   1.110077 S    
H1    C68   1.081629 S    
C48   C59   1.482094 S    
C23   C25   1.408547 A    
C3    C29   1.468751 S    
C4    C30   1.468295 S    
C39   O21   1.385599 S    
C62   O16   1.349273 S    
C99   H53   1.110936 S    
C31   C37   1.411031 A    
C96   H47   1.116976 S    
O9    C64   1.348653 S    
C32   C38   1.413114 A    
C100  H55   1.111796 S    
C110  H80   1.111060 S    
C22   C28   1.415970 A    
C106  H70   1.111612 S    
C10   C28   1.408139 A    
C56   C59   1.386055 A    
C81   C92   1.397296 A    
O1    C1    1.282436 A    
C70   N6    1.362910 A    
C93   H39   1.110779 S    
C17   C19   1.401173 A    
C46   H22   1.083259 S    
C95   H43   1.110879 S    
H32   C90   1.075482 S    
O22   C108  1.415992 S    
C109  H77   1.110844 S    
C69   C71   1.401654 A    
C97   H48   1.110804 S    
C52   C54   1.397444 A    
C15   H3    1.083119 S    
C69   H33   1.081855 S    
C27   C40   1.409631 A    
C56   C58   1.398348 A    
N3    C73   1.451847 S    
C101  H57   1.110828 S    
C12   C20   1.406052 A    
C38   C40   1.401583 A    
C67   N5    1.362795 A    
O4    Cu1   1.956525 S    
C102  H61   1.109471 S    
C9    O14   1.348581 S    
N1    C19   1.436920 S    
C75   C81   1.407755 A    
C93   H40   1.115213 S    
C57   C59   1.410689 A    
C108  H74   1.112172 S    
C71   H35   1.082633 S    
C105  H67   1.112567 S    
N3    C63   1.372392 A    
H18   C54   1.082285 S    
C72   C74   1.404553 A    
C94   H42   1.111240 S    
H17   C53   1.082255 S    
C76   C78   1.407670 A    
C49   H23   1.083097 S    
C37   H13   1.076387 S    
C110  H79   1.110377 S    
C18   H6    1.082860 S    
C44   C46   1.398275 A    
C21   C27   1.415184 A    
C104  H66   1.110752 S    
C9    C27   1.412175 A    
C22   C24   1.415729 A    
C1    C58   1.443286 S    
N4    C74   1.452385 S    
O21   C105  1.414367 S    
C51   H25   1.081836 S    
C13   C29   1.404075 A    
Cu1   Cu2   2.655552 S    
C89   C91   1.392603 A    
C84   C88   1.423022 A    
C14   C30   1.403797 A    
O2    C2    1.282547 A    
C24   C26   1.410208 A    
C25   O17   1.386003 S    
C58   C60   1.411002 A    
C66   C68   1.402066 A    
C50   C52   1.397901 A    
C14   H11   1.083150 S    
C95   H44   1.110367 S    
C98   H51   1.110472 S    
C106  C107  1.525717 S    
C37   C39   1.394628 A    
C79   H37   1.083488 S    
C28   C39   1.407593 A    
C33   C42   1.412679 A    
C103  C104  1.526220 S    
C10   O13   1.349472 S    
C68   N6    1.362859 A    
C21   C23   1.415554 A    
C55   C57   1.398833 A    
C100  H56   1.109583 S    
C96   H46   1.112321 S    
C43   H19   1.081789 S    
C31   C35   1.417298 A    
C109  H76   1.110932 S    
N2    C20   1.434221 S    
O3    C1    1.281716 A    
C110  H78   1.110779 S    
C98   H50   1.110854 S    
C21   C36   1.423268 A    
C72   H36   1.082593 S    
O20   C102  1.419552 S    
C83   C89   1.417694 A    
C103  H63   1.109727 S    
C102  C103  1.541349 S    
O5    C3    1.290134 A    
O7    Cu2   1.949107 S    
C95   H45   1.110905 S    
C50   H24   1.083140 S    
C94   H41   1.111399 S    
Cu2   N5    1.994442 S    
O6    C4    1.289407 A    
C5    C86   1.417699 A    
C76   C87   1.431719 A    
C56   H28   1.085215 S    
C40   O22   1.390187 S    
C94   C95   1.525552 S    
C61   O15   1.349312 S    
C26   O18   1.390089 S    
C2    C57   1.443357 S    
C62   C78   1.413247 A    
C52   H26   1.081364 S    
O7    C3    1.288017 A    
H2    C67   1.081635 S    
H29   C91   1.083498 S    
C65   C67   1.401903 A    
O8    C4    1.288739 A    
H9    C66   1.082554 S    
N4    C64   1.372434 A    
C78   C80   1.397334 A    
C7    C23   1.408241 A    
C96   C97   1.529119 S    
C86   C88   1.423021 A    
C44   H20   1.081508 S    
C13   H12   1.078755 S    
C55   H27   1.085287 S    
C48   C50   1.404344 A    
C6    C85   1.417743 A    
H10   C65   1.082573 S    
C33   C35   1.418433 A    
C5    C79   1.392610 A    
O18   C96   1.414849 S    
C15   C29   1.399423 A    
C8    O12   1.349356 S    
O4    C2    1.281579 A    
C16   C30   1.402751 A    
C42   H16   1.073122 S    
C63   C81   1.413140 A    
C51   C53   1.397552 A    
C62   N4    1.372715 A    
C83   C86   1.430322 A    
C64   C82   1.412859 A    
C26   C42   1.401792 A    
C70   C72   1.401960 A    
C84   C85   1.430518 A    
C32   C36   1.418200 A    
C31   C34   1.419830 A    
C61   C77   1.412894 A    
C108  H75   1.117326 S    
C55   C60   1.387056 A    
C7    N1    1.364765 A    
C32   C33   1.426939 A    
O6    Cu2   1.950224 S    
C22   C35   1.423043 A    
C100  C101  1.525396 S    
C44   C54   1.397464 A    
C107  H71   1.110814 S    
C70   H34   1.081724 S    
C93   C94   1.532068 S    
C76   C82   1.407577 A    
C46   C48   1.405521 A    
C90   C92   1.392858 A    
C77   C79   1.397207 A    
O8    Cu1   1.949105 S    
C38   H14   1.073810 S    
C16   H4    1.083241 S    
C99   H54   1.113627 S    
C66   C74   1.404628 A    
C98   H52   1.111265 S    
C43   C53   1.397321 A    
O3    Cu2   1.956527 S    
N1    C9    1.364994 A    
C85   C87   1.423013 A    
C69   N5    1.362985 A    
N2    C10   1.363188 A    
C101  H58   1.109770 S    
C101  H59   1.110736 S    
C45   H21   1.083196 S    
C103  H62   1.109361 S    
C7    O11   1.349372 S    
C75   C88   1.431706 A    
C11   C13   1.412796 A    
O10   C63   1.348984 S    
Cu1   N6    1.994442 S    
C12   C14   1.404062 A    
C82   C91   1.397243 A    
C107  H73   1.111111 S    
C6    H8    1.075483 S    
C8    C24   1.412772 A    
C47   C60   1.482876 S    
C97   H49   1.111690 S    
C84   C90   1.417766 A    
C105  C106  1.528582 S    
C18   C20   1.399471 A    
C15   C17   1.390067 A    
C12   O19   1.386409 S    
C34   C36   1.417251 A    
C41   H15   1.077110 S    
C6    C80   1.392864 A    
C16   C18   1.392054 A    
C109  C110  1.525788 S    
C49   C51   1.398262 A    
C102  H60   1.110893 S    
O2    Cu2   1.956196 S    
C83   C87   1.423013 A    
C99   C100  1.533309 S    
O19   C99   1.416275 S    
C80   H38   1.083478 S    
C104  H64   1.111059 S    
C43   C45   1.398180 A    
O1    Cu1   1.956196 S    
O5    Cu1   1.950224 S    
H31   C89   1.075451 S    
H30   C92   1.083493 S    
C17   H5    1.083093 S    
C25   C41   1.393857 A    
C34   C41   1.410351 A    
C8    N2    1.364371 A    
C11   C19   1.408884 A    
O17   C93   1.417346 S    
C71   C73   1.404463 A    
C47   C49   1.404564 A    
C11   O20   1.396964 S    
C61   N3    1.372487 A    
C104  H65   1.110551 S    
C108  C109  1.529214 S    
C107  H72   1.110449 S    
C105  H68   1.118046 S    
C5    H7    1.075452 S    
C75   C77   1.407705 A    
C97   C98   1.526109 S    
C65   C73   1.404492 A    
