data_mof_unit_55696.cif
_audit_creation_date              2012-12-10T16:42:32-0500
_audit_creation_method            fapswitch 2.2
_symmetry_space_group_name_H-M    P1
_symmetry_Int_Tables_number       1
_space_group_crystal_system       triclinic
_cell_length_a                    7.527335
_cell_length_b                    8.685018
_cell_length_c                    11.002864
_cell_angle_alpha                 88.348429
_cell_angle_beta                  72.231801
_cell_angle_gamma                 103.01741
_cell_volume                      663.697627074

loop_
_atom_site_label
_atom_site_type_symbol
_atom_type_description
_atom_site_fract_x
_atom_site_fract_y
_atom_site_fract_z
_atom_type_partial_charge
C1    C     C_R   0.452073 0.199796 0.503510 0.847552
C2    C     C_R   0.548374 0.800297 0.494703 0.864821
C3    C     C_R   0.422535 0.490928 0.742649 0.843350
C4    C     C_R   0.577144 0.506409 0.257483 0.835630
C5    C     C_2   0.378920 0.482363 0.880835 -0.355947
C6    C     C_2   0.620232 0.507661 0.119640 -0.360610
C7    C     C_2   0.519944 0.490924 0.931612 -0.143803
C8    C     C_2   0.477563 0.483806 0.069346 -0.166433
C9    C     C_2   0.425433 0.031505 0.505276 -0.365837
C10   C     C_2   0.575453 0.968714 0.489797 -0.371079
Cu1   Cu    Cu3+1 0.688910 0.517800 0.485820 1.006890
Cu2   Cu    Cu3+1 0.311090 0.482200 0.514180 1.008020
H1    H     H_    0.328221 0.461348 0.129834 0.181665
H2    H     H_    0.668430 0.505418 0.871418 0.208656
H3    H     H_    0.769415 0.529150 0.058859 0.145550
H4    H     H_    0.230863 0.468741 0.941440 0.143661
H5    H     H_    0.280952 0.958915 0.520307 0.198073
H6    H     H_    0.719954 0.041379 0.473793 0.173824
N1    N     N_2   0.027170 0.455360 0.535550 0.125934
N2    N     N_2   0.972830 0.544640 0.464450 0.126557
O1    O     O_R   0.622710 0.286400 0.490790 -0.554743
O2    O     O_R   0.377290 0.713600 0.509210 -0.522498
O3    O     O_R   0.303660 0.256330 0.514730 -0.643171
O4    O     O_R   0.696340 0.743670 0.485270 -0.610100
O5    O     O_R   0.600900 0.509520 0.671740 -0.527666
O6    O     O_R   0.399100 0.490480 0.328260 -0.559764
O7    O     O_R   0.281840 0.479450 0.695690 -0.606191
O8    O     O_R   0.718160 0.520550 0.304310 -0.640689
O9    O     O_3   0.879407 0.372563 0.636041 -0.478036
C11   C     C_3   0.914890 0.226496 0.665304 0.182654
H7    H     H_    0.030987 0.243339 0.709302 0.171708
H8    H     H_    0.949357 0.162308 0.578364 0.141299
C12   C     C_3   0.734120 0.123879 0.763685 -0.877424
H9    H     H_    0.610680 0.107392 0.726175 0.258555
H10   H     H_    0.757430 0.005612 0.784993 0.212750
H11   H     H_    0.699078 0.181553 0.853893 0.250366
O10   O     O_3   0.116644 0.669042 0.397806 -0.474422
C13   C     C_3   0.092203 0.705800 0.279946 0.180816
H12   H     H_    0.969187 0.760663 0.293796 0.171520
H13   H     H_    0.074662 0.598323 0.227894 0.132975
C14   C     C_3   0.271325 0.827403 0.197190 -0.873055
H14   H     H_    0.400484 0.779743 0.182549 0.260287
H15   H     H_    0.256383 0.855495 0.102212 0.209122
H16   H     H_    0.290999 0.938343 0.244620 0.249230

loop_
_geom_bond_atom_site_label_1
_geom_bond_atom_site_label_2
_ccdc_geom_bond_type
C2    O2    A    
C4    O6    A    
Cu1   Cu2   S    
C1    O1    A    
O10   C13   S    
C9    C10   D    
N1    N2    D    
C3    O7    A    
C12   H9    S    
C1    C9    S    
C7    C8    S    
C11   H8    S    
N2    O10   S    
C14   H15   S    
Cu2   O3    S    
O9    C11   S    
Cu1   O8    S    
C10   H6    S    
Cu2   N1    S    
C9    H5    S    
C13   H13   S    
C1    O3    A    
C2    O4    A    
C11   H7    S    
C12   H10   S    
C14   H16   S    
Cu1   N2    S    
Cu1   O5    S    
Cu2   O7    S    
C2    C10   S    
C8    H1    S    
Cu2   O2    S    
Cu1   O4    S    
C3    O5    A    
C12   H11   S    
C13   H12   S    
C13   C14   S    
C4    C6    S    
C14   H14   S    
C5    C7    D    
C5    H4    S    
C6    C8    D    
C11   C12   S    
C4    O8    A    
C6    H3    S    
Cu1   O1    S    
C7    H2    S    
Cu2   O6    S    
C3    C5    S    
N1    O9    S    
