data_mof_unit_7113.cif
_audit_creation_date              2012-12-10T17:52:33-0500
_audit_creation_method            fapswitch 2.2
_symmetry_space_group_name_H-M    P1
_symmetry_Int_Tables_number       1
_space_group_crystal_system       triclinic
_cell_length_a                    14.693748
_cell_length_b                    14.673209
_cell_length_c                    23.485433
_cell_angle_alpha                 77.234004
_cell_angle_beta                  102.549709
_cell_angle_gamma                 114.725015
_cell_volume                      4440.89024683

loop_
_atom_site_label
_atom_site_type_symbol
_atom_type_description
_atom_site_fract_x
_atom_site_fract_y
_atom_site_fract_z
_atom_type_partial_charge
C1    C     C_R   0.880300 0.312240 0.509665 0.940429
C2    C     C_R   0.119692 0.687725 0.489565 0.938891
C3    C     C_R   0.067322 0.586983 0.758376 0.385133
C4    C     C_R   0.934629 0.414035 0.241391 0.391864
C5    C     C_R   0.061701 0.590652 0.697014 0.240800
C6    C     C_R   0.938792 0.410248 0.302615 0.176205
C7    C     C_R   0.999294 0.502207 0.670888 -0.318042
C8    C     C_R   0.001334 0.498261 0.329104 -0.320419
C9    C     C_R   0.938146 0.414325 0.704985 0.358695
C10   C     C_R   0.064044 0.585768 0.295530 0.287834
C11   C     C_R   0.938620 0.415862 0.764250 -0.241898
C12   C     C_R   0.064662 0.584465 0.236394 -0.243622
C13   C     C_R   0.002370 0.501208 0.790787 0.187279
C14   C     C_R   0.000814 0.499557 0.209492 0.201261
C15   C     C_R   0.812554 0.204729 0.511502 0.020459
C16   C     C_R   0.187397 0.795294 0.480777 0.019353
C17   C     C_R   0.783410 0.028375 0.517059 -0.162770
C18   C     C_R   0.215932 0.973075 0.455132 -0.163711
C19   C     C_R   0.850120 0.128740 0.519734 -0.079539
C20   C     C_R   0.149531 0.871826 0.463182 -0.152498
C21   C     C_R   0.708034 0.179175 0.501440 -0.211504
C22   C     C_R   0.291888 0.820910 0.489049 -0.143741
C23   C     C_R   0.999765 0.500705 0.608664 1.019346
C24   C     C_R   0.000330 0.499407 0.391323 1.008072
C25   C     C_R   0.639218 0.079332 0.496308 0.097830
C26   C     C_R   0.360266 0.922065 0.478962 0.087525
C27   C     C_R   0.678535 0.003121 0.505436 0.154146
C28   C     C_R   0.320777 0.998775 0.463486 0.156389
C29   C     C_R   0.532722 0.053093 0.483350 0.073855
C30   C     C_R   0.466666 0.949022 0.485629 0.073899
C31   C     C_R   0.509050 0.875606 0.493367 -0.181015
C32   C     C_R   0.490113 0.127367 0.467097 -0.191783
C33   C     C_R   0.612982 0.902560 0.502703 -0.194933
C34   C     C_R   0.386168 0.100349 0.456788 -0.195576
C35   C     C_R   0.717850 0.671815 0.404500 -0.293764
C36   C     C_R   0.282552 0.328764 0.595786 -0.288456
C37   C     C_R   0.798559 0.640931 0.418973 0.096705
C38   C     C_R   0.201730 0.359456 0.581256 0.099952
C39   C     C_R   0.713893 0.508012 0.490863 0.030408
C40   C     C_R   0.285910 0.491830 0.508942 0.019076
C41   C     C_R   0.628686 0.535173 0.478034 -0.020560
C42   C     C_R   0.371278 0.464917 0.521873 -0.020523
C43   C     C_R   0.633041 0.619741 0.434067 0.151363
C44   C     C_R   0.367167 0.380657 0.566046 0.149019
C45   C     C_R   0.958333 0.556964 0.106222 0.577124
C46   C     C_R   0.045662 0.444418 0.894089 0.579327
C47   C     C_R   0.540759 0.482842 0.507410 0.075930
C48   C     C_R   0.459179 0.517236 0.492464 0.075788
C49   C     C_R   0.468439 0.602853 0.448834 -0.222342
C50   C     C_R   0.531561 0.397308 0.551094 -0.215420
C51   C     C_R   0.553397 0.652499 0.420215 -0.175510
C52   C     C_R   0.446845 0.347969 0.579922 -0.167542
C53   C     C_R   0.046223 0.445232 0.133610 0.625786
C54   C     C_R   0.957694 0.556079 0.866722 0.629277
C55   C     C_R   0.047081 0.443928 0.074180 -0.042149
C56   C     C_R   0.957061 0.557570 0.926152 -0.045269
C57   C     C_R   0.002228 0.500934 0.030213 -0.008490
C58   C     C_R   0.001978 0.500619 0.970114 -0.008521
C59   C     C_R   0.957565 0.558200 0.046200 -0.029805
C60   C     C_R   0.046608 0.443328 0.954120 -0.031572
C61   C     C_R   0.091446 0.387130 0.057754 -0.137324
C62   C     C_R   0.912748 0.614416 0.942575 -0.135102
C63   C     C_R   0.091203 0.386826 0.998345 -0.134683
C64   C     C_R   0.913017 0.614744 0.001980 -0.135047
Cu1   Cu    Cu3+1 0.081740 0.475680 0.515360 1.036201
Cu2   Cu    Cu3+1 0.918260 0.524320 0.484640 1.040529
H1    H     H_    0.126422 0.342686 0.090717 0.195865
H2    H     H_    0.877745 0.658837 0.909613 0.197352
H3    H     H_    0.813823 0.970480 0.523640 0.145358
H4    H     H_    0.185342 0.031424 0.442573 0.145990
H5    H     H_    0.463931 0.796536 0.490680 0.145228
H6    H     H_    0.534830 0.207618 0.460142 0.152294
H7    H     H_    0.556961 0.717810 0.386974 0.167668
H8    H     H_    0.443466 0.282905 0.613330 0.163453
H9    H     H_    0.281054 0.552856 0.475028 0.152989
H10   H     H_    0.718457 0.446645 0.524532 0.155902
H11   H     H_    0.135797 0.318776 0.603645 0.157867
H12   H     H_    0.864638 0.681779 0.396725 0.142469
H13   H     H_    0.722077 0.736584 0.370742 0.158265
H14   H     H_    0.278560 0.264276 0.629722 0.161962
H15   H     H_    0.411236 0.634089 0.435714 0.163710
H16   H     H_    0.588683 0.365983 0.564174 0.157873
H17   H     H_    0.126047 0.342210 0.987220 0.196364
H18   H     H_    0.878164 0.659353 0.013103 0.196045
H19   H     H_    0.890306 0.350144 0.790616 0.214639
H20   H     H_    0.113711 0.650162 0.210379 0.212613
H21   H     H_    0.642192 0.843910 0.508356 0.155717
H22   H     H_    0.356810 0.159666 0.444297 0.153814
H23   H     H_    0.318447 0.760519 0.504977 0.148914
H24   H     H_    0.682123 0.238778 0.498561 0.139497
H25   H     H_    0.068866 0.853567 0.456242 0.158394
H26   H     H_    0.930806 0.146937 0.527576 0.161035
N1    N     N_R   0.002017 0.500891 0.148381 -0.429689
N2    N     N_R   0.001801 0.500342 0.851931 -0.428739
N3    N     N_R   0.795430 0.560810 0.461550 -0.186970
N4    N     N_R   0.204570 0.439190 0.538450 -0.192250
O1    O     O_R   0.977900 0.338110 0.520250 -0.581844
O2    O     O_R   0.022100 0.661890 0.479750 -0.582729
O3    O     O_R   0.839850 0.379180 0.494310 -0.590483
O4    O     O_R   0.160150 0.620820 0.505690 -0.586467
O5    O     O_R   0.069020 0.479430 0.595090 -0.574632
O6    O     O_R   0.930980 0.520570 0.404910 -0.572404
O7    O     O_R   0.930970 0.520500 0.569150 -0.534870
O8    O     O_R   0.069030 0.479500 0.430850 -0.561641
O9    O     O_2   0.915207 0.610653 0.122394 -0.518634
O10   O     O_2   0.088737 0.390692 0.877908 -0.510095
O11   O     O_2   0.089366 0.391583 0.176361 -0.503950
O12   O     O_2   0.914345 0.609565 0.823985 -0.492734
O13   O     O_3   0.135529 0.664870 0.788342 -0.649789
H27   H     H_    0.200373 0.690343 0.772477 0.367837
O14   O     O_3   0.866671 0.336528 0.211064 -0.655427
H28   H     H_    0.801395 0.311389 0.226393 0.368649
S1    S     S_3+6 0.124209 0.706740 0.652043 0.006384
O15   O     O_2   0.164081 0.796154 0.684738 -0.247207
O16   O     O_2   0.210366 0.700062 0.630892 -0.310018
O17   O     O_3   0.041224 0.725049 0.593619 -0.544526
H29   H     H_    0.072147 0.797837 0.577499 0.361746
S2    S     S_3+6 0.874251 0.294364 0.347089 0.010878
O18   O     O_2   0.788144 0.302738 0.367269 -0.277629
O19   O     O_2   0.833496 0.204442 0.314780 -0.236891
O20   O     O_3   0.954812 0.274262 0.406393 -0.548693
H30   H     H_    0.011283 0.273528 0.390150 0.351300
S3    S     S_3+6 0.859504 0.301851 0.674510 0.004787
O21   O     O_2   0.922961 0.266641 0.649475 -0.320454
O22   O     O_2   0.805823 0.219633 0.720902 -0.257281
O23   O     O_3   0.773398 0.326299 0.620392 -0.577544
H31   H     H_    0.723413 0.258899 0.611303 0.358639
S4    S     S_3+6 0.141629 0.698341 0.326173 0.009652
O24   O     O_2   0.215137 0.676231 0.376953 -0.309713
O25   O     O_2   0.199869 0.779855 0.281129 -0.247124
O26   O     O_3   0.068694 0.739810 0.350813 -0.550934
H32   H     H_    0.017533 0.745610 0.316529 0.347591

loop_
_geom_bond_atom_site_label_1
_geom_bond_atom_site_label_2
_ccdc_geom_bond_type
C18   H4    S    
C17   H3    S    
O23   H31   S    
Cu2   O6    S    
O14   H28   S    
Cu1   O5    S    
C45   N1    A    
S4    O24   D    
C1    O3    A    
S3    O21   D    
C39   C41   A    
C27   C33   A    
C15   C19   A    
C59   C64   A    
C60   C63   A    
C35   C37   A    
C11   H19   S    
C29   C32   A    
C52   H8    S    
C30   C31   A    
S3    O22   D    
C58   C60   A    
C55   C61   A    
O17   H29   S    
C37   N3    A    
C49   H15   S    
C61   C63   A    
C61   H1    S    
S2    O18   D    
C64   H18   S    
C62   C64   A    
C19   H26   S    
C8    C24   S    
Cu1   N4    S    
C23   O7    A    
C49   C51   A    
C50   C52   A    
C31   C33   A    
C1    C15   S    
C2    C16   S    
C14   N1    S    
C24   O6    A    
C3    C13   A    
S1    O17   S    
C46   C60   A    
C44   C52   A    
C40   C42   A    
C28   C34   A    
C41   C43   A    
C42   C44   A    
C40   N4    A    
C10   S4    S    
C45   O9    S    
C47   C50   A    
C21   H24   S    
C53   C55   A    
C25   C29   A    
C20   H25   S    
C54   C56   A    
C53   N1    A    
C17   C27   A    
C18   C28   A    
C4    C6    A    
C36   H14   S    
C1    O1    A    
C5    C7    A    
S3    O23   S    
C34   H22   S    
C63   H17   S    
C24   O8    A    
S2    O20   S    
C32   C34   A    
Cu2   O3    S    
C29   C30   A    
C53   O11   S    
C47   C48   A    
C46   N2    A    
C16   C20   A    
C41   C47   A    
C42   C48   A    
C39   H10   S    
C9    C11   A    
C39   N3    A    
O20   H30   S    
C10   C12   A    
C9    S3    S    
C48   C49   A    
C4    O14   S    
C12   C14   A    
C26   C30   A    
C55   C57   A    
C56   C62   A    
C36   C44   A    
O26   H32   S    
S4    O26   S    
C35   C43   A    
C50   H16   S    
S1    O15   D    
C7    C9    A    
C21   C25   A    
C45   C59   A    
C16   C22   A    
C5    S1    S    
Cu2   O7    S    
C51   H7    S    
Cu1   O4    S    
C3    C5    A    
S4    O25   D    
C6    C8    A    
C38   H11   S    
C54   O12   S    
C25   C27   A    
C37   H12   S    
C26   C28   A    
C40   H9    S    
C12   H20   S    
C13   N2    S    
Cu2   O2    S    
C36   C38   A    
C33   H21   S    
Cu1   O1    S    
O13   H27   S    
C11   C13   A    
C43   C51   A    
C57   C58   A    
C23   O5    A    
C3    O13   S    
C7    C23   S    
C46   O10   S    
C35   H13   S    
C17   C19   A    
C22   H23   S    
C56   C58   A    
C18   C20   A    
C62   H2    S    
C4    C14   A    
S2    O19   D    
C54   N2    A    
C57   C59   A    
C2    O4    A    
C15   C21   A    
C2    O2    A    
C8    C10   A    
Cu1   Cu2   S    
C22   C26   A    
C38   N4    A    
Cu1   O8    S    
S1    O16   D    
C6    S2    S    
C31   H5    S    
Cu2   N3    S    
C32   H6    S    
