data_mof_unit_45577.cif
_audit_creation_date              2012-12-10T20:43:32-0500
_audit_creation_method            fapswitch 2.2
_symmetry_space_group_name_H-M    P1
_symmetry_Int_Tables_number       1
_space_group_crystal_system       triclinic
_cell_length_a                    18.759629
_cell_length_b                    18.487811
_cell_length_c                    18.739
_cell_angle_alpha                 108.929595
_cell_angle_beta                  109.562672
_cell_angle_gamma                 108.868516
_cell_volume                      5066.83767429

loop_
_atom_site_label
_atom_site_type_symbol
_atom_type_description
_atom_site_fract_x
_atom_site_fract_y
_atom_site_fract_z
_atom_type_partial_charge
C1    C     C_R   0.381830 0.502878 0.380483 0.868853
C2    C     C_R   0.766753 0.824252 0.827060 -0.140383
C3    C     C_R   0.913907 0.724268 0.947491 -0.115752
C4    C     C_R   0.920532 0.708723 0.017046 -0.147330
C5    C     C_R   0.988610 0.771664 0.101166 0.138156
C6    C     C_R   0.290914 0.525440 0.997636 -0.142240
C7    C     C_R   0.210015 0.466598 0.923434 -0.091291
C8    C     C_R   0.167679 0.379014 0.903740 0.090963
C9    C     C_R   0.210349 0.350023 0.955895 -0.198620
C10   C     C_R   0.290877 0.409041 0.030225 -0.125026
C11   C     C_R   0.330858 0.496810 0.051440 -0.109914
C12   C     C_R   0.077839 0.249792 0.759518 -0.245572
C13   C     C_R   0.819926 0.823755 0.576686 -0.227013
C14   C     C_R   0.998755 0.186592 0.685228 -0.074053
C15   C     C_R   0.921452 0.187674 0.675304 0.046095
C16   C     C_R   0.924517 0.251215 0.742343 -0.238366
C17   C     C_R   0.003801 0.314743 0.816587 -0.103653
C18   C     C_R   0.081898 0.315470 0.825419 -0.011772
C19   C     C_R   0.800850 0.142762 0.531602 0.309636
C20   C     C_R   0.726891 0.077195 0.453076 -0.151165
C21   C     C_R   0.690197 0.991359 0.437635 -0.180085
C22   C     C_R   0.726032 0.970409 0.501211 -0.113358
C23   C     C_R   0.798881 0.035800 0.580720 -0.187497
C24   C     C_R   0.814886 0.809773 0.496948 -0.074807
C25   C     C_R   0.837383 0.122295 0.596289 0.062296
C26   C     C_R   0.745180 0.735188 0.418775 -0.006104
C27   C     C_R   0.684376 0.673413 0.423937 -0.242499
C28   C     C_R   0.689415 0.686977 0.503492 -0.075453
C29   C     C_R   0.756428 0.763953 0.581123 0.012883
C30   C     C_R   0.651964 0.690093 0.263471 -0.165420
C31   C     C_R   0.637766 0.665786 0.179053 -0.134759
C32   C     C_R   0.704159 0.666939 0.160727 -0.111625
C33   C     C_R   0.621669 0.620390 0.501706 0.854893
C34   C     C_R   0.784696 0.692449 0.226790 -0.129860
C35   C     C_R   0.799651 0.718420 0.311740 -0.116708
C36   C     C_R   0.733403 0.717405 0.331025 0.131146
C37   C     C_R   0.445730 0.777613 0.546660 -0.106785
C38   C     C_R   0.382909 0.695724 0.475673 -0.061613
C39   C     C_R   0.382750 0.669594 0.396288 0.073465
C40   C     C_R   0.443137 0.729633 0.386198 0.139483
C41   C     C_R   0.506031 0.812412 0.459214 -0.112736
C42   C     C_R   0.507636 0.835535 0.538625 -0.119431
C43   C     C_R   0.247797 0.576509 0.256825 -0.242248
C44   C     C_R   0.619139 0.498504 0.619631 0.859586
C45   C     C_R   0.182505 0.495868 0.185714 -0.069800
C46   C     C_R   0.177318 0.416796 0.182710 0.007446
C47   C     C_R   0.245718 0.422168 0.247388 -0.263326
C48   C     C_R   0.314034 0.503269 0.316028 -0.086241
C49   C     C_R   0.314303 0.581604 0.322778 -0.017479
C50   C     C_R   0.065078 0.269040 0.141101 -0.156239
C51   C     C_R   0.996892 0.184776 0.078927 -0.134378
C52   C     C_R   0.965391 0.158673 0.990874 -0.124932
C53   C     C_R   0.001777 0.216935 0.964933 -0.127346
C54   C     C_R   0.069807 0.301236 0.027043 -0.095990
C55   C     C_R   0.377984 0.379878 0.498150 0.873788
C56   C     C_R   0.102456 0.328344 0.115736 0.120204
C57   C     C_R   0.211405 0.523442 0.574045 -0.134784
C58   C     C_R   0.226741 0.454313 0.574228 -0.136637
C59   C     C_R   0.228280 0.399281 0.503210 0.140796
C60   C     C_R   0.213495 0.413806 0.431805 -0.121645
C61   C     C_R   0.197402 0.482519 0.431556 -0.134228
C62   C     C_R   0.196637 0.537465 0.502715 -0.123801
C63   C     C_R   0.178083 0.257801 0.501516 -0.251745
C64   C     C_R   0.184553 0.183174 0.495381 -0.080500
C65   C     C_R   0.253306 0.172404 0.488679 0.008227
C66   C     C_R   0.770267 0.884060 0.796285 -0.145162
C67   C     C_R   0.315703 0.238136 0.489070 -0.259328
C68   C     C_R   0.309812 0.313254 0.495831 -0.090545
C69   C     C_R   0.240327 0.323577 0.501544 -0.005587
C70   C     C_R   0.325012 0.093644 0.542198 -0.192566
C71   C     C_R   0.334995 0.019283 0.527927 -0.179506
C72   C     C_R   0.280657 0.943426 0.447321 0.324076
C73   C     C_R   0.215670 0.941657 0.381424 -0.169277
C74   C     C_R   0.204469 0.015317 0.395909 -0.214835
C75   C     C_R   0.259511 0.091943 0.476260 0.142066
C76   C     C_R   0.540580 0.550666 0.849833 -0.143017
C77   C     C_R   0.767548 0.864601 0.716506 -0.163512
C78   C     C_R   0.611465 0.555657 0.838091 -0.155514
C79   C     C_R   0.600672 0.487968 0.766445 0.142118
C80   C     C_R   0.518306 0.414857 0.707297 -0.130297
C81   C     C_R   0.447746 0.409799 0.719808 -0.126249
C82   C     C_R   0.458767 0.477805 0.790701 -0.107310
C83   C     C_R   0.741975 0.492714 0.817483 -0.265045
C84   C     C_R   0.815348 0.498839 0.810684 -0.090736
C85   C     C_R   0.825300 0.506202 0.741440 0.042410
C86   C     C_R   0.757593 0.502441 0.677349 -0.190331
C87   C     C_R   0.684433 0.496568 0.684698 -0.098741
C88   C     C_R   0.761613 0.785009 0.666898 0.124959
C89   C     C_R   0.676457 0.492847 0.755558 -0.010769
C90   C     C_R   0.955671 0.586932 0.729910 0.292058
C91   C     C_R   0.029305 0.592636 0.723387 -0.159173
C92   C     C_R   0.051727 0.527130 0.719884 -0.191606
C93   C     C_R   0.000449 0.455235 0.722479 -0.048941
C94   C     C_R   0.926275 0.448306 0.728132 -0.096706
C95   C     C_R   0.903279 0.514218 0.732784 0.054326
C96   C     C_R   0.000061 0.878776 0.380673 0.871147
C97   C     C_R   0.880329 0.877426 0.497887 0.862545
C98   C     C_R   0.999268 0.120006 0.619679 0.876574
C99   C     C_R   0.759934 0.726173 0.699314 -0.023900
C100  C     C_R   0.119609 0.118463 0.497879 0.877186
C101  C     C_R   0.002575 0.380023 0.882302 0.853489
C102  C     C_R   0.119125 0.497806 0.118895 0.867465
C103  C     C_R   0.998468 0.620242 0.118289 0.877829
C104  C     C_R   0.880528 0.499085 0.878290 0.862149
C105  C     C_R   0.120271 0.776470 0.553816 -0.165685
C106  C     C_R   0.106680 0.788583 0.481480 -0.040589
C107  C     C_R   0.026751 0.733976 0.404591 0.108572
C108  C     C_R   0.962356 0.664334 0.399931 -0.209944
C109  C     C_R   0.976024 0.652559 0.472465 -0.098447
C110  C     C_R   0.761129 0.745218 0.778366 -0.103033
C111  C     C_R   0.054818 0.708794 0.549465 -0.098085
C112  C     C_R   0.008141 0.679684 0.258102 -0.216467
C113  C     C_R   0.998580 0.686700 0.184012 -0.077671
C114  C     C_R   0.994094 0.758618 0.176396 -0.014834
C115  C     C_R   0.994471 0.820434 0.242589 -0.275796
C116  C     C_R   0.003527 0.813515 0.316706 -0.089961
C117  C     C_R   0.013402 0.743981 0.326475 -0.003931
C118  C     C_R   0.049459 0.850285 0.114503 -0.149100
C119  C     C_R   0.042220 0.865611 0.044796 -0.152404
C120  C     C_R   0.974266 0.802777 0.961380 -0.075289
H1    H     H_    0.767905 0.838909 0.888369 0.128563
H2    H     H_    0.692866 0.646903 0.095139 0.122517
H3    H     H_    0.834773 0.690495 0.211391 0.148511
H4    H     H_    0.861899 0.737211 0.362102 0.107353
H5    H     H_    0.556340 0.899231 0.593786 0.131602
H6    H     H_    0.446072 0.796357 0.607866 0.122683
H7    H     H_    0.334529 0.652020 0.482778 0.139045
H8    H     H_    0.553996 0.860436 0.455875 0.123098
H9    H     H_    0.246743 0.636095 0.260975 0.181022
H10   H     H_    0.245126 0.362561 0.245126 0.154259
H11   H     H_    0.774150 0.945103 0.833795 0.123720
H12   H     H_    0.088526 0.288125 0.209076 0.126035
H13   H     H_    0.968591 0.139667 0.099058 0.132612
H14   H     H_    0.912787 0.093404 0.942801 0.123056
H15   H     H_    0.977285 0.196798 0.896704 0.139917
H16   H     H_    0.096678 0.345712 0.006182 0.113981
H17   H     H_    0.184306 0.590704 0.502441 0.138623
H18   H     H_    0.210413 0.565791 0.628956 0.121708
H19   H     H_    0.237360 0.443585 0.629531 0.118225
H20   H     H_    0.213151 0.371142 0.376020 0.100343
H21   H     H_    0.185132 0.493011 0.376082 0.147935
H22   H     H_    0.768801 0.910985 0.692825 0.118162
H23   H     H_    0.124162 0.264553 0.506034 0.163923
H24   H     H_    0.369337 0.230834 0.484364 0.163237
H25   H     H_    0.368617 0.152688 0.604188 0.139183
H26   H     H_    0.385654 0.021058 0.579040 0.158749
H27   H     H_    0.174629 0.883481 0.318738 0.176043
H28   H     H_    0.154506 0.013457 0.343990 0.128931
H29   H     H_    0.403998 0.473812 0.800051 0.121408
H30   H     H_    0.549155 0.603105 0.904986 0.123172
H31   H     H_    0.674663 0.612287 0.884533 0.115866
H32   H     H_    0.755864 0.664828 0.662426 0.129224
H33   H     H_    0.509036 0.361612 0.652270 0.108904
H34   H     H_    0.384545 0.353015 0.674898 0.141351
H35   H     H_    0.736281 0.489023 0.872123 0.158971
H36   H     H_    0.762533 0.505894 0.622361 0.173854
H37   H     H_    0.069755 0.648432 0.721710 0.151953
H38   H     H_    0.108909 0.532109 0.715168 0.133988
H39   H     H_    0.018029 0.404521 0.719489 0.165880
H40   H     H_    0.886745 0.391641 0.729287 0.128823
H41   H     H_    0.065412 0.699467 0.605485 0.137774
H42   H     H_    0.756605 0.698228 0.801338 0.130408
H43   H     H_    0.181688 0.819341 0.613133 0.129520
H44   H     H_    0.158239 0.840637 0.485461 0.161067
H45   H     H_    0.901525 0.619406 0.340209 0.139649
H46   H     H_    0.925734 0.599508 0.468816 0.150394
H47   H     H_    0.014194 0.625029 0.263637 0.159058
H48   H     H_    0.988597 0.875013 0.236728 0.161478
H49   H     H_    0.102207 0.899875 0.178963 0.124973
H50   H     H_    0.088997 0.926430 0.055543 0.138575
H51   H     H_    0.968216 0.815229 0.907670 0.180378
H52   H     H_    0.861695 0.675742 0.882867 0.154374
H53   H     H_    0.872665 0.882862 0.635613 0.151073
H54   H     H_    0.872120 0.648442 0.005593 0.099430
H55   H     H_    0.393216 0.542119 0.108980 0.120881
H56   H     H_    0.322767 0.593088 0.013127 0.122623
H57   H     H_    0.180624 0.489232 0.881363 0.131775
H58   H     H_    0.180090 0.282050 0.940086 0.143026
H59   H     H_    0.322309 0.386700 0.071332 0.138308
H60   H     H_    0.137029 0.248568 0.765740 0.162516
H61   H     H_    0.865198 0.252054 0.736111 0.156270
H62   H     H_    0.699219 0.092234 0.402740 0.160624
H63   H     H_    0.631512 0.614449 0.364980 0.155571
H64   H     H_    0.635023 0.941489 0.375456 0.137902
H65   H     H_    0.698746 0.903356 0.488400 0.131439
H66   H     H_    0.827392 0.018555 0.628813 0.113882
H67   H     H_    0.598938 0.685813 0.275912 0.131084
H68   H     H_    0.574863 0.644392 0.127421 0.122027
O1    O     O_R   0.408360 0.551710 0.460090 -0.623405
O2    O     O_R   0.948280 0.908380 0.356650 -0.620804
O3    O     O_R   0.960110 0.908350 0.551690 -0.613442
O4    O     O_R   0.856660 0.908370 0.448270 -0.609236
O5    O     O_R   0.051720 0.091580 0.643310 -0.632546
O6    O     O_R   0.948270 0.091600 0.539890 -0.595903
O7    O     O_R   0.143340 0.091590 0.551680 -0.618832
O8    O     O_R   0.039890 0.091610 0.448270 -0.620625
O9    O     O_R   0.051730 0.460050 0.908360 -0.629499
O10   O     O_R   0.948290 0.356630 0.908390 -0.621904
O11   O     O_R   0.143340 0.551690 0.091580 -0.617840
O12   O     O_R   0.408400 0.448280 0.356670 -0.625509
O13   O     O_R   0.039900 0.448270 0.091610 -0.616154
O14   O     O_R   0.051710 0.643320 0.091560 -0.602017
O15   O     O_R   0.948270 0.539900 0.091590 -0.630221
O16   O     O_R   0.960100 0.551680 0.908340 -0.603450
O17   O     O_R   0.856660 0.448270 0.908370 -0.625497
O18   O     O_R   0.591600 0.643340 0.551710 -0.617214
O19   O     O_R   0.591630 0.539900 0.448290 -0.621256
O20   O     O_R   0.591600 0.551720 0.643330 -0.616917
O21   O     O_R   0.591640 0.448290 0.539910 -0.617099
O22   O     O_R   0.408370 0.460100 0.551710 -0.604285
O23   O     O_R   0.408400 0.356660 0.448290 -0.625806
O24   O     O_R   0.051730 0.908360 0.460060 -0.624872
Zn1   Zn    Zn3+2 0.499980 0.569060 0.569060 0.972178
Zn2   Zn    Zn3+2 0.500020 0.430940 0.430940 0.958624
Zn3   Zn    Zn3+2 0.069070 0.999960 0.569030 0.961778
Zn4   Zn    Zn3+2 0.930930 0.999990 0.430930 0.988725
Zn5   Zn    Zn3+2 0.069070 0.569030 0.999960 0.975808
Zn6   Zn    Zn3+2 0.930930 0.430930 0.000000 0.959209
C121  C     C_3   0.438450 0.704103 0.297958 -0.432811
C122  C     C_3   0.497475 0.778284 0.291185 -0.372968
C123  C     C_3   0.477885 0.751881 0.197932 -0.891941
H69   H     H_    0.483943 0.692939 0.170041 0.249452
H70   H     H_    0.411342 0.738279 0.157704 0.262983
H71   H     H_    0.524406 0.805983 0.196440 0.253039
H72   H     H_    0.487614 0.835744 0.314893 0.238769
H73   H     H_    0.565709 0.796280 0.331126 0.214457
H74   H     H_    0.453503 0.649504 0.281030 0.186627
H75   H     H_    0.371624 0.680329 0.248444 0.232402
Br1   Br    Br    0.295642 0.842543 0.426358 -0.610155
Br2   Br    Br    0.932523 0.681942 0.738003 -0.646325
Br3   Br    Br    0.853644 0.256510 0.543419 -0.582812

loop_
_geom_bond_atom_site_label_1
_geom_bond_atom_site_label_2
_ccdc_geom_bond_type
C58   H19   S    
C21   H64   S    
C108  H45   S    
C78   C79   A    
O20   Zn1   S    
C96   O24   A    
C33   O18   A    
C5    C114  S    
C52   H14   S    
C41   C42   A    
C19   C20   A    
C53   H15   S    
C27   H63   S    
C81   C82   A    
C110  H42   S    
C80   H33   S    
C85   C86   A    
C116  C117  A    
C13   H53   S    
C98   O6    A    
C26   C27   A    
C34   H3    S    
C73   H27   S    
C83   C84   A    
C10   H59   S    
C104  O16   A    
O14   Zn5   S    
C13   C29   A    
C28   C29   A    
C103  C113  S    
C102  O13   A    
C76   C78   A    
O13   Zn6   S    
C113  C114  A    
C123  H71   S    
C109  C111  A    
O6    Zn4   S    
C112  C117  A    
O8    Zn4   S    
C101  O9    A    
C3    H52   S    
C15   C25   S    
C83   H35   S    
C106  C107  A    
C15   C16   A    
C44   O20   A    
C108  C109  A    
C7    H57   S    
C92   H38   S    
C44   O21   A    
C73   C74   A    
C96   O2    A    
C37   C42   A    
C93   H39   S    
C17   C101  S    
C118  C119  A    
C122  C123  S    
C29   C88   S    
C86   H36   S    
C42   H5    S    
O3    Zn3   S    
C77   H22   S    
C97   O4    A    
C2    C110  A    
C63   C69   A    
C77   C88   A    
C8    C9    A    
C65   C67   A    
C111  H41   S    
C31   H68   S    
C122  H72   S    
C48   C49   A    
O12   Zn2   S    
C107  C108  A    
C105  H43   S    
O5    Zn3   S    
C70   C71   A    
C106  H44   S    
C121  H75   S    
C44   C87   S    
C9    C10   A    
O7    Zn3   S    
C61   C62   A    
C72   C73   A    
C105  C111  A    
C59   C60   A    
C94   H40   S    
C4    H54   S    
C21   C22   A    
C41   H8    S    
O10   Zn6   S    
C34   C35   A    
O9    Zn5   S    
C67   H24   S    
C112  C113  A    
C78   H31   S    
C14   C98   S    
C57   C58   A    
C100  O8    A    
C83   C89   A    
C54   C56   A    
O17   Zn6   S    
C91   H37   S    
C72   Br1   S    
C47   H10   S    
C67   C68   A    
C82   H29   S    
C47   C48   A    
C32   H2    S    
C43   H9    S    
C84   C85   A    
C74   C75   A    
C76   C82   A    
C91   C92   A    
C70   H25   S    
C55   C68   S    
C86   C87   A    
C43   C49   A    
C118  H49   S    
C57   C62   A    
C58   C59   A    
C53   C54   A    
C99   C110  A    
O19   Zn2   S    
C50   C56   A    
C81   H34   S    
C51   C52   A    
C98   O5    A    
C60   C61   A    
C35   C36   A    
C32   C34   A    
C37   C38   A    
C2    H1    S    
C123  H69   S    
C31   C32   A    
C14   C15   A    
O24   Zn3   S    
C76   H30   S    
C30   C31   A    
O1    Zn1   S    
C54   H16   S    
O11   Zn5   S    
C71   H26   S    
C8    C18   S    
C50   C51   A    
C122  H73   S    
C120  H51   S    
C93   C94   A    
C104  O17   A    
C85   C95   S    
C92   C93   A    
C43   C45   A    
C50   H12   S    
C59   C69   S    
O18   Zn1   S    
C61   H21   S    
C40   C41   A    
C12   H60   S    
C60   H20   S    
C28   C33   S    
C10   C11   A    
C87   C89   A    
C40   C121  S    
C51   H13   S    
C84   C104  S    
C79   C80   A    
C1    O12   A    
C46   C56   S    
C3    C4    A    
C6    C11   A    
C52   C53   A    
C20   H62   S    
C37   H6    S    
C105  C106  A    
C100  O7    A    
C26   C36   S    
C3    C120  A    
C121  C122  S    
C66   C77   A    
C46   C47   A    
C35   H4    S    
C33   O19   A    
O15   Zn6   S    
C39   C49   S    
C101  O10   A    
C5    C118  A    
C45   C102  S    
C68   C69   A    
C90   Br2   S    
C24   C26   A    
C80   C81   A    
C2    C66   A    
C90   C95   A    
C23   H66   S    
C119  C120  A    
C1    C48   S    
C114  C115  A    
C6    C7    A    
O22   Zn1   S    
C99   H32   S    
C74   H28   S    
C97   O3    A    
C11   H55   S    
O21   Zn2   S    
C65   C75   S    
C17   C18   A    
C30   C36   A    
O16   Zn5   S    
C64   C65   A    
C16   H61   S    
C22   H65   S    
C12   C14   A    
C103  O14   A    
C71   C72   A    
C123  H70   S    
C102  O11   A    
C30   H67   S    
C55   O22   A    
C112  H47   S    
C90   C91   A    
C38   C39   A    
C6    H56   S    
O2    Zn4   S    
C38   H7    S    
C4    C5    A    
C66   H11   S    
O4    Zn4   S    
C57   H18   S    
C24   C97   S    
C23   C25   A    
C62   H17   S    
C94   C95   A    
C19   C25   A    
C103  O15   A    
C79   C89   S    
C88   C99   A    
C7    C8    A    
C109  H46   S    
C119  H50   S    
C55   O23   A    
C63   C64   A    
C39   C40   A    
C45   C46   A    
C64   C100  S    
O23   Zn2   S    
C20   C21   A    
C13   C24   A    
C12   C18   A    
C27   C28   A    
C63   H23   S    
C22   C23   A    
C96   C116  S    
C70   C75   A    
C121  H74   S    
C115  H48   S    
C19   Br3   S    
C107  C117  S    
C9    H58   S    
C115  C116  A    
C16   C17   A    
C1    O1    A    
