data_mof_unit_55989.cif
_audit_creation_date              2012-12-11T14:57:55-0500
_audit_creation_method            fapswitch 2.2
_symmetry_space_group_name_H-M    P1
_symmetry_Int_Tables_number       1
_space_group_crystal_system       triclinic
_cell_length_a                    6.94518
_cell_length_b                    16.756217
_cell_length_c                    17.031927
_cell_angle_alpha                 100.345197
_cell_angle_beta                  91.749835
_cell_angle_gamma                 89.791722
_cell_volume                      1948.95535886

loop_
_atom_site_label
_atom_site_type_symbol
_atom_type_description
_atom_site_fract_x
_atom_site_fract_y
_atom_site_fract_z
_atom_type_partial_charge
O1    O     O_R   0.506180 0.438940 0.579430 -0.536391
O2    O     O_R   0.170520 0.406230 0.413590 -0.539635
O3    O     O_R   0.005180 0.561060 0.420570 -0.535795
C1    C     C_R   0.337905 0.383101 0.385428 0.694021
O4    O     O_R   0.176140 0.429310 0.578370 -0.542608
O5    O     O_R   0.010830 0.584300 0.586530 -0.536824
C2    C     C_R   0.348435 0.413482 0.604859 0.695047
O6    O     O_R   0.500520 0.415700 0.413470 -0.532558
O7    O     O_3   0.340830 0.550820 0.502480 -0.368373
V1    V     V_3+5 0.064040 0.490570 0.499540 1.428049
O8    O     O_R   0.681400 0.593770 0.586410 -0.539845
C3    C     C_R   0.851947 0.616572 0.614706 0.691631
O9    O     O_R   0.675790 0.570690 0.421630 -0.543737
C4    C     C_R   0.842039 0.587055 0.395381 0.694563
V2    V     V_3+5 0.564650 0.509430 0.500460 1.429565
O10   O     O_3   0.837730 0.449180 0.497520 -0.364286
C5    C     C_R   0.923300 0.860429 0.166293 -0.074863
C6    C     C_R   0.842335 0.638310 0.332616 -0.060742
C7    C     C_R   0.713275 0.666861 0.205572 -0.173262
C8    C     C_R   0.720381 0.618364 0.264627 -0.165869
C9    C     C_R   0.955076 0.709190 0.341624 -0.234204
C10   C     C_R   0.943705 0.759963 0.283737 0.146204
C11   C     C_R   0.823940 0.738025 0.214452 0.169362
C12   C     C_R   0.816155 0.787891 0.155695 -0.282600
C13   C     C_R   0.034157 0.883193 0.236954 -0.081761
C14   C     C_R   0.046916 0.833157 0.294540 -0.176506
H1    H     H_    0.727793 0.770322 0.101813 0.115135
H2    H     H_    0.108210 0.940848 0.248114 0.162973
H3    H     H_    0.619353 0.649174 0.153411 0.113941
H4    H     H_    0.135729 0.852262 0.347986 0.123008
H5    H     H_    0.631489 0.564502 0.257014 0.119417
H6    H     H_    0.046625 0.725989 0.394701 0.115764
H7    H     H_    0.134391 0.630674 0.965675 0.113975
C15   C     C_R   0.764958 0.907715 0.730391 -0.140668
C16   C     C_R   0.691538 0.921257 0.656900 -0.067181
C17   C     C_R   0.678019 0.857722 0.592207 -0.118023
C18   C     C_R   0.736405 0.780010 0.600668 -0.144238
C19   C     C_R   0.807682 0.763916 0.675041 0.068877
C20   C     C_R   0.822998 0.829174 0.741240 0.060565
C21   C     C_R   0.866773 0.684761 0.683731 -0.183491
C22   C     C_R   0.940790 0.670831 0.758700 0.068591
C23   C     C_R   0.956543 0.736118 0.824851 0.070223
C24   C     C_R   0.898419 0.815356 0.816053 -0.177837
C25   C     C_R   0.995970 0.592054 0.769842 -0.146855
C26   C     C_R   0.066301 0.578209 0.843682 -0.127341
C27   C     C_R   0.081247 0.641872 0.908228 -0.122312
C28   C     C_R   0.026290 0.719893 0.899392 -0.138664
H8    H     H_    0.776369 0.959691 0.778190 0.108538
H9    H     H_    0.646256 0.981563 0.649980 0.148211
H10   H     H_    0.622943 0.868762 0.534976 0.121201
H11   H     H_    0.725796 0.733064 0.548092 0.106203
H12   H     H_    0.983819 0.540069 0.722074 0.109860
H13   H     H_    0.107961 0.517575 0.850976 0.117334
H14   H     H_    0.037526 0.766910 0.951895 0.100869
H15   H     H_    0.409688 0.494724 0.143907 0.126485
C29   C     C_R   0.276663 0.216307 0.400310 -0.139111
C30   C     C_R   0.270091 0.137103 0.413573 -0.121912
C31   C     C_R   0.337021 0.074426 0.356631 -0.148436
C32   C     C_R   0.406236 0.089758 0.284363 -0.016941
C33   C     C_R   0.389486 0.169082 0.264521 -0.001858
C34   C     C_R   0.336718 0.233964 0.326692 0.076417
C35   C     C_R   0.421528 0.185292 0.185904 -0.180089
C36   C     C_R   0.419973 0.267807 0.173294 0.042854
C37   C     C_R   0.385385 0.332101 0.239016 0.022792
C38   C     C_R   0.346923 0.315251 0.315479 -0.153676
C39   C     C_R   0.451996 0.289131 0.096999 0.345017
C40   C     C_R   0.447911 0.371057 0.088050 -0.183341
C41   C     C_R   0.413603 0.432149 0.152164 -0.173250
C42   C     C_R   0.383215 0.413340 0.226710 -0.150881
H16   H     H_    0.231174 0.263411 0.448174 0.103504
H17   H     H_    0.221522 0.124742 0.470023 0.136001
H18   H     H_    0.345748 0.014094 0.371165 0.129446
H19   H     H_    0.471585 0.387829 0.030569 0.107697
H20   H     H_    0.354295 0.463526 0.274422 0.110392
C43   C     C_R   0.391374 0.133251 0.828915 -0.096730
C44   C     C_R   0.374385 0.361224 0.666237 -0.085030
C45   C     C_R   0.578523 0.320976 0.771288 -0.129463
C46   C     C_R   0.534649 0.374445 0.719408 -0.137446
C47   C     C_R   0.255475 0.293814 0.667149 -0.221401
C48   C     C_R   0.295788 0.239450 0.720631 0.070605
C49   C     C_R   0.462839 0.252824 0.771782 0.142082
C50   C     C_R   0.512274 0.198522 0.823405 -0.229830
C51   C     C_R   0.228348 0.119068 0.777238 -0.207685
C52   C     C_R   0.178966 0.170683 0.723170 -0.011242
H21   H     H_    0.640568 0.209156 0.861671 0.125518
H22   H     H_    0.134816 0.068164 0.780636 0.141330
H23   H     H_    0.705097 0.332474 0.810490 0.120165
H24   H     H_    0.629292 0.425791 0.719750 0.121176
H25   H     H_    0.138378 0.282646 0.623395 0.157214
O11   O     O_R   0.265840 0.084300 0.086750 -0.538662
O12   O     O_R   0.589750 0.070740 0.921690 -0.536484
O13   O     O_R   0.755020 0.915730 0.913400 -0.546368
C53   C     C_R   0.417661 0.084268 0.893292 0.750611
O14   O     O_R   0.595830 0.093740 0.086480 -0.499256
O15   O     O_R   0.761150 0.938890 0.079360 -0.529386
C54   C     C_R   0.428795 0.116090 0.116203 0.832782
O16   O     O_R   0.259710 0.061140 0.920790 -0.540717
O17   O     O_3   0.425260 0.949200 0.997610 -0.379527
V3    V     V_3+5 0.702060 0.009430 0.000450 1.500122
O18   O     O_R   0.090530 0.929220 0.078150 -0.539564
C55   C     C_R   0.924125 0.912212 0.103923 0.738999
O19   O     O_R   0.084440 0.906220 0.913360 -0.545431
C56   C     C_R   0.913772 0.883552 0.885045 0.670633
V4    V     V_3+5 0.201450 0.990520 0.999290 1.464266
O20   O     O_3   0.928380 0.050800 0.002390 -0.362595
C57   C     C_2   0.524535 0.024847 0.239921 0.697075
O21   O     O_2   0.691386 0.038974 0.226080 -0.557070
O22   O     O_R   0.450089 0.946382 0.219450 -0.680741
H26   H     H_    0.544642 0.906229 0.190993 0.302971
O23   O     O_3   0.488834 0.230338 0.031601 -0.660511
H27   H     H_    0.507052 0.256283 0.984555 0.267846
C58   C     C_2   0.001264 0.151384 0.672734 0.708535
O24   O     O_2   0.967021 0.081104 0.641527 -0.570824
O25   O     O_R   0.869180 0.212352 0.663399 -0.672253
H28   H     H_    0.752864 0.190972 0.628634 0.298522

loop_
_geom_bond_atom_site_label_1
_geom_bond_atom_site_label_2
_ccdc_geom_bond_type
C35   C54   S    
C6    C9    A    
C22   C23   A    
C4    C6    S    
O2    C1    A    
C7    C8    A    
C44   C47   A    
C48   C52   A    
C43   C51   A    
C58   O25   S    
O25   H28   S    
C26   C27   A    
C29   C30   A    
C13   H2    S    
C52   C58   S    
C17   C18   A    
C49   C50   A    
C44   C46   A    
O5    C3    A    
C19   C20   A    
C18   H11   S    
O15   V3    S    
C57   O21   D    
V2    O10   S    
O18   V4    S    
O22   H26   S    
C33   C35   A    
C15   C16   A    
C5    C55   S    
O23   H27   S    
C58   O24   D    
O13   C56   A    
O8    V2    S    
C16   C17   A    
C41   C42   A    
C16   H9    S    
C11   C12   A    
C12   H1    S    
C40   H19   S    
O7    V1    S    
C1    O6    A    
C25   H12   S    
C39   C40   A    
C36   C39   A    
C26   H13   S    
C32   C33   A    
O9    C4    A    
H7    C27   S    
V4    O20   S    
H15   C41   S    
V3    O20   S    
C9    H6    S    
C32   C57   S    
C36   C37   A    
C40   C41   A    
C5    C12   A    
O4    C2    A    
C20   C24   A    
C31   C32   A    
C45   C46   A    
C30   H17   S    
C15   C20   A    
C33   C34   A    
C3    C21   S    
C7    C11   A    
C18   C19   A    
O12   C53   A    
C51   C52   A    
C45   C49   A    
C35   C36   A    
C42   H20   S    
C29   C34   A    
C37   C42   A    
C39   O23   S    
O14   C54   A    
O11   V4    S    
O3    C4    A    
C28   H14   S    
O1    V2    S    
C21   C22   A    
C14   H4    S    
O6    V2    S    
C29   H16   S    
O9    V2    S    
C22   C25   A    
C15   H8    S    
C23   C24   A    
O2    V1    S    
C53   O16   A    
C17   H10   S    
C25   C26   A    
C43   C53   S    
C46   H24   S    
C27   C28   A    
O1    C2    A    
C48   C49   A    
O5    V1    S    
O8    C3    A    
C43   C50   A    
O11   C54   A    
C2    C44   S    
C50   H21   S    
O19   V4    S    
C5    C13   A    
C37   C38   A    
C13   C14   A    
O4    V1    S    
O3    V1    S    
V1    O10   S    
C19   C21   A    
C31   H18   S    
C30   C31   A    
C1    C38   S    
C57   O22   S    
O14   V3    S    
O17   V4    S    
O18   C55   A    
C6    C8    A    
C23   C28   A    
O7    V2    S    
O19   C56   A    
C24   C56   S    
C47   H25   S    
O16   V4    S    
C47   C48   A    
C34   C38   A    
C51   H22   S    
C45   H23   S    
O17   V3    S    
C10   C14   A    
C10   C11   A    
O12   V3    S    
C9    C10   A    
O15   C55   A    
O13   V3    S    
C8    H5    S    
C7    H3    S    
