data_mof_unit_39695.cif
_audit_creation_date              2012-12-11T16:29:29-0500
_audit_creation_method            fapswitch 2.2
_symmetry_space_group_name_H-M    P1
_symmetry_Int_Tables_number       1
_space_group_crystal_system       triclinic
_cell_length_a                    6.955494
_cell_length_b                    17.378392
_cell_length_c                    18.702843
_cell_angle_alpha                 106.301561
_cell_angle_beta                  89.74689
_cell_angle_gamma                 90.52503
_cell_volume                      2169.73073432

loop_
_atom_site_label
_atom_site_type_symbol
_atom_type_description
_atom_site_fract_x
_atom_site_fract_y
_atom_site_fract_z
_atom_type_partial_charge
O1    O     O_R   0.494360 0.415680 0.413760 -0.531574
O2    O     O_R   0.818810 0.432910 0.557230 -0.530282
O3    O     O_R   0.994290 0.584320 0.586240 -0.531625
C1    C     C_R   0.649846 0.416007 0.580649 0.713393
O4    O     O_R   0.823740 0.406440 0.412520 -0.535636
O5    O     O_R   0.999250 0.557660 0.440500 -0.520840
C2    C     C_R   0.655014 0.383872 0.384727 0.694658
O6    O     O_R   0.489400 0.442340 0.559500 -0.519383
O7    O     O_3   0.662500 0.549650 0.509350 -0.359605
V1    V     V_3+5 0.935340 0.490790 0.498270 1.425112
O8    O     O_R   0.329270 0.567090 0.442770 -0.529618
C3    C     C_R   0.161155 0.584042 0.419384 0.712956
O9    O     O_R   0.324340 0.593560 0.587480 -0.537445
C4    C     C_R   0.155741 0.616529 0.615032 0.692742
V2    V     V_3+5 0.435970 0.509210 0.501730 1.423502
O10   O     O_3   0.158940 0.450350 0.490650 -0.358178
C5    C     C_R   0.023526 0.595826 0.755169 -0.171238
C6    C     C_R   0.960664 0.583077 0.821708 -0.160607
C7    C     C_R   0.950858 0.646747 0.886750 0.029675
C8    C     C_R   0.004039 0.723811 0.883871 -0.199922
C9    C     C_R   0.064729 0.738796 0.816492 0.052720
C10   C     C_R   0.076323 0.673257 0.751039 0.080682
C11   C     C_R   0.114446 0.817564 0.813975 -0.161502
C12   C     C_R   0.173860 0.830861 0.745050 0.013393
C13   C     C_R   0.204426 0.763279 0.681866 0.064864
C14   C     C_R   0.146697 0.685289 0.683733 -0.169414
C15   C     C_R   0.204865 0.909323 0.735955 -0.013577
C16   C     C_R   0.298595 0.918059 0.672259 -0.125305
C17   C     C_R   0.341948 0.851630 0.613680 -0.127863
C18   C     C_R   0.288341 0.775558 0.616849 -0.143639
H1    H     H_    0.314910 0.726761 0.567538 0.117753
C19   C     C_1   0.111833 0.863664 0.132360 -0.091938
C20   C     C_1   0.119481 0.821095 0.175919 0.069168
C21   C     C_1   0.128890 0.770926 0.227841 0.004121
C22   C     C_1   0.136806 0.728699 0.271713 0.005729
C23   C     C_1   0.146048 0.678548 0.323680 0.008735
C24   C     C_1   0.153403 0.636011 0.367300 -0.212687
C25   C     C_1   0.641376 0.364098 0.632707 -0.212600
C26   C     C_1   0.637382 0.321527 0.676315 0.008659
C27   C     C_1   0.634217 0.271312 0.728242 0.015173
C28   C     C_1   0.631841 0.229012 0.772099 0.013942
C29   C     C_1   0.628549 0.178821 0.824035 0.025174
C30   C     C_1   0.624265 0.136248 0.867628 -0.144303
H2    H     H_    0.803236 0.140224 0.449500 0.158023
C31   C     C_R   0.570415 0.405882 0.240900 -0.148936
C32   C     C_R   0.532196 0.418949 0.172236 -0.107138
C33   C     C_R   0.524220 0.354738 0.108299 -0.105218
C34   C     C_R   0.553063 0.276956 0.112643 -0.139478
C35   C     C_R   0.589881 0.261519 0.181812 0.073455
C36   C     C_R   0.600267 0.327503 0.247061 0.067872
C37   C     C_R   0.615787 0.182001 0.186410 -0.174049
C38   C     C_R   0.649959 0.168164 0.257395 0.000610
C39   C     C_R   0.677560 0.235693 0.320953 0.075769
C40   C     C_R   0.645138 0.314679 0.316471 -0.167359
C41   C     C_R   0.654072 0.089436 0.268205 -0.062895
C42   C     C_R   0.716368 0.079183 0.337110 -0.019441
C43   C     C_R   0.757241 0.146600 0.396180 -0.160456
C44   C     C_R   0.732340 0.223031 0.389197 -0.160794
H3    H     H_    0.509937 0.479302 0.168578 0.126637
O11   O     O_R   0.775690 0.057750 0.940570 -0.512381
O12   O     O_R   0.441200 0.093570 0.087490 -0.529421
O13   O     O_R   0.265840 0.942320 0.059480 -0.529751
C45   C     C_R   0.609366 0.114797 0.116446 0.711956
O14   O     O_R   0.446270 0.067110 0.942790 -0.526827
O15   O     O_R   0.270950 0.915660 0.913750 -0.540362
C46   C     C_R   0.615341 0.084206 0.919549 0.749894
O16   O     O_R   0.770580 0.084400 0.086300 -0.529840
O17   O     O_3   0.602640 0.950400 0.990690 -0.362602
V3    V     V_3+5 0.329740 0.009200 0.001730 1.483752
O18   O     O_R   0.940900 0.906360 0.912450 -0.520681
C47   C     C_R   0.109162 0.884569 0.884047 0.714382
O19   O     O_R   0.935830 0.932820 0.057160 -0.508495
C48   C     C_R   0.103966 0.915734 0.080401 0.758889
V4    V     V_3+5 0.829130 0.990680 0.998180 1.521396
O20   O     O_3   0.106100 0.049590 0.009310 -0.365219
H4    H     H_    0.408544 0.859475 0.563730 0.143976
H5    H     H_    0.577766 0.458003 0.288846 0.102345
H6    H     H_    0.495663 0.365208 0.054960 0.128252
H7    H     H_    0.545841 0.229342 0.061066 0.085980
C49   C     C_2   0.553761 0.021087 0.216281 0.748888
O21   O     O_2   0.378100 0.018903 0.215999 -0.564056
O22   O     O_R   0.658546 0.959349 0.168657 -0.630473
H8    H     H_    0.573247 0.915070 0.137484 0.295760
C50   C     C_2   0.731987 0.999027 0.350836 0.779848
O23   O     O_2   0.702372 0.992102 0.413283 -0.558322
O24   O     O_R   0.786116 0.931942 0.293571 -0.643517
H9    H     H_    0.792315 0.881405 0.310388 0.299544
H10   H     H_    0.757854 0.272200 0.438514 0.115319
H11   H     H_    0.032208 0.543777 0.707284 0.116117
H12   H     H_    0.921334 0.522789 0.822253 0.155845
C51   C     C_2   0.885687 0.633093 0.957976 0.747709
O25   O     O_2   0.841343 0.565628 0.960534 -0.559539
O26   O     O_R   0.874496 0.697440 0.022540 -0.679098
H13   H     H_    0.828618 0.680501 0.067432 0.297404
H14   H     H_    0.997782 0.771869 0.935053 0.130839
C52   C     C_2   0.113950 0.982680 0.783320 0.717692
O27   O     O_2   0.942818 0.981928 0.798188 -0.559105
O28   O     O_R   0.219407 0.054189 0.805644 -0.665922
H15   H     H_    0.140058 0.100498 0.836364 0.288473
H16   H     H_    0.326990 0.977100 0.665599 0.151382

loop_
_geom_bond_atom_site_label_1
_geom_bond_atom_site_label_2
_ccdc_geom_bond_type
C41   C42   A    
O26   H13   S    
C32   H3    S    
C28   C29   S    
C7    C8    A    
C12   C15   A    
C1    O6    A    
C17   H4    S    
C31   C32   A    
C16   C17   A    
C36   C40   A    
C34   H7    S    
C23   C24   T    
C50   O24   S    
C6    C7    A    
O5    C3    A    
C25   C26   T    
O17   V4    S    
V2    O10   S    
C42   C43   A    
C21   C22   T    
C3    C24   S    
O12   C45   A    
O8    V2    S    
C22   C23   S    
O17   V3    S    
C35   C37   A    
C52   O28   S    
O18   V4    S    
C11   C12   A    
O13   C48   A    
O18   C47   A    
O1    V2    S    
O7    V1    S    
C38   C41   A    
C16   H16   S    
O11   C46   A    
O9    C4    A    
C15   C52   S    
C42   C50   S    
C45   O16   A    
V4    O20   S    
C37   C38   A    
C6    H12   S    
C11   C47   S    
C5    H11   S    
C12   C13   A    
O19   V4    S    
C19   C48   S    
O4    C2    A    
O24   H9    S    
O19   C48   A    
C13   C14   A    
O15   C47   A    
C4    C14   S    
O13   V3    S    
O14   C46   A    
O2    C1    A    
C17   C18   A    
C51   O26   S    
C33   C34   A    
H2    C43   S    
O8    C3    A    
C52   O27   D    
C5    C6    A    
C37   C45   S    
O16   V4    S    
O14   V3    S    
C50   O23   D    
O3    C4    A    
C49   O22   S    
C34   C35   A    
C8    H14   S    
C1    C25   S    
O22   H8    S    
O6    V2    S    
C9    C11   A    
C35   C36   A    
C29   C30   T    
O2    V1    S    
C51   O25   D    
C38   C39   A    
O12   V3    S    
C13   C18   A    
C32   C33   A    
C27   C28   T    
O1    C2    A    
C49   O21   D    
C44   H10   S    
O5    V1    S    
C39   C44   A    
C39   C40   A    
C5    C10   A    
C2    C40   S    
C19   C20   T    
O9    V2    S    
O7    V2    S    
O4    V1    S    
O3    V1    S    
V1    O10   S    
C41   C49   S    
C43   C44   A    
C18   H1    S    
C31   C36   A    
C30   C46   S    
O15   V3    S    
O11   V4    S    
C20   C21   S    
V3    O20   S    
C7    C51   S    
C26   C27   S    
C8    C9    A    
O28   H15   S    
C10   C14   A    
C15   C16   A    
C31   H5    S    
C33   H6    S    
C9    C10   A    
