data_mof_unit_15074.cif
_audit_creation_date              2012-12-11T15:55:10-0500
_audit_creation_method            fapswitch 2.2
_symmetry_space_group_name_H-M    P1
_symmetry_Int_Tables_number       1
_space_group_crystal_system       triclinic
_cell_length_a                    8.226124
_cell_length_b                    18.77927
_cell_length_c                    18.994589
_cell_angle_alpha                 98.647517
_cell_angle_beta                  94.430726
_cell_angle_gamma                 91.355828
_cell_volume                      2890.41609499

loop_
_atom_site_label
_atom_site_type_symbol
_atom_type_description
_atom_site_fract_x
_atom_site_fract_y
_atom_site_fract_z
_atom_type_partial_charge
Ba1   Ba    Ba6+2 0.152460 0.535140 0.468980 1.641555
Ba2   Ba    Ba6+2 0.657710 0.464850 0.530960 1.645207
C1    C     C_3   0.329148 0.711157 0.212323 -0.362137
C2    C     C_3   0.364093 0.690715 0.286424 0.372740
C3    C     C_3   0.511692 0.683658 0.643816 0.310601
C4    C     C_3   0.520821 0.765066 0.665555 -0.392164
C5    C     C_3   0.906656 0.264326 0.671424 0.360105
C6    C     C_3   0.930104 0.191097 0.696106 -0.278456
C7    C     C_3   0.399855 0.286074 0.712174 0.809528
C8    C     C_3   0.354358 0.231219 0.759309 -0.220601
C9    C     C_R   0.997087 0.952179 0.537628 0.024990
C10   C     C_R   0.082772 0.903641 0.575697 -0.084804
C11   C     C_R   0.218848 0.047040 0.563716 -0.095980
C12   C     C_3   0.856124 0.733389 0.301007 0.328232
C13   C     C_R   0.059626 0.023341 0.535128 0.018117
C14   C     C_R   0.276339 0.117200 0.563555 -0.104502
C15   C     C_R   0.178198 0.167498 0.535102 -0.040649
C16   C     C_R   0.021954 0.144496 0.501576 0.003071
C17   C     C_R   0.962738 0.072006 0.501022 0.025552
C18   C     C_R   0.231600 0.240210 0.539142 -0.022632
C19   C     C_R   0.127794 0.289479 0.512549 -0.283813
C20   C     C_R   0.978886 0.267389 0.474475 0.040304
C21   C     C_R   0.926303 0.193612 0.467519 -0.042805
C22   C     C_R   0.841838 0.928980 0.502757 0.043148
C23   C     C_3   0.751970 0.758793 0.240282 -0.429742
C24   C     C_R   0.783367 0.856228 0.501497 0.010622
C25   C     C_R   0.880294 0.806807 0.534587 -0.029938
C26   C     C_R   0.025168 0.833163 0.574548 -0.024805
C27   C     C_R   0.782069 0.167057 0.427194 -0.024726
C28   C     C_R   0.723167 0.096928 0.427043 -0.086876
C29   C     C_R   0.807662 0.048773 0.466037 0.014376
C30   C     C_R   0.745045 0.977636 0.468603 0.023431
C31   C     C_R   0.586464 0.953716 0.439359 -0.101183
C32   C     C_R   0.627756 0.833023 0.467316 -0.044466
C33   C     C_R   0.529764 0.883277 0.438644 -0.096987
C34   C     C_3   0.790832 0.380632 0.311650 0.311756
C35   C     C_R   0.574523 0.760227 0.463022 -0.016360
C36   C     C_R   0.678054 0.711041 0.490177 -0.289345
C37   C     C_R   0.828608 0.732886 0.527015 0.045897
C38   C     C_R   0.605774 0.533401 0.301705 -0.281647
C39   C     C_R   0.461403 0.494350 0.276462 0.064358
C40   C     C_R   0.408004 0.486941 0.203804 -0.127660
C41   C     C_R   0.500863 0.517258 0.155653 -0.013903
C42   C     C_R   0.650564 0.553720 0.181655 -0.146276
C43   C     C_R   0.703526 0.560693 0.254368 0.004210
C44   C     C_R   0.464471 0.565453 0.039142 -0.075357
C45   C     C_3   0.769281 0.362803 0.230601 -0.393316
C46   C     C_R   0.412250 0.557353 0.966455 -0.082495
C47   C     C_R   0.340389 0.491733 0.930627 0.059130
C48   C     C_R   0.319875 0.434760 0.969759 -0.059701
C49   C     C_R   0.371441 0.442999 0.042660 -0.078132
C50   C     C_R   0.444869 0.508419 0.078220 0.063092
C51   C     C_R   0.144306 0.444630 0.823484 -0.119726
C52   C     C_R   0.097733 0.438315 0.750019 0.012555
C53   C     C_R   0.339909 0.507567 0.733615 0.021353
C54   C     C_R   0.387151 0.514421 0.806625 -0.086560
C55   C     C_R   0.290722 0.482561 0.852530 0.022950
C56   C     C_3   0.013457 0.618555 0.688438 0.311383
C57   C     C_R   0.199104 0.467374 0.705302 -0.264416
C58   C     C_3   0.033992 0.636399 0.769521 -0.395859
C59   C     C_3   0.296386 0.318191 0.368557 0.314364
C60   C     C_3   0.291805 0.236894 0.345710 -0.392249
H1    H     H_    0.293532 0.640025 0.288429 0.096218
H2    H     H_    0.672352 0.320029 0.214306 0.123860
H3    H     H_    0.734352 0.411181 0.206977 0.068005
H4    H     H_    0.885549 0.343756 0.209615 0.126911
H5    H     H_    0.129813 0.600203 0.668222 0.003312
H6    H     H_    0.918355 0.575012 0.673401 0.073571
H7    H     H_    0.136741 0.676312 0.786159 0.126683
H8    H     H_    0.059480 0.587233 0.793471 0.060039
H9    H     H_    0.920212 0.659158 0.789918 0.126525
H10   H     H_    0.173256 0.335203 0.381472 0.006019
H11   H     H_    0.383899 0.331744 0.416483 0.070829
H12   H     H_    0.196495 0.717359 0.200771 0.157173
H13   H     H_    0.201537 0.221530 0.298984 0.124052
H14   H     H_    0.256661 0.208887 0.389885 0.061370
H15   H     H_    0.414186 0.219144 0.331015 0.119171
H16   H     H_    0.496356 0.681459 0.294985 -0.074205
H17   H     H_    0.371011 0.668386 0.171576 0.064416
H18   H     H_    0.634608 0.665408 0.630961 0.014607
H19   H     H_    0.424569 0.670740 0.595636 0.063261
H20   H     H_    0.609905 0.780070 0.712768 0.126915
H21   H     H_    0.560346 0.791518 0.620984 0.056659
H22   H     H_    0.398934 0.784620 0.678982 0.120065
H23   H     H_    0.393413 0.762894 0.208616 0.111240
H24   H     H_    0.665045 0.799118 0.262199 0.085290
H25   H     H_    0.818927 0.258791 0.623328 0.085968
H26   H     H_    0.026116 0.282137 0.655760 -0.080941
H27   H     H_    0.008764 0.158202 0.660086 0.036392
H28   H     H_    0.991175 0.198561 0.751020 0.089489
H29   H     H_    0.284207 0.305929 0.689319 -0.196623
H30   H     H_    0.271483 0.255463 0.799103 0.049828
H31   H     H_    0.465588 0.213845 0.788127 0.127769
H32   H     H_    0.291880 0.183234 0.726049 0.038013
H33   H     H_    0.168095 0.345412 0.517739 0.069929
H34   H     H_    0.398983 0.131358 0.586656 0.122582
H35   H     H_    0.097359 0.799727 0.605411 0.094018
H36   H     H_    0.711250 0.200125 0.395406 0.097433
H37   H     H_    0.407616 0.868959 0.414860 0.128712
H38   H     H_    0.637602 0.655161 0.485361 0.072814
H39   H     H_    0.304450 0.012182 0.585824 0.081821
H40   H     H_    0.194950 0.918672 0.608193 0.057595
H41   H     H_    0.611342 0.081741 0.394332 0.059524
H42   H     H_    0.775201 0.713502 0.338758 -0.067369
H43   H     H_    0.500893 0.988604 0.417263 0.076565
H44   H     H_    0.498327 0.544967 0.827343 0.069587
H45   H     H_    0.426952 0.602914 0.938433 0.059428
H46   H     H_    0.518580 0.616797 0.064987 0.059613
H47   H     H_    0.294944 0.457021 0.184971 0.085128
H48   H     H_    0.267164 0.383241 0.943649 0.070216
H49   H     H_    0.356895 0.397543 0.070846 0.061323
H50   H     H_    0.063743 0.422780 0.857984 0.070740
H51   H     H_    0.728568 0.574171 0.145310 0.074289
H52   H     H_    0.162234 0.463221 0.648852 0.061613
H53   H     H_    0.830019 0.783562 0.204589 0.122257
H54   H     H_    0.648179 0.537879 0.357604 0.069874
H55   H     H_    0.682421 0.712298 0.207846 0.105785
H56   H     H_    0.672980 0.396763 0.331976 0.007473
H57   H     H_    0.882574 0.425716 0.326453 0.070261
O1    O     O_2   0.118870 0.674530 0.547560 -0.464372
O2    O     O_3   0.344179 0.351286 0.311881 -0.635543
O3    O     O_3   0.964158 0.682045 0.271684 -0.596904
O4    O     O_2   0.691430 0.325420 0.452420 -0.466197
O5    O     O_3   0.939830 0.414660 0.457830 -0.494266
O6    O     O_3   0.456020 0.368240 0.581510 -0.477758
O7    O     O_3   0.842249 0.319113 0.338954 -0.640525
O8    O     O_3   0.374170 0.535780 0.585810 -0.477473
O9    O     O_3   0.871300 0.403980 0.619270 -0.488183
O10   O     O_2   0.762651 0.447850 0.746733 -0.467155
O11   O     O_3   0.850361 0.313728 0.726856 -0.561161
O12   O     O_3   0.870460 0.585330 0.542110 -0.492616
O13   O     O_3   0.436130 0.464210 0.414140 -0.490429
O14   O     O_2   0.629420 0.533310 0.672080 -0.462904
O15   O     O_3   0.459438 0.651509 0.700636 -0.642103
O16   O     O_2   0.567330 0.242185 0.527705 -0.496518
O17   O     O_3   0.499495 0.253003 0.660411 -0.603685
O18   O     O_3   0.354280 0.631750 0.418430 -0.490042
O19   O     O_2   0.235526 0.757112 0.468870 -0.468423
O20   O     O_3   0.968740 0.680836 0.660978 -0.643151
O21   O     O_3   0.316912 0.746468 0.337858 -0.589351
O22   O     O_2   0.180880 0.466650 0.327890 -0.463058
O23   O     O_3   0.939000 0.596010 0.380670 -0.469232
O24   O     O_2   0.037862 0.547056 0.252910 -0.490333
P1    P     P_3+3 0.947550 0.663200 0.567530 0.977057
P2    P     P_3+3 0.354660 0.445020 0.336980 0.981612
P3    P     P_3+3 0.909386 0.595933 0.288566 0.955897
P4    P     P_3+3 0.862750 0.336790 0.432410 0.972918
P5    P     P_3+3 0.895645 0.401514 0.711379 0.988126
P6    P     P_3+3 0.370673 0.724898 0.422979 0.960241
P7    P     P_3+3 0.448993 0.557849 0.675243 0.941886
P8    P     P_3+3 0.437620 0.274980 0.576269 0.937997
C61   C     C_1   0.774944 0.150760 0.695124 0.343427
N1    N     N_1   0.653470 0.118176 0.694275 -0.304586
O25   O     O_3   0.487137 0.343606 0.754930 -0.701361
H58   H     H_    0.498083 0.381057 0.723952 0.318374
C62   C     C_1   0.952625 0.795323 0.340740 0.333665
N2    N     N_1   0.028748 0.844432 0.371558 -0.289325

loop_
_geom_bond_atom_site_label_1
_geom_bond_atom_site_label_2
_ccdc_geom_bond_type
C26   H35   S    
C56   O20   S    
O24   P3    D    
C53   C54   A    
C57   H52   S    
C12   O3    S    
C53   C57   A    
C1    H23   S    
C32   C35   A    
C39   C40   A    
O23   P3    S    
C60   H15   S    
Ba1   P2    S    
O1    P1    D    
Ba1   O13   S    
C1    H17   S    
C7    H29   S    
C5    C6    S    
Ba2   O4    S    
C13   C17   A    
C2    H1    S    
C24   C25   A    
C35   C36   A    
C27   H36   S    
C10   C26   A    
C4    H20   S    
O13   P2    S    
C21   C27   A    
C62   N2    T    
C6    C61   S    
C40   H47   S    
C22   C24   A    
C16   C17   A    
C23   H53   S    
O8    P7    S    
C3    C4    S    
C41   C50   S    
C46   H45   S    
C8    H32   S    
C56   C58   S    
O15   P7    S    
C44   C50   A    
C9    C22   A    
C48   H48   S    
C15   C18   A    
C47   C55   S    
C54   C55   A    
C34   C45   S    
C59   O2    S    
C32   C33   A    
C1    H12   S    
C34   H57   S    
O10   P5    D    
Ba1   O23   S    
O6    P8    S    
C9    C13   A    
C24   C32   A    
C5    H25   S    
C29   C30   A    
C25   C37   A    
C14   C15   A    
C5    O11   S    
C44   H46   S    
C28   H41   S    
Ba2   O13   S    
C34   H56   S    
C7    C8    S    
C45   H4    S    
O22   P2    D    
Ba2   O8    S    
C8    H30   S    
C19   C20   A    
O18   P6    S    
C38   C43   A    
C33   H37   S    
C48   C49   A    
C52   C57   A    
O19   P6    D    
C3    O15   S    
O5    P4    S    
C44   C46   A    
C14   H34   S    
Ba2   O14   S    
C4    H22   S    
O11   P5    S    
C49   C50   A    
C36   C37   A    
C36   H38   S    
C45   H2    S    
C51   C55   A    
O9    P5    S    
C19   H33   S    
C8    H31   S    
C59   H11   S    
Ba2   P4    S    
C51   C52   A    
C43   P3    S    
Ba1   O1    S    
C41   C42   A    
C22   C30   A    
C10   H40   S    
C27   C28   A    
C17   C29   A    
C2    O21   S    
C3    H19   S    
O20   P1    S    
C12   H42   S    
C5    H26   S    
C58   H8    S    
C28   C29   A    
O7    P4    S    
Ba2   O12   S    
C31   H43   S    
C18   C19   A    
C3    H18   S    
C54   H44   S    
O25   H58   S    
Ba2   O6    S    
C51   H50   S    
C56   H6    S    
C38   C39   A    
O4    P4    D    
C7    O25   S    
C11   C13   A    
O2    P2    S    
C60   H13   S    
C6    H28   S    
C40   C41   A    
C11   H39   S    
C1    C2    S    
O17   P8    S    
Ba1   O18   S    
C42   C43   A    
C59   H10   S    
C53   P7    S    
C52   P5    S    
C46   C47   A    
C49   H49   S    
C4    H21   S    
C60   H14   S    
C12   C62   S    
C34   O7    S    
O14   P7    D    
Ba1   O8    S    
C35   P6    S    
C20   P4    S    
Ba1   O12   S    
C23   H55   S    
C42   H51   S    
C9    C10   A    
C18   P8    S    
C6    H27   S    
Ba2   O5    S    
C2    H16   S    
C58   H9    S    
C15   C16   A    
C30   C31   A    
Ba1   O5    S    
Ba1   P1    S    
C38   H54   S    
C58   H7    S    
C16   C21   A    
O16   P8    D    
Ba1   Ba2   S    
C23   H24   S    
C31   C33   A    
O3    P3    S    
C12   C23   S    
C59   C60   S    
Ba1   O22   S    
C7    O17   S    
C56   H5    S    
C39   P2    S    
C37   P1    S    
C47   C48   A    
C11   C14   A    
C25   C26   A    
C20   C21   A    
C61   N1    T    
O21   P6    S    
C45   H3    S    
O12   P1    S    
Ba2   O9    S    
