data_mof_unit_14951.cif
_audit_creation_date              2012-12-10T19:03:37-0500
_audit_creation_method            fapswitch 2.2
_symmetry_space_group_name_H-M    P1
_symmetry_Int_Tables_number       1
_space_group_crystal_system       triclinic
_cell_length_a                    15.870908
_cell_length_b                    10.773985
_cell_length_c                    9.580582
_cell_angle_alpha                 90.279764
_cell_angle_beta                  89.946258
_cell_angle_gamma                 91.289439
_cell_volume                      1637.77681345

loop_
_atom_site_label
_atom_site_type_symbol
_atom_type_description
_atom_site_fract_x
_atom_site_fract_y
_atom_site_fract_z
_atom_type_partial_charge
C1    C     C_R   0.500740 0.262570 0.499975 0.802512
C2    C     C_3   0.949550 0.389018 0.580020 -0.045484
C3    C     C_3   0.917231 0.502456 0.495215 0.242085
C4    C     C_3   0.952743 0.623787 0.563373 -0.436988
C5    C     C_3   0.050951 0.625443 0.563602 -0.040218
C6    C     C_1   0.824929 0.504958 0.496697 -0.107767
C7    C     C_1   0.175487 0.498841 0.498497 -0.129365
C8    C     C_1   0.250921 0.497959 0.500196 -0.190318
C9    C     C_R   0.477034 0.063792 0.617737 0.131244
C10   C     C_R   0.506601 0.129590 0.502025 -0.077561
C11   C     C_R   0.546741 0.065897 0.393578 -0.226539
C12   C     C_R   0.340388 0.498795 0.500151 0.835658
C13   C     C_R   0.546560 0.936479 0.393713 -0.239446
C14   C     C_R   0.506714 0.871057 0.502690 -0.089404
C15   C     C_R   0.477065 0.936135 0.618144 0.118598
C16   C     C_3   0.392752 0.927477 0.687575 -0.475290
C17   C     C_3   0.392933 0.068330 0.687444 -0.477188
C18   C     C_R   0.556636 0.572372 0.073855 0.247414
C19   C     C_R   0.449460 0.419130 0.071643 0.044900
C20   C     C_R   0.449857 0.420225 0.923474 -0.113542
C21   C     C_R   0.556752 0.572109 0.926843 0.260063
C22   C     C_3   0.566516 0.709863 0.921273 -0.495506
C23   C     C_R   0.500899 0.737546 0.500385 0.791264
C24   C     C_3   0.565919 0.710295 0.079530 -0.519643
C25   C     C_R   0.659703 0.501545 0.499765 0.822687
C26   C     C_3   0.047826 0.392691 0.582091 -0.470995
C27   C     C_3   0.048246 0.484618 0.341846 -0.036620
C28   C     C_3   0.950619 0.497123 0.342930 -0.395060
C29   C     C_1   0.749368 0.504097 0.498673 -0.189988
C30   C     C_3   0.083285 0.503205 0.494131 0.232461
Cu1   Cu    Cu3+1 0.500000 0.499980 0.640670 0.938142
Cu2   Cu    Cu3+1 0.500000 0.500020 0.359330 0.940165
H1    H     H_    0.069842 0.400966 0.692036 0.154316
H2    H     H_    0.926928 0.400262 0.689466 0.143882
H3    H     H_    0.927805 0.705426 0.507324 0.175482
H4    H     H_    0.575774 0.115576 0.307443 0.153164
H5    H     H_    0.575535 0.888112 0.307706 0.155182
H6    H     H_    0.343355 0.884584 0.619310 0.193339
H7    H     H_    0.396287 0.887826 0.794190 0.194243
H8    H     H_    0.343550 0.107518 0.619242 0.195419
H9    H     H_    0.397121 0.109648 0.793859 0.196986
H10   H     H_    0.073841 0.304327 0.541630 0.174773
H11   H     H_    0.408512 0.357391 0.865604 0.144962
H12   H     H_    0.628144 0.739854 0.876019 0.192199
H13   H     H_    0.510749 0.755304 0.876113 0.216386
H14   H     H_    0.627210 0.740908 0.125646 0.188056
H15   H     H_    0.509502 0.755621 0.123626 0.215590
H16   H     H_    0.061347 0.386717 0.312639 0.134139
H17   H     H_    0.921013 0.417425 0.285598 0.142788
H18   H     H_    0.931446 0.582303 0.287078 0.166191
H19   H     H_    0.071160 0.622454 0.674621 0.148512
H20   H     H_    0.929613 0.631118 0.672820 0.147183
N1    N     N_R   0.500530 0.500930 0.147930 -0.203240
N2    N     N_R   0.500530 0.500890 0.852020 -0.190543
O1    O     O_R   0.500000 0.319640 0.618810 -0.584566
O2    O     O_R   0.500010 0.319680 0.381230 -0.576053
O3    O     O_R   0.379430 0.499990 0.618840 -0.575950
O4    O     O_R   0.379440 0.500030 0.381260 -0.576709
O5    O     O_R   0.499990 0.680320 0.618770 -0.580251
O6    O     O_R   0.500000 0.680360 0.381190 -0.587047
O7    O     O_R   0.620560 0.499970 0.618740 -0.573891
O8    O     O_R   0.620570 0.500010 0.381160 -0.578066
C31   C     C_3   0.914601 0.261903 0.524910 -0.392813
C32   C     C_3   0.923548 0.158289 0.633114 -0.360565
C33   C     C_3   0.887048 0.035159 0.578162 -0.859660
H21   H     H_    0.819579 0.044747 0.550321 0.255262
H22   H     H_    0.922571 0.004472 0.484671 0.251607
H23   H     H_    0.891604 0.963126 0.660087 0.234126
H24   H     H_    0.990934 0.146179 0.659640 0.224154
H25   H     H_    0.889355 0.183522 0.730150 0.212582
H26   H     H_    0.846605 0.268414 0.499569 0.206839
H27   H     H_    0.947682 0.235661 0.427112 0.196057
C34   C     C_R   0.393093 0.325831 0.137355 0.167535
C35   C     C_R   0.309240 0.354000 0.168956 -0.116792
C36   C     C_R   0.254645 0.262492 0.223067 -0.159006
C37   C     C_R   0.282202 0.141225 0.239913 -0.137085
C38   C     C_R   0.363997 0.110806 0.200655 -0.138510
C39   C     C_R   0.418881 0.202329 0.147510 -0.144323
H28   H     H_    0.286584 0.446967 0.153335 0.130459
H29   H     H_    0.190847 0.285230 0.251171 0.120445
H30   H     H_    0.239767 0.070462 0.281221 0.125049
H31   H     H_    0.384770 0.016268 0.210823 0.139675
H32   H     H_    0.481627 0.177334 0.114890 0.115468
C40   C     C_3   0.091060 0.567346 0.228277 -0.407012
C41   C     C_3   0.083063 0.508908 0.082224 -0.374789
C42   C     C_3   0.130970 0.586321 0.973875 -0.867216
H33   H     H_    0.100826 0.677516 0.960214 0.245929
H34   H     H_    0.197663 0.601540 0.005946 0.254103
H35   H     H_    0.130603 0.536046 0.872725 0.234705
H36   H     H_    0.109478 0.414272 0.082548 0.211633
H37   H     H_    0.015593 0.501084 0.051707 0.216720
H38   H     H_    0.062991 0.660535 0.225740 0.198981
H39   H     H_    0.159198 0.580728 0.250875 0.207066
C43   C     C_3   0.088875 0.747931 0.501864 -0.398650
C44   C     C_3   0.094372 0.851884 0.611999 -0.362610
C45   C     C_3   0.130737 0.972007 0.550154 -0.867151
H40   H     H_    0.195140 0.956954 0.508840 0.247945
H41   H     H_    0.089831 0.005122 0.464664 0.249281
H42   H     H_    0.134695 0.044783 0.632479 0.239776
H43   H     H_    0.030720 0.869350 0.654911 0.225070
H44   H     H_    0.135680 0.823141 0.699222 0.217359
H45   H     H_    0.153469 0.733410 0.461377 0.204595
H46   H     H_    0.050128 0.780111 0.413347 0.197016

loop_
_geom_bond_atom_site_label_1
_geom_bond_atom_site_label_2
_ccdc_geom_bond_type
C27   H16   S    
C18   C21   A    
C34   C35   A    
Cu1   O7    S    
C19   C20   A    
Cu2   O4    S    
C3    C6    S    
C5    C43   S    
C41   H37   S    
C7    C8    T    
C38   C39   A    
C23   O5    A    
C4    H20   S    
C18   C24   S    
C3    C28   S    
C1    O2    A    
C21   N2    A    
C42   H34   S    
C15   C16   S    
C45   H42   S    
Cu1   O5    S    
C18   N1    A    
C28   H18   S    
C39   H32   S    
C22   H12   S    
C44   C45   S    
C16   C17   S    
C33   H22   S    
C45   H41   S    
C34   C39   A    
C32   H25   S    
C9    C10   A    
C13   H5    S    
C40   H39   S    
C12   O4    A    
C19   N1    A    
C4    H3    S    
C7    C30   S    
C21   C22   S    
C27   C30   S    
C25   C29   S    
C23   O6    A    
C35   C36   A    
C19   C34   S    
C40   C41   S    
C20   N2    A    
C42   H33   S    
C41   C42   S    
C17   H8    S    
C11   H4    S    
C14   C23   S    
C36   C37   A    
C28   H17   S    
C26   H1    S    
Cu1   Cu2   S    
C8    C12   S    
C33   H23   S    
C45   H40   S    
C6    C29   T    
C2    C26   S    
C25   O7    A    
C32   H24   S    
C37   C38   A    
C12   O3    A    
C9    C17   S    
C31   H26   S    
C43   H46   S    
C26   C30   S    
C35   H28   S    
C22   C24   S    
Cu2   O6    S    
C3    C4    S    
Cu2   N1    S    
C20   H11   S    
C2    C31   S    
C26   H10   S    
C5    C30   S    
C36   H29   S    
C27   C40   S    
C44   H43   S    
C24   H15   S    
C1    C10   S    
C4    C5    S    
C42   H35   S    
C37   H30   S    
C41   H36   S    
C24   H14   S    
C32   C33   S    
Cu1   O3    S    
C2    C3    S    
C1    O1    A    
Cu2   O8    S    
C11   C13   A    
C2    H2    S    
C38   H31   S    
C25   O8    A    
Cu1   N2    S    
C9    C15   A    
C43   C44   S    
C17   H9    S    
C10   C11   A    
C16   H7    S    
C31   C32   S    
C22   H13   S    
C31   H27   S    
C43   H45   S    
C33   H21   S    
C27   C28   S    
C14   C15   A    
C5    H19   S    
C40   H38   S    
Cu1   O1    S    
C13   C14   A    
Cu2   O2    S    
C44   H44   S    
C16   H6    S    
