data_mof_unit_40216.cif
_audit_creation_date              2012-12-11T17:05:30-0500
_audit_creation_method            fapswitch 2.2
_symmetry_space_group_name_H-M    P1
_symmetry_Int_Tables_number       1
_space_group_crystal_system       triclinic
_cell_length_a                    7.01061
_cell_length_b                    14.772807
_cell_length_c                    15.885255
_cell_angle_alpha                 89.865702
_cell_angle_beta                  89.671742
_cell_angle_gamma                 90.039471
_cell_volume                      1645.14656521

loop_
_atom_site_label
_atom_site_type_symbol
_atom_type_description
_atom_site_fract_x
_atom_site_fract_y
_atom_site_fract_z
_atom_type_partial_charge
O1    O     O_R   0.494380 0.415640 0.412830 -0.544991
O2    O     O_R   0.823960 0.405540 0.586560 -0.517253
O3    O     O_R   0.994270 0.584360 0.587170 -0.530143
C1    C     C_R   0.655452 0.387086 0.617773 0.734725
O4    O     O_R   0.824090 0.404620 0.413450 -0.507513
O5    O     O_R   0.994400 0.583430 0.412820 -0.548459
C2    C     C_R   0.654090 0.380869 0.386233 0.747549
O6    O     O_R   0.494250 0.416570 0.587180 -0.549281
O7    O     O_3   0.660800 0.558670 0.500000 -0.389117
V1    V     V_3+5 0.935650 0.489120 0.500000 1.555633
O8    O     O_R   0.324110 0.594460 0.413440 -0.555002
C3    C     C_R   0.155760 0.616817 0.385205 0.781705
O9    O     O_R   0.323980 0.595380 0.586550 -0.519641
C4    C     C_R   0.154817 0.612976 0.618203 0.852154
V2    V     V_3+5 0.435660 0.510880 0.500000 1.480948
O10   O     O_3   0.160640 0.441330 0.500000 -0.354752
C5    C     C_3   0.941409 0.680441 0.733094 0.069187
H1    H     H_    0.831412 0.699628 0.686709 0.125330
C6    C     C_3   0.934069 0.748365 0.809489 0.665111
H2    H     H_    0.054448 0.902730 0.698794 0.054880
C7    C     C_3   0.163755 0.778784 0.646186 0.507168
C8    C     C_3   0.298330 0.667231 0.758072 0.621448
C9    C     C_3   0.141501 0.683265 0.687870 -0.185645
C10   C     C_3   0.119681 0.810453 0.808407 -0.252270
C11   C     C_3   0.162691 0.853050 0.717353 0.141032
C12   C     C_3   0.287997 0.744067 0.825793 -0.311967
H3    H     H_    0.278047 0.714544 0.890189 0.222106
H4    H     H_    0.421614 0.782402 0.828438 0.215666
C13   C     C_R   0.230001 0.740128 0.177241 -0.007697
C14   C     C_R   0.114275 0.816690 0.184464 -0.272072
C15   C     C_R   0.003541 0.826004 0.259980 0.270444
C16   C     C_R   0.019426 0.760835 0.325774 0.427838
C17   C     C_R   0.144028 0.685891 0.317405 -0.296355
C18   C     C_R   0.243401 0.675466 0.241031 -0.138737
C19   C     C_3   0.453133 0.661932 0.225277 0.277227
C20   C     C_3   0.437414 0.732770 0.155409 0.624235
H5    H     H_    0.538066 0.683170 0.280436 0.004962
C21   C     C_R   0.487635 0.264707 0.696245 -0.073847
C22   C     C_R   0.645077 0.321508 0.688312 -0.176394
C23   C     C_R   0.783693 0.317920 0.751988 -0.210708
H6    H     H_    0.901674 0.365234 0.750975 0.172760
C24   C     C_R   0.766259 0.256008 0.819978 0.416094
C25   C     C_R   0.617267 0.191285 0.821288 -0.217577
C26   C     C_R   0.473052 0.200075 0.760658 -0.055021
C27   C     C_3   0.267692 0.224504 0.776313 0.179360
C28   C     C_3   0.285724 0.295878 0.707596 0.290109
H7    H     H_    0.242624 0.251864 0.840509 0.131377
H8    H     H_    0.278007 0.365563 0.733715 0.045948
C29   C     C_R   0.487447 0.308941 0.262381 -0.193129
C30   C     C_R   0.640333 0.310341 0.319304 -0.233735
C31   C     C_R   0.770407 0.238037 0.315458 0.530734
C32   C     C_R   0.771865 0.177647 0.246364 0.273603
C33   C     C_R   0.627314 0.182180 0.183188 -0.251155
C34   C     C_R   0.483762 0.247367 0.194401 -0.090720
C35   C     C_3   0.277870 0.224821 0.205726 0.110453
C36   C     C_3   0.281194 0.285063 0.284321 0.931342
H9    H     H_    0.252588 0.151440 0.214395 0.071569
O11   O     O_R   0.771490 0.080820 0.910070 -0.517427
O12   O     O_R   0.441590 0.092730 0.083780 -0.558567
O13   O     O_R   0.271350 0.913900 0.084390 -0.515743
C37   C     C_R   0.611250 0.113551 0.113930 0.731802
O14   O     O_R   0.441780 0.091820 0.910670 -0.546974
O15   O     O_R   0.271540 0.912980 0.910040 -0.541690
C38   C     C_R   0.610421 0.117144 0.884998 0.719780
O16   O     O_R   0.771300 0.081740 0.084420 -0.551521
O17   O     O_3   0.604960 0.938700 0.997240 -0.345089
V3    V     V_3+5 0.330090 0.008230 0.997220 1.470821
O18   O     O_R   0.941820 0.901930 0.910640 -0.517064
C39   C     C_R   0.110678 0.881620 0.879745 0.781171
O19   O     O_R   0.941630 0.902840 0.083750 -0.533836
C40   C     C_R   0.109301 0.883227 0.114200 0.747010
V4    V     V_3+5 0.830090 0.986410 0.997190 1.524271
O20   O     O_3   0.105080 0.055990 0.997200 -0.385465
O21   O     O_3   0.336988 0.781955 0.600526 -0.620529
H10   H     H_    0.336289 0.837908 0.565675 0.329001
O22   O     O_3   0.345181 0.893721 0.716749 -0.564866
C41   C     C_3   0.337078 0.988395 0.711437 -0.248499
H11   H     H_    0.294019 0.014221 0.773784 0.213941
H12   H     H_    0.242708 0.012271 0.659882 0.160952
H13   H     H_    0.481897 0.014690 0.697192 0.138758
O23   O     O_3   0.892141 0.901058 0.276392 -0.626346
H14   H     H_    0.889229 0.941080 0.226872 0.316384
O24   O     O_3   0.946724 0.780883 0.404889 -0.521635
C42   C     C_3   0.749204 0.763631 0.407190 -0.071842
H15   H     H_    0.695418 0.778254 0.471542 0.163714
H16   H     H_    0.718827 0.691382 0.394431 0.114802
H17   H     H_    0.669563 0.807915 0.363179 0.124483
O25   O     O_3   0.491923 0.574547 0.193700 -0.548140
C43   C     C_3   0.685081 0.553099 0.207687 -0.246636
H18   H     H_    0.781982 0.604423 0.178911 0.139055
H19   H     H_    0.716370 0.486813 0.178007 0.176918
H20   H     H_    0.714078 0.546441 0.276187 0.121452
O26   O     O_3   0.464548 0.698847 0.073789 -0.604532
H21   H     H_    0.604431 0.693260 0.065514 0.312936
O27   O     O_3   0.544393 0.812036 0.169961 -0.643720
H22   H     H_    0.509357 0.835930 0.226338 0.254712
O28   O     O_3   0.902242 0.590919 0.759162 -0.616469
H23   H     H_    0.764655 0.586937 0.772989 0.333279
O29   O     O_3   0.898901 0.257722 0.883829 -0.555496
C44   C     C_3   0.832653 0.317005 0.946917 -0.219172
H24   H     H_    0.695872 0.292710 0.974931 0.121395
H25   H     H_    0.816365 0.387198 0.922282 0.153115
H26   H     H_    0.939509 0.319124 0.998077 0.187649
O30   O     O_3   0.147448 0.152131 0.756083 -0.651214
H27   H     H_    0.024220 0.176527 0.737046 0.328431
O31   O     O_3   0.155372 0.285464 0.639687 -0.550332
C45   C     C_3   0.226706 0.234415 0.571639 -0.097050
H28   H     H_    0.250912 0.162919 0.590366 0.105500
H29   H     H_    0.358066 0.264572 0.544230 0.141961
H30   H     H_    0.119273 0.236032 0.521266 0.206693
O32   O     O_3   0.887061 0.220611 0.383384 -0.514763
C46   C     C_3   0.787809 0.162734 0.439517 -0.213547
H31   H     H_    0.668909 0.199413 0.471060 0.099759
H32   H     H_    0.886346 0.138936 0.489019 0.146665
H33   H     H_    0.733977 0.100712 0.407801 0.158104
O33   O     O_3   0.898330 0.106904 0.251006 -0.652386
H34   H     H_    0.959920 0.100092 0.195612 0.290724
O34   O     O_3   0.168425 0.261788 0.140399 -0.642806
H35   H     H_    0.173930 0.217924 0.093301 0.307091
O35   O     O_3   0.269520 0.243360 0.365728 -0.542518
C47   C     C_3   0.310898 0.149646 0.369239 -0.321114
H36   H     H_    0.339813 0.130558 0.435344 0.140889
H37   H     H_    0.439488 0.130886 0.332708 0.101348
H38   H     H_    0.186127 0.109284 0.349116 0.228121
O36   O     O_3   0.942634 0.696928 0.884769 -0.611982
H39   H     H_    0.814715 0.670768 0.896862 0.330505
O37   O     O_3   0.139096 0.354120 0.279707 -0.539950
C48   C     C_3   0.202583 0.436245 0.244273 -0.123531
H40   H     H_    0.261914 0.426541 0.179916 0.191744
H41   H     H_    0.307862 0.468695 0.286118 0.159367
H42   H     H_    0.079024 0.482615 0.238994 0.119682
O38   O     O_3   0.754294 0.793751 0.813232 -0.575467
C49   C     C_3   0.729542 0.875673 0.769003 -0.275540
H43   H     H_    0.694268 0.863751 0.702352 0.156741
H44   H     H_    0.837804 0.928116 0.777222 0.103599
H45   H     H_    0.610372 0.910191 0.800908 0.222108
O39   O     O_3   0.017600 0.792050 0.586088 -0.635641
H46   H     H_    0.904112 0.819716 0.612186 0.249099
O40   O     O_3   0.482129 0.663350 0.722500 -0.656787
H47   H     H_    0.522348 0.725235 0.707414 0.333450
O41   O     O_3   0.265137 0.584310 0.799645 -0.594060
H48   H     H_    0.296703 0.534843 0.759745 0.291443

loop_
_geom_bond_atom_site_label_1
_geom_bond_atom_site_label_2
_ccdc_geom_bond_type
C35   C36   S    
O26   H21   S    
C36   O35   S    
O27   H22   S    
C42   H17   S    
C7    O39   S    
C1    O6    A    
C48   H40   S    
C46   H32   S    
C14   C40   S    
C41   H11   S    
C32   C33   A    
C13   C20   S    
C12   H3    S    
C5    C9    S    
O14   V3    S    
C19   H5    S    
C42   H16   S    
O5    C3    A    
C14   C15   A    
C36   O37   S    
O31   C45   S    
C29   C34   A    
C28   O31   S    
O33   H34   S    
C5    H1    S    
C18   C19   S    
C27   H7    S    
O34   H35   S    
C46   H31   S    
C47   H38   S    
O14   C38   A    
O12   V3    S    
O8    V2    S    
C20   O26   S    
O17   V4    S    
O15   C39   A    
O13   V3    S    
O38   C49   S    
C10   C39   S    
C49   H45   S    
C45   H28   S    
O19   C40   A    
V3    O20   S    
C43   H19   S    
O7    V1    S    
C23   C24   A    
O17   V3    S    
O9    C4    A    
C45   H29   S    
C33   C37   S    
O30   H27   S    
C25   C38   S    
O28   H23   S    
O15   V3    S    
C32   O33   S    
O11   C38   A    
C21   C22   A    
C28   H8    S    
O12   C37   A    
C47   H37   S    
O21   H10   S    
C31   C32   A    
C42   H15   S    
C10   C11   S    
C22   C23   A    
O4    C2    A    
O18   C39   A    
O13   C40   A    
C33   C34   A    
C13   C18   A    
C6    O36   S    
C44   H26   S    
O23   H14   S    
C19   C20   S    
C4    C9    S    
O2    C1    A    
C25   C26   A    
O16   V4    S    
C21   C26   A    
C13   C14   A    
C27   O30   S    
C37   O16   A    
C19   O25   S    
O24   C42   S    
C1    C22   S    
O18   V4    S    
C44   H25   S    
C30   C31   A    
C41   H12   S    
O22   C41   S    
C43   H20   S    
C47   H36   S    
O3    C4    A    
O1    V2    S    
C23   H6    S    
O6    V2    S    
C7    C9    S    
O9    V2    S    
C8    C12   S    
C49   H43   S    
C45   H30   S    
C24   C25   A    
O37   C48   S    
C7    O21   S    
C48   H42   S    
O35   C47   S    
C41   H13   S    
C6    O38   S    
C16   O24   S    
C7    C11   S    
C34   C35   S    
C31   O32   S    
O32   C46   S    
O1    C2    A    
C15   C16   A    
C26   C27   S    
C2    C30   S    
C10   C12   S    
V4    O20   S    
C48   H41   S    
O5    V1    S    
O40   H47   S    
C29   C36   S    
O39   H46   S    
C12   H4    S    
C15   O23   S    
O29   C44   S    
C11   O22   S    
C16   C17   A    
C35   H9    S    
C6    C10   S    
O7    V2    S    
O4    V1    S    
O3    V1    S    
V1    O10   S    
C24   O29   S    
C20   O27   S    
O11   V4    S    
O36   H39   S    
C3    C17   S    
C8    O40   S    
C8    O41   S    
C44   H24   S    
C5    C6    S    
C17   C18   A    
C21   C28   S    
C27   C28   S    
O25   C43   S    
C29   C30   A    
H2    C11   S    
C49   H44   S    
C8    C9    S    
O19   V4    S    
C43   H18   S    
O41   H48   S    
C5    O28   S    
C46   H33   S    
V2    O10   S    
O8    C3    A    
C35   O34   S    
O2    V1    S    
