data_mof_unit_21125.cif
_audit_creation_date              2012-12-11T14:13:09-0500
_audit_creation_method            fapswitch 2.2
_symmetry_space_group_name_H-M    P1
_symmetry_Int_Tables_number       1
_space_group_crystal_system       triclinic
_cell_length_a                    11.704777
_cell_length_b                    18.43952
_cell_length_c                    9.963632
_cell_angle_alpha                 90.000012
_cell_angle_beta                  111.188444
_cell_angle_gamma                 90.000029
_cell_volume                      2005.07753318

loop_
_atom_site_label
_atom_site_type_symbol
_atom_type_description
_atom_site_fract_x
_atom_site_fract_y
_atom_site_fract_z
_atom_type_partial_charge
C1    C     C_R   0.072709 0.646201 0.139850 0.540115
C2    C     C_R   0.929213 0.352803 0.860303 0.550584
C3    C     C_R   0.929213 0.147197 0.860303 0.550587
C4    C     C_R   0.072709 0.853799 0.139850 0.540114
C5    C     C_R   0.392417 0.456079 0.470427 -0.011317
C6    C     C_R   0.604472 0.541279 0.520812 -0.014002
C7    C     C_R   0.604472 0.958721 0.520811 -0.014000
C8    C     C_R   0.392416 0.043921 0.470427 -0.011317
C9    C     C_2   0.368193 0.942035 0.986658 0.005630
C10   C     C_2   0.597446 0.073042 0.088792 -0.007632
C11   C     C_2   0.597446 0.426958 0.088792 -0.007634
C12   C     C_2   0.368193 0.557965 0.986657 0.005629
C13   C     C_2   0.448600 0.980267 0.094333 -0.209664
C14   C     C_2   0.482088 0.055718 0.074078 -0.221093
C15   C     C_2   0.482088 0.444283 0.074075 -0.221090
C16   C     C_2   0.448599 0.519733 0.094331 -0.209666
C17   C     C_2   0.018080 0.925195 0.117074 -0.040399
C18   C     C_2   0.990885 0.077953 0.882842 -0.055813
C19   C     C_2   0.990885 0.422047 0.882842 -0.055814
C20   C     C_2   0.018079 0.574805 0.117074 -0.040405
C21   C     C_2   0.012347 0.962812 0.000663 0.336672
C22   C     C_2   0.008164 0.041352 0.003463 0.350257
C23   C     C_2   0.008163 0.458649 0.003463 0.350250
C24   C     C_2   0.012346 0.537189 0.000662 0.336666
C25   C     C_R   0.469335 0.646921 0.442975 0.520895
C26   C     C_R   0.529970 0.352349 0.555575 0.530751
C27   C     C_R   0.529970 0.147651 0.555575 0.530753
C28   C     C_R   0.469335 0.853079 0.442975 0.520894
C29   C     C_R   0.353039 0.636650 0.007442 0.572430
C30   C     C_R   0.624522 0.356006 0.037400 0.559665
C31   C     C_R   0.624522 0.143994 0.037400 0.559668
C32   C     C_R   0.353039 0.863350 0.007443 0.572430
C33   C     C_R   0.503908 0.423335 0.483504 -0.008269
C34   C     C_R   0.493145 0.574389 0.509344 -0.010420
C35   C     C_R   0.493145 0.925611 0.509344 -0.010420
C36   C     C_R   0.503908 0.076664 0.483504 -0.008269
C37   C     C_R   0.283621 0.414881 0.433538 -0.149674
C38   C     C_R   0.714294 0.581584 0.557640 -0.148974
C39   C     C_R   0.714294 0.918416 0.557639 -0.148972
C40   C     C_R   0.283621 0.085119 0.433538 -0.149674
C41   C     C_R   0.176329 0.445965 0.436402 -0.025281
C42   C     C_R   0.819972 0.550178 0.549991 -0.032567
C43   C     C_R   0.819971 0.949822 0.549989 -0.032568
C44   C     C_R   0.176329 0.054034 0.436403 -0.025283
C45   C     C_R   0.176971 0.517623 0.479653 0.426615
C46   C     C_R   0.816390 0.479256 0.501070 0.409854
C47   C     C_R   0.816389 0.020745 0.501068 0.409845
C48   C     C_R   0.176971 0.982377 0.479654 0.426614
C49   C     C_R   0.283753 0.558547 0.516825 -0.053166
C50   C     C_R   0.709517 0.438732 0.467371 -0.067589
C51   C     C_R   0.709516 0.061268 0.467369 -0.067593
C52   C     C_R   0.283753 0.941453 0.516825 -0.053164
C53   C     C_R   0.390305 0.530480 0.500130 -0.061968
C54   C     C_R   0.605382 0.467116 0.489149 -0.055728
C55   C     C_R   0.605382 0.032884 0.489148 -0.055725
C56   C     C_R   0.390305 0.969520 0.500130 -0.061967
Cr1   Cr    Cr6+3 0.187610 0.750000 0.979860 1.153805
Cr2   Cr    Cr6+3 0.812390 0.250000 0.020140 1.164924
Cr3   Cr    Cr6+3 0.245810 0.750000 0.341640 1.046049
Cr4   Cr    Cr6+3 0.754190 0.250000 0.658360 1.049212
Cr5   Cr    Cr6+3 0.485760 0.750000 0.219910 1.015679
Cr6   Cr    Cr6+3 0.514240 0.250000 0.780090 1.019305
H1    H     H_    0.093624 0.413881 0.407657 0.244809
H2    H     H_    0.903387 0.581612 0.578670 0.246052
H3    H     H_    0.903387 0.918389 0.578668 0.246053
H4    H     H_    0.093624 0.086119 0.407657 0.244807
H5    H     H_    0.281474 0.358582 0.401574 0.143199
H6    H     H_    0.718453 0.637458 0.592696 0.151262
H7    H     H_    0.718453 0.862542 0.592695 0.151263
H8    H     H_    0.281474 0.141418 0.401574 0.143199
H9    H     H_    0.281929 0.611638 0.561878 0.185678
H10   H     H_    0.708840 0.385461 0.421679 0.162362
H11   H     H_    0.708839 0.114539 0.421677 0.162360
H12   H     H_    0.281929 0.888362 0.561879 0.185678
H13   H     H_    0.409148 0.095143 0.029103 0.138983
H14   H     H_    0.499343 0.953331 0.195207 0.147202
H15   H     H_    0.499342 0.546669 0.195206 0.147202
H16   H     H_    0.409148 0.404858 0.029097 0.138985
H17   H     H_    0.996364 0.050714 0.788650 0.182376
H18   H     H_    0.007407 0.952179 0.208452 0.195436
H19   H     H_    0.007406 0.547821 0.208452 0.195438
H20   H     H_    0.996364 0.449286 0.788650 0.182378
O1    O     O_R   0.267710 0.668200 0.902110 -0.431602
O2    O     O_R   0.732290 0.331800 0.097890 -0.445158
O3    O     O_R   0.732290 0.168200 0.097890 -0.445161
O4    O     O_R   0.267710 0.831800 0.902110 -0.431602
O5    O     O_R   0.099480 0.674460 0.038850 -0.439118
O6    O     O_R   0.900520 0.325540 0.961150 -0.418275
O7    O     O_R   0.900520 0.174460 0.961150 -0.418273
O8    O     O_R   0.099480 0.825540 0.038850 -0.439119
O9    O     O_R   0.116720 0.669210 0.267660 -0.503180
O10   O     O_R   0.883280 0.330790 0.732340 -0.509643
O11   O     O_R   0.883280 0.169210 0.732340 -0.509643
O12   O     O_R   0.116720 0.830790 0.267660 -0.503181
O13   O     O_R   0.366710 0.675440 0.427590 -0.515796
O14   O     O_R   0.633290 0.324560 0.572410 -0.516924
O15   O     O_R   0.633290 0.175440 0.572410 -0.516923
O16   O     O_R   0.366710 0.824560 0.427590 -0.515796
O17   O     O_R   0.534870 0.669390 0.371760 -0.522736
O18   O     O_R   0.465130 0.330610 0.628240 -0.508852
O19   O     O_R   0.465130 0.169390 0.628240 -0.508852
O20   O     O_R   0.534870 0.830610 0.371760 -0.522737
O21   O     O_R   0.453080 0.674480 0.075160 -0.508426
O22   O     O_R   0.546920 0.325520 0.924840 -0.516972
O23   O     O_R   0.546920 0.174480 0.924840 -0.516969
O24   O     O_R   0.453080 0.825520 0.075160 -0.508425
O25   O     O_3   0.306390 0.750000 0.180470 -0.318663
O26   O     O_3   0.693610 0.250000 0.819530 -0.273780
F1    F     F_    0.073713 0.548465 0.484667 -0.574907
F2    F     F_    0.916695 0.448708 0.487503 -0.584612
F3    F     F_    0.916694 0.051292 0.487499 -0.584618
F4    F     F_    0.073713 0.951534 0.484668 -0.574909
C57   C     C_2   0.698556 0.018633 0.143296 0.255871
H21   H     H_    0.686506 0.968108 0.191960 0.108184
O27   O     O_2   0.797819 0.029464 0.133346 -0.420574
C58   C     C_2   0.292540 0.978877 0.850337 0.231465
H22   H     H_    0.325023 0.027530 0.814297 0.103484
O28   O     O_2   0.191261 0.956067 0.778058 -0.386637
C59   C     C_2   0.292539 0.521123 0.850335 0.231466
H23   H     H_    0.325024 0.472471 0.814293 0.103482
O29   O     O_2   0.191260 0.543933 0.778057 -0.386636
C60   C     C_2   0.698557 0.481366 0.143302 0.255854
H24   H     H_    0.686501 0.531896 0.191947 0.108185
O30   O     O_2   0.797828 0.470530 0.133378 -0.420555
F5    F     F_    0.012990 0.075992 0.126157 -0.628546
F6    F     F_    0.012787 0.928841 0.879378 -0.622571
F7    F     F_    0.012786 0.571159 0.879378 -0.622571
F8    F     F_    0.012989 0.424008 0.126157 -0.628545

loop_
_geom_bond_atom_site_label_1
_geom_bond_atom_site_label_2
_ccdc_geom_bond_type
C1    O5    A    
C44   C48   A    
C49   C53   A    
C31   O3    A    
C5    C37   A    
C12   C29   S    
C44   H4    S    
C7    C55   A    
C6    C34   A    
C8    C56   A    
Cr6   O23   S    
C58   H22   S    
C50   C54   A    
C40   H8    S    
C5    C53   A    
Cr5   O21   S    
C38   C42   A    
C52   H12   S    
C42   C46   A    
C45   F1    S    
C15   H16   S    
Cr6   O26   S    
C15   C16   S    
Cr1   O4    S    
C29   O21   A    
C3    C18   S    
C16   H15   S    
C8    C36   A    
C9    C13   D    
C50   H10   S    
C9    C32   S    
C11   C15   D    
C10   C31   S    
C25   O17   A    
C20   C24   D    
C11   C30   S    
C18   H17   S    
C5    C33   A    
C24   F7    S    
C23   C24   S    
C6    C38   A    
C2    O6    A    
Cr3   O12   S    
C19   H20   S    
C40   C44   A    
Cr6   O22   S    
Cr4   O26   S    
C25   C34   S    
Cr6   O19   S    
Cr4   O11   S    
C59   O29   D    
C35   C56   A    
C1    O9    A    
C32   O24   A    
C13   C14   S    
C37   C41   A    
C31   O23   A    
Cr5   O17   S    
Cr3   O13   S    
C6    C54   A    
C4    O8    A    
Cr4   O10   S    
C26   O14   A    
Cr2   O26   S    
Cr1   O8    S    
C12   C16   D    
C28   C35   S    
Cr4   O15   S    
C10   C14   D    
C22   F5    S    
C39   C43   A    
C27   O19   A    
C17   H18   S    
Cr3   O25   S    
Cr1   O5    S    
C19   C23   D    
Cr2   O2    S    
C12   C59   S    
C26   C33   S    
C13   H14   S    
C45   C49   A    
C43   H3    S    
C32   O4    A    
Cr1   O1    S    
C39   H7    S    
C3    O11   A    
Cr3   O9    S    
C2    O10   A    
Cr5   O24   S    
C10   C57   S    
C4    O12   A    
C4    C17   S    
Cr4   O14   S    
C48   F4    S    
C38   H6    S    
C25   O13   A    
C46   F2    S    
Cr6   O18   S    
C11   C60   S    
C41   H1    S    
C60   O30   D    
Cr2   O3    S    
C42   H2    S    
C57   H21   S    
C28   O16   A    
C33   C54   A    
C27   O15   A    
C1    C20   S    
C7    C39   A    
Cr1   O25   S    
C2    C19   S    
C18   C22   D    
C9    C58   S    
C7    C35   A    
C51   H11   S    
Cr2   O6    S    
C47   C51   A    
C59   H23   S    
C29   O1    A    
C27   C36   S    
C46   C50   A    
C3    O7    A    
C14   H13   S    
Cr5   O20   S    
C21   F6    S    
C36   C55   A    
C20   H19   S    
C47   F3    S    
C37   H5    S    
C58   O28   D    
C51   C55   A    
C30   O2    A    
Cr5   O25   S    
Cr2   O7    S    
C17   C21   D    
C28   O20   A    
C48   C52   A    
C34   C53   A    
C49   H9    S    
C30   O22   A    
Cr3   O16   S    
C41   C45   A    
C8    C40   A    
C60   H24   S    
C21   C22   S    
C43   C47   A    
C52   C56   A    
C26   O18   A    
C23   F8    S    
C57   O27   D    
