data_mof_unit_36960.cif
_audit_creation_date              2013-03-05T15:54:35-0500
_audit_creation_method            fapswitch 2.2
_symmetry_space_group_name_H-M    P1
_symmetry_Int_Tables_number       1
_space_group_crystal_system       triclinic
_cell_length_a                    17.430026
_cell_length_b                    24.415001
_cell_length_c                    14.961564
_cell_angle_alpha                 90.066653
_cell_angle_beta                  125.529035
_cell_angle_gamma                 90.136932
_cell_volume                      5181.52224076

loop_
_atom_site_label
_atom_site_type_symbol
_atom_site_description
_atom_site_fract_x
_atom_site_fract_y
_atom_site_fract_z
_atom_type_partial_charge
C1    C     C_R   0.850982 0.651815 0.907236 -0.137578
C2    C     C_R   0.158687 0.648799 0.093946 -0.117901
C3    C     C_R   0.346983 0.150777 0.907713 -0.135600
C4    C     C_R   0.691996 0.123711 0.094851 -0.081578
H1    H     H_    0.816685 0.667011 0.824871 0.166239
H2    H     H_    0.200407 0.662711 0.178026 0.152300
H3    H     H_    0.312030 0.166667 0.825835 0.171141
H4    H     H_    0.751664 0.123337 0.178966 0.128982
N1    N     N_R   0.892620 0.603790 0.941770 -0.056899
N2    N     N_R   0.107380 0.603790 0.058230 -0.040317
N3    N     N_R   0.392620 0.103790 0.941770 -0.057464
N4    N     N_R   0.607380 0.103790 0.058230 -0.027758
C5    C     C_R   0.945546 0.348212 0.090990 -0.224238
C6    C     C_R   0.096086 0.379011 0.905541 -0.200980
C7    C     C_R   0.404510 0.879041 0.094937 -0.208258
C8    C     C_R   0.593956 0.874489 0.906647 -0.205543
H5    H     H_    0.994307 0.334348 0.174340 0.128891
H6    H     H_    0.070489 0.377448 0.820452 0.136092
H7    H     H_    0.430099 0.877890 0.180084 0.134686
H8    H     H_    0.566983 0.867962 0.822800 0.128268
N5    N     N_R   0.952270 0.397640 0.058010 -0.055235
N6    N     N_R   0.047730 0.397640 0.941990 -0.050722
N7    N     N_R   0.452270 0.897640 0.058010 -0.054427
N8    N     N_R   0.547730 0.897640 0.941990 -0.054189
C9    C     C_R   0.980688 0.546852 0.247652 -0.068071
C10   C     C_R   0.951781 0.546910 0.697256 -0.102573
C11   C     C_R   0.550668 0.047473 0.302917 -0.115517
C12   C     C_R   0.489255 0.047301 0.722064 -0.098022
H9    H     H_    0.965490 0.589163 0.250819 0.108022
H10   H     H_    0.932342 0.588785 0.670506 0.131543
H11   H     H_    0.570897 0.089440 0.328705 0.157340
H12   H     H_    0.485208 0.089349 0.699775 0.109009
N9    N     N_R   0.026310 0.529110 0.206760 -0.026140
N10   N     N_R   0.973690 0.529110 0.793240 -0.042975
N11   N     N_R   0.526310 0.029110 0.206760 -0.044618
N12   N     N_R   0.473690 0.029110 0.793240 -0.038820
C13   C     C_R   0.729976 0.455246 0.743865 -0.191388
C14   C     C_R   0.253937 0.455510 0.305040 -0.199168
C15   C     C_R   0.229762 0.955325 0.725981 -0.197745
C16   C     C_R   0.751371 0.955820 0.306953 -0.205591
H13   H     H_    0.706547 0.413212 0.729731 0.149192
H14   H     H_    0.265486 0.414416 0.336201 0.144836
H15   H     H_    0.206544 0.914419 0.696719 0.151468
H16   H     H_    0.762306 0.914755 0.338117 0.144007
N13   N     N_R   0.818570 0.472310 0.793020 -0.058832
N14   N     N_R   0.181430 0.472310 0.206980 -0.060142
N15   N     N_R   0.318570 0.972310 0.793020 -0.060703
N16   N     N_R   0.681430 0.972310 0.206980 -0.057420
C17   C     C_R   0.983967 0.455107 0.252933 -0.123231
C18   C     C_R   0.949881 0.455850 0.694407 -0.141725
C19   C     C_R   0.552431 0.956464 0.306543 -0.139752
C20   C     C_R   0.486662 0.956171 0.717415 -0.129773
H17   H     H_    0.974232 0.412712 0.264812 0.101513
H18   H     H_    0.930344 0.414238 0.664627 0.094177
H19   H     H_    0.571838 0.914975 0.336453 0.091394
H20   H     H_    0.477736 0.915225 0.685755 0.090663
N17   N     N_R   0.026930 0.472300 0.207330 -0.045127
N18   N     N_R   0.973070 0.472300 0.792670 -0.042027
N19   N     N_R   0.526930 0.972300 0.207330 -0.043013
N20   N     N_R   0.473070 0.972300 0.792670 -0.040791
C21   C     C_R   0.730313 0.547181 0.733737 0.329739
C22   C     C_R   0.252188 0.546406 0.307475 0.281170
C23   C     C_R   0.230488 0.047034 0.725476 0.338357
C24   C     C_R   0.750028 0.046303 0.308533 0.258783
N21   N     N_R   0.817960 0.529130 0.792460 -0.079501
N22   N     N_R   0.182040 0.529130 0.207540 -0.084323
N23   N     N_R   0.317960 0.029130 0.792460 -0.085347
N24   N     N_R   0.682040 0.029130 0.207540 -0.086343
C25   C     C_R   0.856862 0.347771 0.908477 0.330249
C26   C     C_R   0.184949 0.371350 0.088883 0.336612
C27   C     C_R   0.317769 0.868197 0.912192 0.318781
C28   C     C_R   0.684178 0.870129 0.089820 0.336931
N25   N     N_R   0.894850 0.397640 0.943830 -0.053898
N26   N     N_R   0.105150 0.397640 0.056170 -0.055121
N27   N     N_R   0.394850 0.897640 0.943830 -0.055082
N28   N     N_R   0.605150 0.897640 0.056170 -0.056148
C29   C     C_R   0.939500 0.652236 0.089647 -0.111861
C30   C     C_R   0.066522 0.649899 0.910088 -0.126349
C31   C     C_R   0.435601 0.150542 0.090757 -0.090936
C32   C     C_R   0.598581 0.129886 0.912491 -0.109313
H21   H     H_    0.983023 0.667117 0.173319 0.131842
H22   H     H_    0.024244 0.664482 0.826324 0.104049
H23   H     H_    0.477703 0.164648 0.175035 0.118105
H24   H     H_    0.571179 0.142320 0.830330 0.093905
N29   N     N_R   0.950040 0.603780 0.055950 -0.040654
N30   N     N_R   0.049960 0.603780 0.944050 -0.046269
N31   N     N_R   0.450040 0.103780 0.055950 -0.043370
N32   N     N_R   0.549960 0.103780 0.944050 -0.045983
C33   C     C_R   0.876532 0.682293 0.997183 0.036258
C34   C     C_R   0.134624 0.678449 0.003395 0.049411
C35   C     C_R   0.370434 0.180306 0.998278 0.032696
C36   C     C_R   0.689462 0.140565 0.005613 0.013790
C37   C     C_R   0.885221 0.315447 0.999680 0.037756
C38   C     C_R   0.182401 0.361692 0.995124 0.014021
C39   C     C_R   0.319506 0.860319 0.005833 0.023235
C40   C     C_R   0.680323 0.857932 0.996370 0.016890
C41   C     C_R   0.953659 0.501511 0.278627 0.030371
C42   C     C_R   0.936179 0.501895 0.632745 0.062159
C43   C     C_R   0.568198 0.003028 0.368032 0.069468
C44   C     C_R   0.506849 0.002446 0.681304 0.053620
C45   C     C_R   0.673685 0.501344 0.707727 -0.076831
C46   C     C_R   0.299097 0.500578 0.368126 -0.029347
C47   C     C_R   0.173910 0.001110 0.688217 -0.079374
C48   C     C_R   0.794867 0.000918 0.370883 -0.008872
Ni1   Ni    Ni4+2 0.934160 0.565860 0.869070 0.250974
Ni2   Ni    Ni4+2 0.065840 0.565860 0.130930 0.283466
Ni3   Ni    Ni4+2 0.434160 0.065860 0.869070 0.264912
Ni4   Ni    Ni4+2 0.565840 0.065860 0.130930 0.279386
Ni5   Ni    Ni4+2 0.067260 0.435560 0.132230 0.200790
Ni6   Ni    Ni4+2 0.932740 0.435560 0.867770 0.197256
Ni7   Ni    Ni4+2 0.567260 0.935560 0.132230 0.196726
Ni8   Ni    Ni4+2 0.432740 0.935560 0.867770 0.205409
C49   C     C_3   0.505636 0.451052 0.601425 -0.242463
C50   C     C_3   0.465767 0.456363 0.478443 -0.245889
C51   C     C_3   0.009812 0.948920 0.579436 -0.244329
C52   C     C_3   0.961508 0.963732 0.457419 -0.254065
C53   C     C_3   0.432929 0.493442 0.585415 0.318392
C54   C     C_3   0.533995 0.503649 0.505421 0.314275
C55   C     C_3   0.939262 0.985497 0.582515 0.330635
C56   C     C_3   0.025780 0.013839 0.490180 0.326434
H25   H     H_    0.524974 0.412445 0.648947 0.141716
H26   H     H_    0.449816 0.421913 0.421474 0.142219
H27   H     H_    0.033238 0.907495 0.615993 0.134844
H28   H     H_    0.942778 0.934391 0.390751 0.144180
C57   C     C_3   0.394916 0.499076 0.464976 0.087747
C58   C     C_3   0.573091 0.498945 0.626549 0.089706
C59   C     C_3   0.892444 0.000384 0.462732 0.091451
C60   C     C_3   0.073449 0.999568 0.610312 0.109289
C61   C     C_3   0.463319 0.546211 0.490891 -0.095312
C62   C     C_3   0.501944 0.540962 0.613701 -0.094247
C63   C     C_3   0.956887 0.050500 0.494678 -0.119681
C64   C     C_3   0.004817 0.035649 0.616923 -0.125519
H29   H     H_    0.447222 0.584867 0.444163 0.167471
H30   H     H_    0.516546 0.574381 0.672062 0.166078
H31   H     H_    0.936785 0.092553 0.461473 0.176094
H32   H     H_    0.024587 0.064486 0.684666 0.154955
C65   C     C_R   0.893051 0.233208 0.104151 0.120613
C66   C     C_R   0.211057 0.299320 0.889234 0.100139
C67   C     C_R   0.294744 0.797001 0.112906 0.091529
C68   C     C_R   0.711880 0.797948 0.890014 0.093559
C69   C     C_R   0.864577 0.257052 0.004110 0.057583
C70   C     C_R   0.246892 0.329547 0.985205 0.079542
C71   C     C_R   0.256900 0.827629 0.017236 0.077851
C72   C     C_R   0.745962 0.826853 0.987007 0.082803
C73   C     C_R   0.804366 0.225063 0.908733 -0.202641
C74   C     C_R   0.340606 0.320454 0.075613 -0.198454
C75   C     C_R   0.162668 0.818890 0.928215 -0.186897
C76   C     C_R   0.840450 0.819443 0.076815 -0.197998
H33   H     H_    0.784702 0.236408 0.829029 0.158062
H34   H     H_    0.374170 0.346517 0.147482 0.145700
H35   H     H_    0.128275 0.845518 0.857369 0.133964
H36   H     H_    0.872605 0.845009 0.149227 0.145742
C77   C     C_R   0.117272 0.770941 0.924841 -0.195545
C78   C     C_R   0.889608 0.773783 0.078557 -0.198689
C79   C     C_R   0.755942 0.180199 0.911651 -0.182551
C80   C     C_R   0.386407 0.272624 0.079156 -0.195658
H37   H     H_    0.048012 0.761378 0.851761 0.131183
H38   H     H_    0.958581 0.764737 0.152296 0.137192
H39   H     H_    0.701880 0.160844 0.834760 0.126385
H40   H     H_    0.454634 0.262774 0.153306 0.138798
C81   C     C_R   0.166857 0.733390 0.011452 0.059341
C82   C     C_R   0.843772 0.737104 0.989555 0.061445
C83   C     C_R   0.767158 0.166895 0.009759 0.017492
C84   C     C_R   0.338507 0.235528 0.990951 0.062539
C85   C     C_R   0.251467 0.749467 0.108451 0.079933
C86   C     C_R   0.758533 0.752444 0.892957 0.058670
C87   C     C_R   0.847483 0.187677 0.107665 0.117236
C88   C     C_R   0.254993 0.252136 0.893393 0.064564
C89   C     C_3   0.343255 0.719923 0.184742 0.072721
C90   C     C_3   0.668619 0.721452 0.813290 0.100423
C91   C     C_3   0.866192 0.205549 0.214757 0.043379
C92   C     C_3   0.163412 0.222915 0.812919 0.089674
C93   C     C_3   0.912319 0.256597 0.207853 -0.563629
C94   C     C_3   0.114880 0.275417 0.807694 -0.557669
C95   C     C_3   0.391275 0.773038 0.190952 -0.532536
C96   C     C_3   0.617199 0.772409 0.808185 -0.563066
H41   H     H_    0.355681 0.708753 0.264221 0.149040
H42   H     H_    0.658558 0.712912 0.734262 0.194854
H43   H     H_    0.801602 0.214706 0.210328 0.162505
H44   H     H_    0.153473 0.213571 0.734184 0.194722
H45   H     H_    0.989066 0.260386 0.273899 0.207803
H46   H     H_    0.071695 0.271874 0.840331 0.218866
H47   H     H_    0.432625 0.770734 0.155821 0.215948
H48   H     H_    0.574041 0.767097 0.840538 0.219923
H49   H     H_    0.870791 0.294245 0.193437 0.180829
H50   H     H_    0.078433 0.295820 0.726384 0.177709
H51   H     H_    0.429485 0.792587 0.273441 0.171774
H52   H     H_    0.579732 0.792935 0.726875 0.173996
C97   C     C_R   0.899211 0.553019 0.469030 0.177751
C98   C     C_R   0.903569 0.553082 0.379918 0.138358
C99   C     C_R   0.574491 0.054206 0.600603 0.137433
C100  C     C_R   0.596335 0.055187 0.525991 0.197533
C101  C     C_R   0.900498 0.503580 0.517018 0.039480
C102  C     C_R   0.908573 0.503596 0.335869 0.040171
C103  C     C_R   0.556649 0.004228 0.630782 0.042165
C104  C     C_R   0.601563 0.005774 0.481941 0.042618
C105  C     C_R   0.880747 0.455039 0.456056 -0.196898
C106  C     C_R   0.884564 0.455094 0.365100 -0.189986
C107  C     C_R   0.590199 0.956114 0.613022 -0.193185
C108  C     C_R   0.614226 0.957057 0.539008 -0.204829
H53   H     H_    0.873833 0.416112 0.485138 0.130808
H54   H     H_    0.880511 0.416274 0.327605 0.128825
H55   H     H_    0.588418 0.917114 0.646076 0.127682
H56   H     H_    0.627823 0.918480 0.515162 0.130245
C109  C     C_3   0.966144 0.602737 0.421460 -0.492528
C110  C     C_3   0.960788 0.602701 0.518357 -0.517616
C111  C     C_3   0.539122 0.106222 0.473355 -0.506717
C112  C     C_3   0.516826 0.105162 0.556429 -0.524328
H57   H     H_    0.931119 0.638848 0.367257 0.193874
H58   H     H_    0.030082 0.594307 0.597142 0.202675
H59   H     H_    0.474515 0.099960 0.388725 0.195091
H60   H     H_    0.549477 0.139800 0.615811 0.192007
H61   H     H_    0.038626 0.594287 0.445839 0.219633
H62   H     H_    0.922209 0.638598 0.519448 0.202931
H63   H     H_    0.583505 0.141870 0.483794 0.213596
H64   H     H_    0.440632 0.098005 0.518324 0.212060
C113  C     C_3   0.363523 0.673330 0.132207 -0.913743
H65   H     H_    0.326697 0.635313 0.128026 0.240370
H66   H     H_    0.340906 0.684367 0.048105 0.256439
H67   H     H_    0.440320 0.664699 0.183524 0.254815
C114  C     C_3   0.647769 0.672541 0.860914 -0.854446
H68   H     H_    0.570875 0.663759 0.808426 0.251455
H69   H     H_    0.683830 0.635134 0.861475 0.243527
H70   H     H_    0.670111 0.681301 0.945871 0.240147
C115  C     C_3   0.936789 0.168008 0.310076 -0.860789
H71   H     H_    0.952657 0.184678 0.388241 0.269960
H72   H     H_    0.907464 0.126153 0.297282 0.216623
H73   H     H_    0.003760 0.164582 0.317235 0.256590
C116  C     C_3   0.139975 0.174981 0.859771 -0.862920
H74   H     H_    0.176218 0.137203 0.862207 0.244164
H75   H     H_    0.160827 0.184395 0.943878 0.243025
H76   H     H_    0.062963 0.166725 0.805726 0.253449
N33   N     N_R   0.704460 0.597664 0.674125 0.207704
O1    O     O_R   0.759203 0.618472 0.650145 -0.462069
O2    O     O_R   0.626009 0.622242 0.639867 -0.469057
N34   N     N_R   0.246164 0.596251 0.354554 0.218162
O3    O     O_R   0.167885 0.623765 0.302154 -0.459132
O4    O     O_R   0.309384 0.608139 0.457301 -0.429463
N35   N     N_R   0.207325 0.099181 0.672420 0.205828
O5    O     O_R   0.263865 0.121562 0.652664 -0.450779
O6    O     O_R   0.127477 0.122658 0.636176 -0.474211
N36   N     N_R   0.745684 0.097513 0.353212 0.212404
O7    O     O_R   0.687266 0.135423 0.288629 -0.460632
O8    O     O_R   0.787106 0.102754 0.458427 -0.433528
C117  C     C_3   0.825702 0.328317 0.796892 -1.088742
H77   H     H_    0.870255 0.293644 0.804575 0.258624
H78   H     H_    0.749891 0.317003 0.746812 0.245661
H79   H     H_    0.835139 0.361183 0.752865 0.260593
C118  C     C_3   0.243114 0.340436 0.194603 -1.065332
H80   H     H_    0.253131 0.297596 0.178444 0.264829
H81   H     H_    0.313083 0.360194 0.250138 0.242940
H82   H     H_    0.205703 0.338174 0.234313 0.250649
C119  C     C_3   0.270570 0.830087 0.815181 -1.048381
H83   H     H_    0.284881 0.787056 0.844465 0.265352
H84   H     H_    0.193230 0.836155 0.762158 0.238004
H85   H     H_    0.299455 0.836271 0.766479 0.253582
C120  C     C_3   0.743057 0.840911 0.197437 -1.071145
H86   H     H_    0.755655 0.798053 0.184316 0.263036
H87   H     H_    0.811902 0.861951 0.252291 0.244024
H88   H     H_    0.704903 0.838642 0.236240 0.252220
C121  C     C_3   0.372277 0.487467 0.627471 -0.963515
H89   H     H_    0.418154 0.484289 0.718353 0.242289
H90   H     H_    0.325823 0.523689 0.602980 0.279226
H91   H     H_    0.328178 0.449978 0.592004 0.246077
C122  C     C_3   0.589938 0.508035 0.456664 -0.958040
H92   H     H_    0.540916 0.506078 0.365750 0.239078
H93   H     H_    0.628811 0.547430 0.480578 0.288815
H94   H     H_    0.640727 0.473675 0.486487 0.247743
C123  C     C_3   0.886182 0.969733 0.630982 -0.983003
H95   H     H_    0.937150 0.961061 0.719870 0.245448
H96   H     H_    0.839438 0.003862 0.619905 0.273354
H97   H     H_    0.842702 0.932670 0.588642 0.244119
C124  C     C_3   0.072766 0.028559 0.433699 -0.955388
H98   H     H_    0.018562 0.030486 0.343617 0.235316
H99   H     H_    0.107826 0.069043 0.462324 0.296807
H100  H     H_    0.125629 0.996935 0.451899 0.248232

loop_
_geom_bond_atom_site_label_1
_geom_bond_atom_site_label_2
_geom_bond_distance
_ccdc_geom_bond_type
C89   C113  1.535995 S    
C7    H7    1.078141 S    
C39   C71   1.438545 S    
C115  H72   1.107012 S    
C30   H22   1.081373 S    
C56   C63   1.531856 S    
C21   N33   1.433795 S    
C70   C74   1.407686 A    
N3    Ni3   1.865771 S    
C67   C95   1.503193 S    
N35   O5    1.301344 A    
N8    Ni8   1.879339 S    
C89   C95   1.514928 S    
C72   C76   1.407341 A    
C46   C57   1.441562 S    
C94   H46   1.113327 S    
N26   Ni5   1.860707 S    
C31   N31   1.338028 A    
C56   C124  1.522360 S    
C2    H2    1.077624 S    
C109  C110  1.505890 S    
C30   C34   1.382617 A    
C113  H67   1.110375 S    
C71   C75   1.404394 A    
C91   C93   1.517381 S    
C25   C37   1.396277 A    
C11   C43   1.370422 A    
C118  H80   1.110075 S    
C116  H74   1.107794 S    
C13   C45   1.382712 A    
C90   H42   1.109287 S    
C1    H1    1.076825 S    
C100  C104  1.402361 A    
C66   C88   1.366189 A    
C26   C38   1.397191 A    
C22   N34   1.439710 S    
C115  H71   1.110061 S    
C78   H38   1.082384 S    
C114  H70   1.112088 S    
C63   H31   1.106506 S    
C77   H37   1.082280 S    
C7    C39   1.371535 A    
C121  H89   1.109576 S    
C28   C40   1.392042 A    
C101  C105  1.409088 A    
C27   C39   1.397184 A    
C92   H44   1.109854 S    
C58   C62   1.535116 S    
N1    Ni1   1.865771 S    
C51   C52   1.545619 S    
C54   C122  1.523413 S    
N5    N25   1.390284 A    
C124  H100  1.109756 S    
C17   N17   1.339959 A    
N34   O3    1.299946 A    
C9    H9    1.074878 S    
C3    C35   1.369475 A    
C120  H86   1.110144 S    
C89   H41   1.112216 S    
C4    H4    1.069758 S    
C2    C34   1.370660 A    
C6    H6    1.077436 S    
C27   C119  1.501550 S    
C54   C58   1.525592 S    
N14   Ni5   1.848889 S    
N11   Ni4   1.864109 S    
C20   N20   1.337302 A    
N1    N29   1.390286 A    
C74   H34   1.081161 S    
C67   C71   1.396643 A    
C10   N10   1.327350 A    
N17   Ni5   1.865456 S    
N31   Ni4   1.889252 S    
C91   C115  1.535243 S    
C14   N14   1.329213 A    
N3    N31   1.390286 A    
C31   H23   1.081397 S    
C52   C59   1.540257 S    
C26   N26   1.341628 A    
N19   Ni7   1.865457 S    
N33   O2    1.297166 A    
C25   N25   1.337245 A    
C119  H83   1.110529 S    
C29   H21   1.080983 S    
C4    N4    1.329939 A    
C122  H92   1.109702 S    
C113  H66   1.111805 S    
C31   C35   1.382897 A    
C88   C92   1.505166 S    
C64   H32   1.110392 S    
C14   C46   1.360575 A    
C53   C121  1.519021 S    
C12   C44   1.372107 A    
C7    N7    1.318241 A    
C109  H61   1.112457 S    
C107  C108  1.393269 A    
C112  H64   1.112650 S    
C82   C86   1.394531 A    
C117  H77   1.110188 S    
C32   N32   1.345575 A    
N12   Ni3   1.864421 S    
C111  H59   1.111875 S    
N10   Ni1   1.864421 S    
C91   H43   1.111911 S    
C110  H62   1.111814 S    
C62   H30   1.109973 S    
C76   C78   1.398664 A    
N22   Ni2   1.879643 S    
C60   C64   1.535952 S    
C12   H12   1.069528 S    
N21   Ni1   1.873744 S    
C112  H60   1.112067 S    
C121  H90   1.109640 S    
C92   C94   1.514371 S    
C124  H98   1.109834 S    
C98   C102  1.402539 A    
C103  C107  1.405575 A    
C85   C89   1.505913 S    
C55   C123  1.519405 S    
N11   N19   1.387082 A    
C23   N23   1.322245 A    
C18   C42   1.385495 A    
C51   H27   1.110176 S    
N4    N32   1.390283 A    
C34   C81   1.430663 S    
C79   H39   1.082308 S    
C111  C112  1.502656 S    
C18   N18   1.339144 A    
C76   H36   1.080979 S    
C53   C62   1.540362 S    
C80   H40   1.082341 S    
C1    N1    1.318402 A    
C93   H49   1.112436 S    
C23   C47   1.376509 A    
C66   C70   1.396239 A    
C104  C108  1.406073 A    
N4    Ni4   1.865310 S    
N32   Ni3   1.883237 S    
C22   N22   1.334088 A    
N13   Ni6   1.854758 S    
N8    N28   1.390282 A    
C15   H15   1.069581 S    
C49   C58   1.539385 S    
C99   C103  1.397183 A    
C79   C83   1.402223 A    
C113  H65   1.108055 S    
C55   C64   1.542130 S    
C17   C41   1.395817 A    
C43   C104  1.447342 S    
C20   C44   1.382954 A    
C21   C45   1.387573 A    
C52   C56   1.531563 S    
C42   C101  1.461236 S    
C77   C81   1.404131 A    
C120  H87   1.108523 S    
C38   C70   1.448909 S    
C41   C102  1.461488 S    
C32   C36   1.396611 A    
C83   C87   1.405229 A    
C65   C93   1.495863 S    
C114  H68   1.110839 S    
N20   Ni8   1.865097 S    
C21   N21   1.320659 A    
C108  H56   1.081250 S    
C16   C48   1.361176 A    
C67   C85   1.362902 A    
N6    Ni6   1.879339 S    
C110  H58   1.112340 S    
C98   C109  1.499907 S    
C119  H84   1.107615 S    
C19   C43   1.384402 A    
C109  H57   1.111974 S    
C97   C110  1.496326 S    
C8    H8    1.064831 S    
C57   C61   1.533384 S    
C29   C33   1.377861 A    
C96   H48   1.113487 S    
N16   Ni7   1.848889 S    
C121  H91   1.109786 S    
C111  H63   1.111924 S    
C45   C58   1.441229 S    
N27   Ni8   1.860452 S    
C8    C40   1.373724 A    
C5    N5    1.334701 A    
C28   N28   1.342100 A    
N35   O6    1.298845 A    
C18   H18   1.080549 S    
N16   N24   1.387251 A    
C105  H53   1.080966 S    
C47   C60   1.433056 S    
C122  H93   1.107488 S    
C26   C118  1.497353 S    
C80   C84   1.404277 A    
C50   C54   1.531150 S    
C10   C42   1.380014 A    
C49   C53   1.545499 S    
C106  H54   1.081841 S    
C10   H10   1.079472 S    
C28   C120  1.496750 S    
C25   C117  1.500275 S    
C68   C86   1.363904 A    
C27   N27   1.342123 A    
C86   C90   1.506841 S    
C118  H81   1.108569 S    
C51   C55   1.543617 S    
C123  H96   1.110054 S    
C11   H11   1.078088 S    
N13   N21   1.387322 A    
N36   O8    1.301481 A    
C100  C111  1.504220 S    
C61   H29   1.110429 S    
C35   C84   1.439604 S    
C123  H97   1.109913 S    
N30   Ni1   1.883237 S    
C19   N19   1.336325 A    
C66   C94   1.501948 S    
C13   N13   1.332406 A    
N29   Ni2   1.889252 S    
C2    N2    1.315833 A    
C24   N24   1.333539 A    
C33   C82   1.434628 S    
C65   C87   1.383384 A    
C37   C69   1.480545 S    
C36   C83   1.466018 S    
C15   N15   1.328751 A    
C49   C50   1.549277 S    
N33   O1    1.301249 A    
C44   C103  1.445408 S    
C9    C41   1.383683 A    
C99   C100  1.373207 A    
C50   C57   1.539677 S    
C65   C69   1.401991 A    
C16   N16   1.330422 A    
N2    N30   1.390283 A    
C96   H52   1.112290 S    
C1    C33   1.364772 A    
C52   H28   1.110610 S    
N36   O7    1.300098 A    
N18   Ni6   1.865097 S    
C95   H47   1.113239 S    
C78   C82   1.403840 A    
C24   C48   1.366766 A    
N9    Ni2   1.864109 S    
C68   C72   1.396613 A    
N7    N27   1.390284 A    
N12   N20   1.387010 A    
C105  C106  1.400561 A    
C107  H55   1.082124 S    
C119  H85   1.110613 S    
N5    Ni5   1.873336 S    
C92   C116  1.536332 S    
C56   C60   1.519686 S    
N14   N22   1.387251 A    
C15   C47   1.372547 A    
N9    N17   1.387084 A    
C116  H76   1.110461 S    
C49   H25   1.110036 S    
N7    Ni7   1.873336 S    
N15   Ni8   1.854758 S    
C3    H3    1.075722 S    
C87   C91   1.501475 S    
C114  H69   1.107181 S    
C120  H88   1.109500 S    
C11   N11   1.318602 A    
C73   H33   1.068861 S    
C6    N6    1.322910 A    
C95   H51   1.111901 S    
C117  H78   1.109442 S    
C61   C62   1.552114 S    
C116  H75   1.111672 S    
C54   C61   1.529713 S    
C94   H50   1.111918 S    
C32   H24   1.072632 S    
C23   N35   1.430520 S    
N25   Ni6   1.860452 S    
N23   Ni3   1.873744 S    
C102  C106  1.407204 A    
C48   C59   1.437018 S    
C20   H20   1.077262 S    
C29   N29   1.339712 A    
N28   Ni7   1.860707 S    
C17   H17   1.080001 S    
C75   H35   1.081893 S    
C50   H26   1.110430 S    
C69   C73   1.414440 A    
C124  H99   1.107163 S    
N34   O4    1.300118 A    
C19   H19   1.080524 S    
C99   C112  1.493542 S    
C90   C114  1.538390 S    
C13   H13   1.077876 S    
C97   C98   1.378778 A    
C75   C77   1.395768 A    
C122  H94   1.109911 S    
C59   C63   1.534715 S    
C118  H82   1.109688 S    
C3    N3    1.320250 A    
C51   C60   1.539285 S    
C93   H45   1.112356 S    
C5    H5    1.078239 S    
C73   C79   1.397350 A    
C14   H14   1.075867 S    
C97   C101  1.398714 A    
C16   H16   1.075930 S    
C90   C96   1.510933 S    
C24   N36   1.439831 S    
C12   N12   1.319534 A    
C8    N8    1.320966 A    
C30   N30   1.334026 A    
C84   C88   1.395937 A    
C117  H79   1.109669 S    
C5    C37   1.391325 A    
N10   N18   1.387010 A    
N2    Ni2   1.865310 S    
N6    N26   1.390282 A    
N24   Ni4   1.879643 S    
C74   C80   1.399716 A    
C4    C36   1.373575 A    
C115  H73   1.111874 S    
C123  H95   1.109564 S    
C53   C57   1.522617 S    
C6    C38   1.378202 A    
N15   N23   1.387322 A    
C81   C85   1.394122 A    
C63   C64   1.549733 S    
C9    N9    1.326923 A    
C68   C96   1.502072 S    
C22   C46   1.374153 A    
C40   C72   1.447245 S    
C55   C59   1.520857 S    
