data_mof_unit_28990.cif
_audit_creation_date              2012-12-11T15:55:43-0500
_audit_creation_method            fapswitch 2.2
_symmetry_space_group_name_H-M    P1
_symmetry_Int_Tables_number       1
_space_group_crystal_system       triclinic
_cell_length_a                    6.936255
_cell_length_b                    14.547826
_cell_length_c                    16.098575
_cell_angle_alpha                 89.915972
_cell_angle_beta                  89.778046
_cell_angle_gamma                 89.922336
_cell_volume                      1624.45042767

loop_
_atom_site_label
_atom_site_type_symbol
_atom_type_description
_atom_site_fract_x
_atom_site_fract_y
_atom_site_fract_z
_atom_type_partial_charge
O1    O     O_R   0.505680 0.583900 0.413320 -0.540732
O2    O     O_R   0.176010 0.594950 0.586080 -0.543690
O3    O     O_R   0.005680 0.416100 0.586680 -0.537571
C1    C     C_R   0.344845 0.617191 0.615048 0.683900
O4    O     O_R   0.175960 0.594930 0.413930 -0.543768
O5    O     O_R   0.005640 0.416080 0.413300 -0.538284
C2    C     C_R   0.345143 0.617226 0.385049 0.687925
O6    O     O_R   0.505720 0.583920 0.586700 -0.541414
O7    O     O_3   0.339190 0.441320 0.500000 -0.367184
V1    V     V_3+5 0.064350 0.510890 0.500000 1.405832
O8    O     O_R   0.675920 0.405050 0.413920 -0.545165
C3    C     C_R   0.845467 0.382666 0.385404 0.696798
O9    O     O_R   0.675960 0.405070 0.586070 -0.542622
C4    C     C_R   0.844593 0.382967 0.614873 0.698418
V2    V     V_3+5 0.564340 0.489110 0.500000 1.404119
O10   O     O_3   0.839370 0.558680 0.500000 -0.370688
C5    C     C_R   0.008827 0.251982 0.688956 0.114393
C6    C     C_R   0.852459 0.312427 0.681392 -0.111621
C7    C     C_R   0.700208 0.302510 0.738838 -0.176106
H1    H     H_    0.577148 0.347917 0.735760 0.129134
C8    C     C_R   0.712034 0.238699 0.804660 -0.178622
H2    H     H_    0.596594 0.235991 0.849899 0.127759
C9    C     C_R   0.877101 0.183413 0.815335 -0.111938
C10   C     C_R   0.020940 0.189144 0.754288 0.106463
C11   C     C_3   0.231668 0.204941 0.764096 -0.417380
C12   C     C_3   0.218584 0.272948 0.692633 -0.395331
H3    H     H_    0.318050 0.142745 0.748887 0.178826
H4    H     H_    0.265720 0.237888 0.824507 0.168541
H5    H     H_    0.296647 0.249894 0.635925 0.182930
H6    H     H_    0.245963 0.345255 0.711400 0.164307
C13   C     C_R   0.031843 0.238994 0.204978 -0.119555
H7    H     H_    0.163084 0.234204 0.168617 0.112019
C14   C     C_R   0.024708 0.302795 0.269896 -0.131808
H8    H     H_    0.150258 0.344963 0.281594 0.117078
C15   C     C_R   0.856845 0.313309 0.317963 -0.088484
C16   C     C_R   0.698125 0.257224 0.301057 -0.140718
H9    H     H_    0.568392 0.264271 0.338337 0.152738
C17   C     C_R   0.702292 0.192330 0.236529 0.000713
C18   C     C_R   0.872090 0.183177 0.186228 -0.122182
C19   C     C_R   0.188047 0.724941 0.717784 -0.155076
H10   H     H_    0.047339 0.706748 0.694061 0.116788
C20   C     C_R   0.199388 0.788462 0.782937 -0.150003
H11   H     H_    0.066743 0.817369 0.807182 0.119128
C21   C     C_R   0.378965 0.814367 0.816162 -0.047841
C22   C     C_R   0.546869 0.774938 0.782260 -0.156247
H12   H     H_    0.687578 0.793135 0.805979 0.116254
C23   C     C_R   0.535528 0.711418 0.717106 -0.149587
H13   H     H_    0.668175 0.682519 0.692856 0.118417
C24   C     C_R   0.355951 0.685510 0.683883 -0.046451
C25   C     C_R   0.188202 0.724601 0.282623 -0.152896
H14   H     H_    0.047465 0.705918 0.306519 0.117437
C26   C     C_R   0.199244 0.788212 0.217427 -0.137643
H15   H     H_    0.066500 0.816731 0.193274 0.120050
C27   C     C_R   0.378790 0.814624 0.184017 -0.037999
C28   C     C_R   0.547005 0.775783 0.217766 -0.145340
H16   H     H_    0.687736 0.794487 0.193877 0.116417
C29   C     C_R   0.535964 0.712168 0.282964 -0.148193
H17   H     H_    0.668706 0.683659 0.307129 0.118100
C30   C     C_R   0.356401 0.685663 0.316303 -0.047951
O11   O     O_R   0.229200 0.915950 0.913350 -0.540431
O12   O     O_R   0.559090 0.905000 0.086080 -0.544580
O13   O     O_R   0.729280 0.083880 0.086680 -0.555478
C31   C     C_R   0.389963 0.882842 0.115107 0.700090
O14   O     O_R   0.558920 0.904980 0.913920 -0.543224
O15   O     O_R   0.729110 0.083860 0.913300 -0.539097
C32   C     C_R   0.390076 0.882699 0.884986 0.686475
O16   O     O_R   0.229360 0.915970 0.086730 -0.539044
O17   O     O_3   0.395680 0.058580 0.000030 -0.378197
V3    V     V_3+5 0.670570 0.989070 0.999990 1.392987
O18   O     O_R   0.058820 0.094950 0.913870 -0.540514
C33   C     C_R   0.889849 0.117228 0.885275 0.697623
O19   O     O_R   0.058990 0.094970 0.086020 -0.538142
C34   C     C_R   0.888482 0.115900 0.116139 0.685682
V4    V     V_3+5 0.170560 0.010930 0.999930 1.401572
O20   O     O_3   0.895590 0.941310 0.999960 -0.369559
C35   C     C_2   0.525468 0.136173 0.225814 0.329508
H18   H     H_    0.464331 0.123799 0.165195 0.085338
O21   O     O_2   0.439983 0.105901 0.286395 -0.525408

loop_
_geom_bond_atom_site_label_1
_geom_bond_atom_site_label_2
_ccdc_geom_bond_type
C28   H16   S    
C4    C6    S    
C21   C32   S    
C15   C16   A    
C1    O6    A    
C23   C24   A    
C17   C35   S    
C22   H12   S    
C21   C22   A    
C11   H4    S    
C5    C12   S    
C16   H9    S    
C7    C8    A    
C35   O21   D    
O5    C3    A    
C17   C18   A    
C29   C30   A    
C27   C31   S    
O17   V4    S    
V2    O10   S    
C6    C7    A    
O11   V4    S    
O12   C31   A    
O8    V2    S    
C13   H7    S    
O17   V3    S    
O18   V4    S    
C25   C26   A    
C9    C10   A    
C13   C14   A    
O13   C34   A    
O18   C33   A    
O1    V2    S    
O7    V1    S    
C19   C20   A    
O11   C32   A    
C8    H2    S    
C20   C21   A    
C2    C30   S    
C26   C27   A    
C14   H8    S    
C22   C23   A    
C8    C9    A    
C31   O16   A    
C5    C10   A    
V4    O20   S    
C9    C33   S    
C10   C11   S    
O19   V4    S    
O4    C2    A    
C25   H14   S    
C11   C12   S    
O15   C33   A    
O13   V3    S    
O14   C32   A    
O2    C1    A    
C23   H13   S    
C5    C6    A    
O16   V4    S    
O14   V3    S    
C35   H18   S    
C3    C15   S    
O3    C4    A    
C19   H10   S    
C12   H6    S    
O6    V2    S    
C28   C29   A    
C20   H11   S    
C25   C30   A    
O2    V1    S    
C26   H15   S    
O12   V3    S    
C27   C28   A    
O1    C2    A    
O19   C34   A    
O5    V1    S    
O8    C3    A    
C11   H3    S    
C1    C24   S    
C7    H1    S    
O9    V2    S    
O7    V2    S    
O4    V1    S    
O3    V1    S    
V1    O10   S    
C29   H17   S    
O15   V3    S    
C16   C17   A    
C14   C15   A    
C13   C18   A    
V3    O20   S    
C18   C34   S    
C12   H5    S    
O9    C4    A    
C19   C24   A    
