data_mof_unit_36221.cif
_audit_creation_date              2012-12-11T15:55:43-0500
_audit_creation_method            fapswitch 2.2
_symmetry_space_group_name_H-M    P1
_symmetry_Int_Tables_number       1
_space_group_crystal_system       triclinic
_cell_length_a                    11.079857
_cell_length_b                    11.049695
_cell_length_c                    18.785854
_cell_angle_alpha                 90.162807
_cell_angle_beta                  90.923201
_cell_angle_gamma                 59.07086
_cell_volume                      1972.59598786

loop_
_atom_site_label
_atom_site_type_symbol
_atom_type_description
_atom_site_fract_x
_atom_site_fract_y
_atom_site_fract_z
_atom_type_partial_charge
C1    C     C_R   0.361968 0.764238 0.395013 0.527560
C2    C     C_R   0.618504 0.148629 0.160482 0.039804
C3    C     C_R   0.359135 0.343411 0.159381 -0.011057
C4    C     C_R   0.493097 0.271917 0.269352 -0.160959
C5    C     C_R   0.490213 0.262399 0.195549 -0.036385
C6    C     C_R   0.086812 0.691828 0.325393 -0.046962
C7    C     C_R   0.967588 0.787866 0.362420 -0.100753
C8    C     C_R   0.667250 0.175677 0.097382 -0.073658
C9    C     C_R   0.776816 0.064722 0.060146 -0.068282
C10   C     C_R   0.241486 0.446358 0.196898 -0.151999
C11   C     C_R   0.243368 0.452973 0.270940 -0.044885
C12   C     C_R   0.389213 0.359102 0.385643 0.541993
C13   C     C_R   0.858169 0.763507 0.369992 -0.114999
C14   C     C_R   0.871333 0.640845 0.342531 -0.096650
C15   C     C_R   0.998192 0.535439 0.313048 -0.097142
C16   C     C_R   0.110144 0.558940 0.305978 0.032815
C17   C     C_R   0.370352 0.357622 0.308138 -0.006364
C18   C     C_R   0.866977 0.329735 0.183582 0.024451
C19   C     C_R   0.950420 0.221357 0.232195 0.000822
C20   C     C_R   0.921503 0.237118 0.303911 -0.017184
C21   C     C_R   0.725105 0.470664 0.279690 -0.167166
C22   C     C_R   0.756999 0.457518 0.207937 -0.164208
C23   C     C_R   0.771732 0.381718 0.401877 0.540147
C24   C     C_3   0.982174 0.072697 0.233249 -0.253516
C25   C     C_3   0.948532 0.091608 0.311483 -0.288823
C26   C     C_R   0.808114 0.361021 0.328131 0.021243
C27   C     C_R   0.366751 0.835866 0.173566 0.014015
C28   C     C_R   0.393960 0.913930 0.223198 0.014641
C29   C     C_R   0.395312 0.890441 0.295482 -0.001830
C30   C     C_R   0.377798 0.687780 0.270164 -0.182445
C31   C     C_R   0.370178 0.714321 0.197014 -0.171889
C32   C     C_3   0.324057 0.068946 0.233137 -0.259528
C33   C     C_3   0.326452 0.043265 0.312592 -0.289376
C34   C     C_R   0.343284 0.770412 0.603582 0.535669
C35   C     C_R   0.366943 0.789175 0.319616 0.001691
C36   C     C_R   0.305968 0.327030 0.813689 -0.067530
C37   C     C_R   0.434265 0.239411 0.782496 0.040188
C38   C     C_R   0.448397 0.234618 0.710484 0.034223
C39   C     C_R   0.200413 0.405329 0.695097 -0.075271
C40   C     C_R   0.186381 0.407196 0.769582 -0.178612
C41   C     C_3   0.571591 0.229636 0.797163 0.301014
C42   C     C_3   0.590614 0.218662 0.717613 0.321046
C43   C     C_R   0.335271 0.323753 0.665666 -0.057964
C44   C     C_R   0.913634 0.289995 0.821866 -0.011449
C45   C     C_R   0.370812 0.349142 0.595538 0.533676
C46   C     C_R   0.880021 0.414617 0.787427 -0.053984
C47   C     C_R   0.844625 0.434514 0.717055 0.076473
C48   C     C_R   0.894737 0.195587 0.707571 -0.140022
C49   C     C_R   0.927539 0.176643 0.781059 -0.124328
C50   C     C_3   0.770250 0.561855 0.806413 -0.199455
C51   C     C_3   0.728442 0.583486 0.728963 0.261974
C52   C     C_R   0.842573 0.329694 0.676692 -0.039992
C53   C     C_R   0.300172 0.859166 0.821975 -0.017475
C54   C     C_R   0.196836 0.849619 0.784408 -0.009322
C55   C     C_R   0.200415 0.838213 0.711571 0.014286
C56   C     C_R   0.768561 0.374008 0.608679 0.525664
C57   C     C_R   0.400079 0.868411 0.707754 -0.159924
C58   C     C_R   0.400681 0.875082 0.781980 -0.066907
C59   C     C_3   0.147335 0.748576 0.794140 -0.263365
C60   C     C_3   0.151983 0.734453 0.713944 -0.236569
C61   C     C_R   0.308236 0.836615 0.672743 -0.010107
C62   C     C_R   0.912432 0.314615 0.111574 0.540634
C63   C     C_R   0.329628 0.296856 0.091188 0.537650
C64   C     C_R   0.310621 0.896298 0.104077 0.538471
C65   C     C_R   0.945582 0.281506 0.897435 0.570191
C66   C     C_R   0.294737 0.290779 0.885989 0.551236
C67   C     C_R   0.842400 0.926550 0.086776 -0.007249
C68   C     C_R   0.274947 0.897246 0.897051 0.528096
C69   C     C_R   0.797006 0.899156 0.150543 -0.133797
C70   C     C_R   0.685701 0.009271 0.187116 -0.119850
Cr1   Cr    Cr6+3 0.601740 0.606840 0.505840 1.064541
Cr2   Cr    Cr6+3 0.291500 0.601560 0.495070 1.035004
Cr3   Cr    Cr6+3 0.606780 0.291630 0.499130 1.045573
Cr4   Cr    Cr6+3 0.062440 0.063060 0.008240 1.015840
Cr5   Cr    Cr6+3 0.062950 0.375000 0.998920 1.033282
Cr6   Cr    Cr6+3 0.374550 0.061770 0.992470 1.064249
H1    H     H_    0.593065 0.207403 0.296865 0.139561
H2    H     H_    0.761794 0.841209 0.395172 0.121673
H3    H     H_    0.780653 0.632029 0.344318 0.155976
H4    H     H_    0.008100 0.438596 0.293802 0.124452
H5    H     H_    0.637965 0.568109 0.298285 0.137669
H6    H     H_    0.694952 0.544898 0.171730 0.133648
H7    H     H_    0.094203 0.994869 0.223361 0.162106
H8    H     H_    0.906734 0.058376 0.200633 0.167731
H9    H     H_    0.851138 0.090902 0.323852 0.143059
H10   H     H_    0.041388 0.025526 0.346521 0.137707
H11   H     H_    0.385380 0.591717 0.288400 0.132704
H12   H     H_    0.810040 0.086547 0.010436 0.167243
H13   H     H_    0.358877 0.645588 0.159801 0.135006
H14   H     H_    0.217762 0.128885 0.208319 0.143630
H15   H     H_    0.395386 0.104534 0.217762 0.161178
H16   H     H_    0.398129 0.067869 0.342905 0.151231
H17   H     H_    0.220394 0.087096 0.335456 0.141530
H18   H     H_    0.084206 0.471466 0.792982 0.160799
H19   H     H_    0.561215 0.327030 0.820633 0.034792
H20   H     H_    0.596329 0.307455 0.694086 0.052564
H21   H     H_    0.958513 0.882239 0.384192 0.114626
H22   H     H_    0.900431 0.110159 0.676654 0.204335
H23   H     H_    0.955354 0.077995 0.806479 0.188674
H24   H     H_    0.818068 0.623680 0.825135 0.194754
H25   H     H_    0.687209 0.566965 0.841030 0.100911
H26   H     H_    0.622263 0.599950 0.717713 0.097687
H27   H     H_    0.481077 0.872719 0.678165 0.205675
H28   H     H_    0.038811 0.800625 0.815169 0.197623
H29   H     H_    0.225982 0.650387 0.822527 0.133992
H30   H     H_    0.234909 0.628480 0.696044 0.145922
H31   H     H_    0.046422 0.776498 0.688567 0.203992
H32   H     H_    0.846993 0.792732 0.171792 0.121867
H33   H     H_    0.650329 0.984900 0.235472 0.109942
H34   H     H_    0.157661 0.724169 0.311196 0.137003
H35   H     H_    0.617128 0.281780 0.075820 0.108142
H36   H     H_    0.142328 0.514040 0.169191 0.152663
O1    O     O_R   0.748670 0.497520 0.427970 -0.529637
O2    O     O_R   0.300170 0.471020 0.567120 -0.503008
O3    O     O_R   0.491630 0.259030 0.574940 -0.472711
O4    O     O_R   0.718640 0.304340 0.577850 -0.496544
O5    O     O_3   0.500010 0.500010 0.500020 -0.277187
O6    O     O_R   0.186620 0.923750 0.087000 -0.515958
O7    O     O_R   0.957350 0.194160 0.084660 -0.514576
O8    O     O_R   0.935120 0.407280 0.085350 -0.514073
O9    O     O_R   0.203800 0.365060 0.067090 -0.497270
O10   O     O_R   0.417470 0.174910 0.067830 -0.501523
O11   O     O_R   0.375160 0.946380 0.070880 -0.494092
O12   O     O_R   0.476470 0.723930 0.429450 -0.501686
O13   O     O_R   0.160500 0.919670 0.926690 -0.504651
O14   O     O_R   0.933140 0.190380 0.936050 -0.505586
O15   O     O_R   0.909010 0.403210 0.925030 -0.520393
O16   O     O_R   0.179590 0.361290 0.918480 -0.517349
O17   O     O_R   0.391360 0.170840 0.907510 -0.461373
O18   O     O_R   0.350950 0.942600 0.922260 -0.509852
O19   O     O_3   0.166650 0.166610 0.999880 -0.288809
O20   O     O_R   0.264730 0.744140 0.416740 -0.537700
O21   O     O_R   0.309440 0.472410 0.418220 -0.489414
O22   O     O_R   0.501630 0.260530 0.414310 -0.534466
O23   O     O_R   0.727920 0.305730 0.428950 -0.510825
O24   O     O_R   0.738670 0.496020 0.588600 -0.456528
O25   O     O_R   0.467190 0.722540 0.578350 -0.489747
O26   O     O_R   0.254720 0.742640 0.577370 -0.513910
C71   C     C_1   0.079723 0.492975 0.650014 0.244445
N1    N     N_1   0.984988 0.562875 0.612599 -0.178553
F1    F     F_    0.666442 0.107153 0.833103 -0.567211
F2    F     F_    0.694033 0.085669 0.696030 -0.567151
F3    F     F_    0.753071 0.681441 0.697320 -0.589677
C72   C     C_1   0.513296 0.887035 0.814261 0.280356
N2    N     N_1   0.604039 0.895497 0.840199 -0.149506
C73   C     C_1   0.956505 0.813013 0.048849 0.201640
N3    N     N_1   0.048277 0.721723 0.018412 -0.286474

loop_
_geom_bond_atom_site_label_1
_geom_bond_atom_site_label_2
_ccdc_geom_bond_type
C44   C49   A    
C7    C13   A    
C21   C26   A    
C29   C33   S    
C41   C42   S    
C19   C20   A    
C1    O20   A    
Cr2   O21   S    
Cr1   O25   S    
Cr4   O14   S    
C53   C54   A    
C51   H26   S    
Cr4   O7    S    
C59   H29   S    
Cr3   O4    S    
C30   C35   A    
C42   H20   S    
C59   H28   S    
C65   O15   A    
C21   C22   A    
C36   C37   A    
C24   H7    S    
C38   C42   S    
C9    H12   S    
C30   C31   A    
Cr6   O19   S    
C36   C66   S    
C32   H15   S    
C49   H23   S    
C20   C25   S    
C15   C16   A    
Cr2   O2    S    
C64   O6    A    
Cr1   O1    S    
C18   C19   A    
C11   C16   S    
C23   C26   S    
C4    H1    S    
C53   C68   S    
C63   O9    A    
C46   C47   A    
Cr6   O18   S    
C45   O2    A    
C32   H14   S    
Cr3   O23   S    
C44   C46   A    
C8    C9    A    
C31   H13   S    
C12   C17   S    
C42   F2    S    
C10   H36   S    
Cr5   O16   S    
C62   O8    A    
C66   O17   A    
Cr2   O26   S    
C59   C60   S    
C12   O22   A    
C55   C60   S    
C6    H34   S    
C44   C65   S    
Cr4   O6    S    
C56   O24   A    
C69   H32   S    
Cr5   O19   S    
Cr2   O20   S    
C54   C59   S    
C57   H27   S    
C39   C71   S    
Cr3   O5    S    
Cr1   O5    S    
C27   C31   A    
Cr1   O12   S    
C28   C32   S    
C24   C25   S    
C10   C11   A    
C33   H16   S    
Cr1   O24   S    
C4    C5    A    
C39   C43   A    
C34   O26   A    
C34   C61   S    
C33   H17   S    
C67   C69   A    
Cr2   O5    S    
C9    C67   A    
C41   F1    S    
C37   C38   A    
C70   H33   S    
C23   O1    A    
Cr6   O17   S    
C45   O3    A    
C15   H4    S    
C36   C40   A    
C53   C58   A    
C67   C73   S    
C25   H9    S    
C50   C51   S    
C56   O4    A    
C14   H3    S    
C68   O18   A    
C43   C45   S    
C62   O7    A    
C47   C52   A    
C60   H31   S    
C4    C17   A    
C48   C49   A    
C21   H5    S    
C51   F3    S    
C12   O21   A    
C8    H35   S    
C2    C5    S    
C22   H6    S    
C39   C40   A    
C63   O10   A    
C60   H30   S    
C1    C35   S    
C73   N3    T    
Cr4   O19   S    
C46   C50   S    
C54   C55   A    
C28   C29   A    
C7    H21   S    
Cr5   O9    S    
Cr6   O11   S    
C2    C8    A    
Cr5   O8    S    
C40   H18   S    
C72   N2    T    
C3    C5    A    
C11   C17   A    
C47   C51   S    
C71   N1    T    
C57   C61   A    
C6    C7    A    
C3    C63   S    
C64   O11   A    
C48   H22   S    
C29   C35   A    
C34   O25   A    
C50   H24   S    
Cr3   O3    S    
C23   O23   A    
Cr6   O10   S    
C32   C33   S    
C18   C22   A    
C19   C24   S    
C24   H8    S    
C1    O12   A    
C38   C43   A    
C3    C10   A    
C2    C70   A    
C65   O14   A    
C57   C58   A    
C41   H19   S    
C20   C26   A    
C55   C61   A    
C25   H10   S    
C66   O16   A    
Cr5   O15   S    
C37   C41   S    
C69   C70   A    
C27   C64   S    
C13   H2    S    
C6    C16   A    
Cr4   O13   S    
C58   C72   S    
C48   C52   A    
Cr3   O22   S    
C50   H25   S    
C27   C28   A    
C14   C15   A    
C18   C62   S    
C30   H11   S    
C13   C14   A    
C68   O13   A    
C52   C56   S    
