data_mof_unit_20091.cif
_audit_creation_date              2012-12-10T19:21:01-0500
_audit_creation_method            fapswitch 2.2
_symmetry_space_group_name_H-M    P1
_symmetry_Int_Tables_number       1
_space_group_crystal_system       triclinic
_cell_length_a                    14.740985
_cell_length_b                    15.99609
_cell_length_c                    17.030505
_cell_angle_alpha                 89.739709
_cell_angle_beta                  93.037118
_cell_angle_gamma                 90.229683
_cell_volume                      4010.05072289

loop_
_atom_site_label
_atom_site_type_symbol
_atom_type_description
_atom_site_fract_x
_atom_site_fract_y
_atom_site_fract_z
_atom_type_partial_charge
C1    C     C_R   0.499787 0.340826 0.499899 0.833854
C2    C     C_R   0.500196 0.659127 0.499901 0.828754
C3    C     C_R   0.502460 0.912729 0.497939 0.077518
C4    C     C_R   0.497466 0.087011 0.498024 0.075268
C5    C     C_R   0.418967 0.954124 0.495564 -0.207464
C6    C     C_R   0.581009 0.045552 0.500012 -0.203952
C7    C     C_1   0.501495 0.823053 0.498618 -0.079349
C8    C     C_1   0.498388 0.176758 0.498740 -0.072917
C9    C     C_1   0.499188 0.251769 0.499340 -0.177860
C10   C     C_1   0.500718 0.748092 0.499263 -0.188233
C11   C     C_R   0.948740 0.552801 0.448331 -0.322478
C12   C     C_R   0.051260 0.449575 0.551631 -0.331736
C13   C     C_R   0.902913 0.500800 0.500206 -0.107262
C14   C     C_R   0.097158 0.501807 0.500058 -0.111989
C15   C     C_R   0.955224 0.449546 0.552731 0.471232
C16   C     C_R   0.044783 0.554736 0.448708 0.490218
C17   C     C_1   0.802732 0.500426 0.499866 0.196196
C18   C     C_1   0.197279 0.500563 0.499955 0.176168
C19   C     C_R   0.510327 0.501294 0.651520 0.831486
C20   C     C_R   0.489494 0.500061 0.348519 0.834656
C21   C     C_R   0.513158 0.511310 0.737337 -0.121128
C22   C     C_R   0.484788 0.497590 0.262336 -0.117240
C23   C     C_R   0.431959 0.525734 0.774309 -0.262660
C24   C     C_R   0.562933 0.480436 0.222230 -0.260958
C25   C     C_R   0.431413 0.538620 0.855332 0.032063
C26   C     C_R   0.559660 0.475864 0.140162 0.023423
C27   C     C_R   0.514821 0.535778 0.900641 0.254646
C28   C     C_R   0.476232 0.492602 0.097526 0.276146
C29   C     C_R   0.596840 0.525619 0.863151 0.411265
C30   C     C_R   0.397633 0.510763 0.137495 0.424159
C31   C     C_R   0.595570 0.511673 0.782013 -0.314876
C32   C     C_R   0.402193 0.510615 0.220063 -0.329769
C33   C     C_R   0.585047 0.957766 0.499825 0.096450
C34   C     C_R   0.414864 0.041886 0.495418 0.097107
Cu1   Cu    Cu3+1 0.589220 0.500000 0.499980 0.969745
Cu2   Cu    Cu3+1 0.410780 0.500000 0.500020 0.964645
H1    H     H_    0.626471 0.468468 0.255227 0.171051
H2    H     H_    0.368105 0.528606 0.739797 0.174787
H3    H     H_    0.658950 0.501215 0.754259 0.175484
H4    H     H_    0.341459 0.521460 0.251372 0.177651
H5    H     H_    0.642384 0.082931 0.501779 0.143568
H6    H     H_    0.357674 0.916630 0.493960 0.138300
H7    H     H_    0.909908 0.592222 0.407140 0.162473
H8    H     H_    0.089917 0.408130 0.591077 0.164147
N1    N     N_2   0.518810 0.541761 0.983582 -0.251955
N2    N     N_2   0.469151 0.489243 0.014549 -0.236119
N3    N     N_1   0.276710 0.499980 0.499980 -0.162976
N4    N     N_1   0.723290 0.500020 0.500020 -0.161526
O1    O     O_R   0.575320 0.380310 0.499960 -0.564399
O2    O     O_R   0.424680 0.619690 0.500040 -0.577142
O3    O     O_R   0.424640 0.380310 0.500000 -0.571272
O4    O     O_R   0.575360 0.619690 0.500000 -0.575226
O5    O     O_R   0.583590 0.499240 0.613900 -0.580231
O6    O     O_R   0.416410 0.500760 0.386100 -0.575360
O7    O     O_R   0.432900 0.499240 0.613940 -0.585072
O8    O     O_R   0.567100 0.500760 0.386060 -0.582664
C35   C     C_3   0.645615 0.452013 0.100610 -0.360063
C36   C     C_3   0.636986 0.366045 0.061238 -0.301552
C37   C     C_3   0.726752 0.339684 0.028245 -0.840993
H9    H     H_    0.749177 0.386630 0.985095 0.286976
H10   H     H_    0.780070 0.333220 0.076448 0.245883
H11   H     H_    0.717948 0.278506 0.998203 0.237890
H12   H     H_    0.616870 0.318576 0.104997 0.209798
H13   H     H_    0.584181 0.367440 0.012320 0.243374
H14   H     H_    0.662843 0.500629 0.057419 0.244356
H15   H     H_    0.704226 0.450066 0.144505 0.178612
C38   C     C_3   0.341486 0.559339 0.889570 -0.367563
C39   C     C_3   0.280058 0.481654 0.892316 -0.284964
C40   C     C_3   0.183205 0.504813 0.910889 -0.850487
H16   H     H_    0.182659 0.538207 0.967697 0.272061
H17   H     H_    0.152301 0.545380 0.863675 0.239313
H18   H     H_    0.141434 0.447177 0.914839 0.238590
H19   H     H_    0.277395 0.449017 0.834751 0.202782
H20   H     H_    0.308019 0.437487 0.937878 0.251822
H21   H     H_    0.351164 0.586693 0.949152 0.230820
H22   H     H_    0.307419 0.608457 0.852272 0.177701
O9    O     O_3   0.677998 0.521675 0.907360 -0.620557
C41   C     C_3   0.722535 0.599677 0.902870 0.026656
H23   H     H_    0.678267 0.651030 0.922711 0.145121
H24   H     H_    0.741488 0.612493 0.841462 0.138703
C42   C     C_3   0.808989 0.597753 0.956583 -0.323463
H25   H     H_    0.790685 0.588321 0.018464 0.213401
H26   H     H_    0.852363 0.544678 0.940053 0.225517
C43   C     C_3   0.863036 0.678891 0.950842 -0.931912
H27   H     H_    0.884071 0.688643 0.889780 0.252641
H28   H     H_    0.924946 0.675538 0.990812 0.256595
H29   H     H_    0.821496 0.732820 0.968354 0.256666
O10   O     O_3   0.316087 0.522812 0.094168 -0.609960
C44   C     C_3   0.270113 0.595569 0.117829 0.025146
H30   H     H_    0.255192 0.634641 0.064666 0.150022
H31   H     H_    0.310722 0.636401 0.159586 0.131315
C45   C     C_3   0.179825 0.570981 0.152366 -0.327196
H32   H     H_    0.135979 0.538837 0.106696 0.216434
H33   H     H_    0.192034 0.526815 0.202231 0.229325
C46   C     C_3   0.129903 0.647343 0.181411 -0.889497
H34   H     H_    0.171430 0.679087 0.228865 0.260571
H35   H     H_    0.064556 0.627440 0.205336 0.271543
H36   H     H_    0.115373 0.691992 0.132242 0.241854
C47   C     C_3   0.674749 0.910307 0.501603 -0.392344
C48   C     C_3   0.761310 0.964299 0.502537 -0.365815
C49   C     C_3   0.846357 0.910012 0.503358 -0.844605
H37   H     H_    0.850237 0.869163 0.556344 0.253285
H38   H     H_    0.845757 0.870516 0.449838 0.253200
H39   H     H_    0.907684 0.950625 0.504535 0.242019
H40   H     H_    0.760185 0.004815 0.449283 0.222478
H41   H     H_    0.765211 0.004197 0.555900 0.222086
H42   H     H_    0.678312 0.869508 0.554726 0.202530
H43   H     H_    0.674070 0.869276 0.449020 0.204548
C50   C     C_3   0.324962 0.089038 0.492729 -0.388196
C51   C     C_3   0.238638 0.034565 0.488293 -0.377715
C52   C     C_3   0.153148 0.088254 0.485095 -0.822133
H44   H     H_    0.151411 0.127539 0.538613 0.255002
H45   H     H_    0.151094 0.129241 0.432205 0.255714
H46   H     H_    0.092111 0.047226 0.482024 0.240241
H47   H     H_    0.237439 0.995331 0.434533 0.221781
H48   H     H_    0.237524 0.993396 0.541009 0.221659
H49   H     H_    0.323814 0.128712 0.546123 0.203695
H50   H     H_    0.322860 0.131133 0.440509 0.205750
O11   O     O_3   0.086269 0.603907 0.393905 -0.616670
C53   C     C_3   0.119294 0.678714 0.429440 0.056947
H51   H     H_    0.185105 0.693990 0.403718 0.169566
H52   H     H_    0.133634 0.673723 0.494388 0.119227
C54   C     C_3   0.052843 0.750303 0.410793 -0.352619
H53   H     H_    0.039633 0.755192 0.346061 0.229024
H54   H     H_    0.987431 0.737156 0.438063 0.210308
C55   C     C_3   0.090678 0.833513 0.441803 -0.934008
H55   H     H_    0.102012 0.830891 0.506769 0.256363
H56   H     H_    0.041548 0.884205 0.426535 0.259383
H57   H     H_    0.155868 0.848410 0.414907 0.250951
O12   O     O_3   0.912177 0.394883 0.601713 -0.604327
C56   C     C_3   0.911963 0.430325 0.677426 0.038291
H58   H     H_    0.883155 0.494791 0.674921 0.129684
H59   H     H_    0.982312 0.432513 0.704718 0.141158
C57   C     C_3   0.852951 0.376230 0.728622 -0.309930
H60   H     H_    0.782624 0.373683 0.701676 0.228133
H61   H     H_    0.880366 0.311600 0.731821 0.224039
C58   C     C_3   0.850267 0.411244 0.811580 -0.926922
H62   H     H_    0.919378 0.411411 0.840924 0.249779
H63   H     H_    0.804949 0.371975 0.846584 0.270400
H64   H     H_    0.823613 0.475993 0.809337 0.266117

loop_
_geom_bond_atom_site_label_1
_geom_bond_atom_site_label_2
_ccdc_geom_bond_type
C7    C10   T    
C5    H6    S    
C55   H55   S    
C27   C29   A    
C14   C18   S    
C46   H34   S    
C25   C38   S    
C17   N4    T    
C35   H15   S    
C20   O8    A    
C56   C57   S    
C18   N3    T    
C57   C58   S    
C42   H25   S    
C46   H36   S    
C50   H49   S    
C54   H53   S    
O9    C41   S    
C47   H43   S    
C58   H63   S    
C28   N2    S    
C48   H40   S    
C49   H37   S    
C22   C32   A    
C19   C21   S    
C43   H28   S    
C3    C7    S    
C41   H24   S    
C54   H54   S    
Cu1   O5    S    
C3    C33   A    
C39   H20   S    
Cu2   N3    S    
C40   H17   S    
C51   C52   S    
C48   C49   S    
C2    O2    A    
Cu1   Cu2   S    
C39   C40   S    
C6    H5    S    
Cu1   O1    S    
C43   H29   S    
C11   H7    S    
C44   H31   S    
C53   C54   S    
C4    C8    S    
C19   O5    A    
C23   C25   A    
C37   H9    S    
C49   H38   S    
Cu1   N4    S    
C42   H26   S    
C53   H52   S    
C50   H50   S    
C36   H13   S    
C58   H64   S    
C4    C34   A    
C37   H10   S    
C38   C39   S    
C1    C9    S    
C43   H27   S    
C4    C6    A    
C16   O11   S    
C41   H23   S    
C8    C9    T    
C54   C55   S    
C57   H61   S    
C55   H57   S    
C3    C5    A    
C39   H19   S    
N1    N2    D    
C45   C46   S    
C33   C47   S    
C40   H18   S    
C21   C31   A    
C11   C16   A    
C47   C48   S    
C12   C15   A    
C5    C34   A    
C45   H33   S    
C24   H1    S    
C52   H45   S    
C44   C45   S    
C1    O3    A    
Cu2   O3    S    
C2    O4    A    
C20   O6    A    
C12   C14   A    
C49   H39   S    
C21   C23   A    
C14   C16   A    
C38   H21   S    
C20   C22   S    
C30   O10   S    
C56   H58   S    
C2    C10   S    
C51   H48   S    
C42   C43   S    
Cu2   O2    S    
C53   H51   S    
C19   O7    A    
C36   H12   S    
C37   H11   S    
C55   H56   S    
C52   H44   S    
Cu1   O8    S    
C48   H41   S    
C24   C26   A    
C35   H14   S    
C56   H59   S    
O11   C53   S    
C46   H35   S    
C57   H60   S    
C25   C27   A    
C23   H2    S    
C47   H42   S    
C58   H62   S    
C26   C28   A    
C6    C33   A    
C13   C17   S    
C13   C15   A    
O12   C56   S    
C36   C37   S    
C29   C31   A    
Cu2   O7    S    
C50   C51   S    
C30   C32   A    
C11   C13   A    
C41   C42   S    
C27   N1    S    
C35   C36   S    
C15   O12   S    
C28   C30   A    
C45   H32   S    
C31   H3    S    
C52   H46   S    
C22   C24   A    
C32   H4    S    
C40   H16   S    
C26   C35   S    
Cu2   O6    S    
C29   O9    S    
O10   C44   S    
C12   H8    S    
Cu1   O4    S    
C34   C50   S    
C38   H22   S    
C44   H30   S    
C1    O1    A    
C51   H47   S    
