data_mof_unit_5233.cif
_audit_creation_date              2012-12-11T16:26:29-0500
_audit_creation_method            fapswitch 2.2
_symmetry_space_group_name_H-M    P1
_symmetry_Int_Tables_number       1
_space_group_crystal_system       triclinic
_cell_length_a                    6.936658
_cell_length_b                    17.530922
_cell_length_c                    19.461969
_cell_angle_alpha                 108.64889
_cell_angle_beta                  89.605662
_cell_angle_gamma                 90.560939
_cell_volume                      2242.3063005

loop_
_atom_site_label
_atom_site_type_symbol
_atom_type_description
_atom_site_fract_x
_atom_site_fract_y
_atom_site_fract_z
_atom_type_partial_charge
O1    O     O_R   0.494330 0.415720 0.413720 -0.536169
O2    O     O_R   0.819330 0.430070 0.560210 -0.548410
O3    O     O_R   0.994320 0.584280 0.586280 -0.534617
C1    C     C_R   0.650113 0.414573 0.581523 0.705230
O4    O     O_R   0.823730 0.406300 0.412670 -0.539732
O5    O     O_R   0.998760 0.560340 0.437690 -0.538220
C2    C     C_R   0.654933 0.383441 0.385067 0.695507
O6    O     O_R   0.489890 0.439660 0.562310 -0.540130
O7    O     O_3   0.662340 0.550560 0.508380 -0.365269
V1    V     V_3+5 0.935370 0.490620 0.498450 1.420743
O8    O     O_R   0.328750 0.569930 0.439790 -0.547814
C3    C     C_R   0.160683 0.585035 0.418121 0.710714
O9    O     O_R   0.324340 0.593700 0.587330 -0.538276
C4    C     C_R   0.155495 0.616509 0.614956 0.695103
V2    V     V_3+5 0.435940 0.509380 0.501550 1.425029
O10   O     O_3   0.159100 0.449440 0.491620 -0.370049
C5    C     C_R   0.060023 0.591807 0.750928 -0.152981
C6    C     C_R   0.012944 0.577699 0.815530 -0.118039
C7    C     C_R   0.001054 0.641590 0.879811 -0.107608
C8    C     C_R   0.036019 0.720055 0.879957 -0.148275
C9    C     C_R   0.082892 0.736433 0.815071 0.048700
C10   C     C_R   0.095320 0.670924 0.749270 0.080027
C11   C     C_R   0.119677 0.816317 0.815285 -0.166060
C12   C     C_R   0.168426 0.830929 0.749297 -0.045137
C13   C     C_R   0.182363 0.764773 0.683635 -0.078166
C14   C     C_R   0.145401 0.685073 0.683664 -0.111574
C15   C     C_R   0.201013 0.910144 0.746137 0.501795
C16   C     C_R   0.248833 0.922590 0.680821 -0.255566
C17   C     C_R   0.263687 0.857969 0.617339 0.607813
C18   C     C_R   0.230053 0.779998 0.618371 -0.242698
H1    H     H_    0.069492 0.539915 0.702549 0.099170
H2    H     H_    0.986445 0.516794 0.815723 0.112064
H3    H     H_    0.965271 0.630314 0.929955 0.113190
H4    H     H_    0.026589 0.767453 0.931577 0.086004
H5    H     H_    0.273291 0.983201 0.679451 0.168771
H6    H     H_    0.240872 0.731893 0.567246 0.143394
C19   C     C_R   0.990214 0.629673 0.324362 -0.206398
C20   C     C_R   0.152574 0.634294 0.368674 -0.088375
C21   C     C_R   0.306883 0.685720 0.365075 -0.181634
C22   C     C_R   0.299014 0.732608 0.318551 0.090852
C23   C     C_R   0.136446 0.726962 0.273880 0.047998
C24   C     C_R   0.981932 0.675030 0.276622 0.093233
C25   C     C_R   0.450740 0.785211 0.315943 -0.139586
C26   C     C_R   0.442845 0.831058 0.268880 -0.185236
C27   C     C_R   0.282922 0.825225 0.223604 0.083581
C28   C     C_R   0.128380 0.773317 0.226371 0.054488
C29   C     C_R   0.965811 0.767666 0.181701 0.093971
C30   C     C_R   0.814030 0.715102 0.184341 -0.188690
C31   C     C_R   0.821951 0.669237 0.231384 -0.192039
C32   C     C_R   0.274745 0.870496 0.175783 -0.207594
C33   C     C_R   0.112440 0.865817 0.131426 -0.078054
C34   C     C_R   0.958023 0.814481 0.135116 -0.235442
H7    H     H_    0.871125 0.589832 0.326229 0.122219
H8    H     H_    0.432189 0.690046 0.399150 0.140941
H9    H     H_    0.576336 0.790551 0.350021 0.149567
H10   H     H_    0.562571 0.870783 0.267605 0.131150
H11   H     H_    0.393879 0.910299 0.173874 0.122643
H12   H     H_    0.832706 0.810145 0.101045 0.126980
H13   H     H_    0.688408 0.709778 0.150279 0.132441
H14   H     H_    0.702225 0.629512 0.232659 0.125265
C35   C     C_R   0.467770 0.185942 0.867670 -0.185210
C36   C     C_R   0.623436 0.135771 0.870001 -0.083483
C37   C     C_R   0.783603 0.132319 0.824360 -0.213355
C38   C     C_R   0.787411 0.177106 0.776000 0.080293
C39   C     C_R   0.630871 0.227383 0.774246 0.053987
C40   C     C_R   0.471143 0.232177 0.820633 0.084399
C41   C     C_R   0.944428 0.172131 0.728952 -0.163379
C42   C     C_R   0.947528 0.217207 0.681174 -0.181084
C43   C     C_R   0.793651 0.268040 0.679559 0.087680
C44   C     C_R   0.633939 0.272869 0.725959 0.055855
C45   C     C_R   0.477447 0.323184 0.724227 0.091895
C46   C     C_R   0.320413 0.328132 0.771268 -0.186666
C47   C     C_R   0.317261 0.283008 0.819014 -0.189594
C48   C     C_R   0.797040 0.314241 0.632504 -0.227207
C49   C     C_R   0.641501 0.364477 0.630206 -0.082800
C50   C     C_R   0.481338 0.368029 0.675898 -0.212877
H15   H     H_    0.344010 0.189428 0.902852 0.130681
H16   H     H_    0.903521 0.093529 0.825382 0.185509
H17   H     H_    0.065494 0.133661 0.729358 0.151707
H18   H     H_    0.071110 0.212682 0.645762 0.139149
H19   H     H_    0.920744 0.310679 0.597282 0.128430
H20   H     H_    0.361498 0.406934 0.674940 0.121912
H21   H     H_    0.199356 0.366610 0.770875 0.127783
H22   H     H_    0.193656 0.287509 0.854410 0.131465
H23   H     H_    0.831326 0.131376 0.426905 0.126016
C51   C     C_R   0.542419 0.407686 0.250782 -0.144539
C52   C     C_R   0.487020 0.421375 0.187081 -0.122872
C53   C     C_R   0.475192 0.357671 0.122623 -0.117900
C54   C     C_R   0.518691 0.279798 0.121367 -0.135808
C55   C     C_R   0.573827 0.263860 0.185322 0.069066
C56   C     C_R   0.585931 0.329131 0.251404 0.068942
C57   C     C_R   0.620264 0.184773 0.183949 -0.179106
C58   C     C_R   0.678653 0.170932 0.248668 0.069627
C59   C     C_R   0.690755 0.236202 0.314750 0.068172
C60   C     C_R   0.644356 0.315291 0.316120 -0.183230
C61   C     C_R   0.722144 0.092374 0.249291 -0.147750
C62   C     C_R   0.777514 0.078683 0.312994 -0.114982
C63   C     C_R   0.789338 0.142385 0.377453 -0.106701
C64   C     C_R   0.745866 0.220261 0.378707 -0.138155
H24   H     H_    0.552052 0.459518 0.299208 0.102317
H25   H     H_    0.454219 0.481855 0.187702 0.112602
H26   H     H_    0.433180 0.368678 0.073172 0.112888
H27   H     H_    0.509822 0.232566 0.069621 0.093894
H28   H     H_    0.712512 0.040543 0.200865 0.104026
H29   H     H_    0.810295 0.018201 0.312375 0.122449
H30   H     H_    0.754727 0.267492 0.430453 0.101170
O11   O     O_R   0.775200 0.060470 0.937800 -0.534547
O12   O     O_R   0.441110 0.093720 0.087350 -0.544153
O13   O     O_R   0.266330 0.939630 0.062280 -0.547122
C65   C     C_R   0.609847 0.116632 0.114993 0.680027
O14   O     O_R   0.445750 0.069950 0.939820 -0.519430
O15   O     O_R   0.271000 0.915700 0.913700 -0.517694
C66   C     C_R   0.614948 0.085577 0.918608 0.740940
O16   O     O_R   0.770530 0.084400 0.086380 -0.540329
O17   O     O_3   0.602830 0.949510 0.991680 -0.378264
V3    V     V_3+5 0.329710 0.009370 0.001550 1.485437
O18   O     O_R   0.940990 0.906170 0.912570 -0.542878
C67   C     C_R   0.109821 0.883823 0.884672 0.834429
O19   O     O_R   0.936350 0.929940 0.060100 -0.552371
C68   C     C_R   0.104400 0.914950 0.081866 0.682311
V4    V     V_3+5 0.829160 0.990450 0.998310 1.448104
O20   O     O_3   0.105910 0.050480 0.008320 -0.361539
F1    F     F_    0.309178 0.870946 0.554078 -0.670162
F2    F     F_    0.184133 0.976809 0.805123 -0.708720

loop_
_geom_bond_atom_site_label_1
_geom_bond_atom_site_label_2
_ccdc_geom_bond_type
C42   H18   S    
C52   C53   A    
C58   C59   A    
O17   V4    S    
C23   C24   A    
C7    C8    A    
C12   C15   A    
C1    O6    A    
C11   C67   S    
C62   C63   A    
C27   C28   A    
C17   C18   A    
C31   H14   S    
V3    O20   S    
C27   C32   A    
C16   C17   A    
C51   C56   A    
O5    C3    A    
C20   C21   A    
C21   H8    S    
C39   C44   A    
C6    C7    A    
C8    H4    S    
C19   C24   A    
O18   V4    S    
O11   C66   A    
C1    C49   S    
H23   C63   S    
O13   V3    S    
C52   H25   S    
O16   V4    S    
O8    V2    S    
C35   C40   A    
C22   C25   A    
C16   H5    S    
C35   H15   S    
C42   C43   A    
C23   C28   A    
O14   V3    S    
O1    V2    S    
C51   H24   S    
O7    V1    S    
C65   O16   A    
C47   H22   S    
C19   H7    S    
C53   C54   A    
O9    C4    A    
C54   H27   S    
C59   C60   A    
C33   C68   S    
O19   V4    S    
C48   C49   A    
C41   C42   A    
C38   C41   A    
C41   H17   S    
C12   C13   A    
C36   C66   S    
C7    H3    S    
C50   H20   S    
C21   C22   A    
O4    C2    A    
C51   C52   A    
C32   C33   A    
C13   C14   A    
C40   C47   A    
C33   C34   A    
O2    C1    A    
C49   C50   A    
C19   C20   A    
C26   H10   S    
C55   C57   A    
C29   C30   A    
O9    V2    S    
C11   C12   A    
C61   C62   A    
C36   C37   A    
C5    C6    A    
C43   C48   A    
O14   C66   A    
C4    C14   S    
V4    O20   S    
C44   C45   A    
O3    C4    A    
C34   H12   S    
C25   H9    S    
C30   C31   A    
C63   C64   A    
O6    V2    S    
C61   H28   S    
C25   C26   A    
C5    H1    S    
C6    H2    S    
O11   V4    S    
C48   H19   S    
O2    V1    S    
O15   V3    S    
C15   F2    S    
C26   C27   A    
C30   H13   S    
C13   C18   A    
C64   H30   S    
C28   C29   A    
C22   C23   A    
O1    C2    A    
C32   H11   S    
C46   C47   A    
O5    V1    S    
C53   H26   S    
O19   C68   A    
C29   C34   A    
C58   C61   A    
C2    C60   S    
C5    C10   A    
C18   H6    S    
C38   C39   A    
O12   V3    S    
C9    C11   A    
O7    V2    S    
C62   H29   S    
C45   C46   A    
O3    V1    S    
V1    O10   S    
O18   C67   A    
O15   C67   A    
C57   C65   S    
C55   C56   A    
C45   C50   A    
C59   C64   A    
V2    O10   S    
C17   F1    S    
C57   C58   A    
O12   C65   A    
C3    C20   S    
C35   C36   A    
C43   C44   A    
C46   H21   S    
C24   C31   A    
C56   C60   A    
C37   C38   A    
O4    V1    S    
C8    C9    A    
O13   C68   A    
C39   C40   A    
C10   C14   A    
C15   C16   A    
C54   C55   A    
C9    C10   A    
O17   V3    S    
O8    C3    A    
C37   H16   S    
