data_mof_unit_61055.cif
_audit_creation_date              2012-12-10T18:39:53-0500
_audit_creation_method            fapswitch 2.2
_symmetry_space_group_name_H-M    P1
_symmetry_Int_Tables_number       1
_space_group_crystal_system       triclinic
_cell_length_a                    11.567185
_cell_length_b                    10.799929
_cell_length_c                    10.541376
_cell_angle_alpha                 89.645093
_cell_angle_beta                  90.064609
_cell_angle_gamma                 90.089267
_cell_volume                      1316.8513582

loop_
_atom_site_label
_atom_site_type_symbol
_atom_type_description
_atom_site_fract_x
_atom_site_fract_y
_atom_site_fract_z
_atom_type_partial_charge
C1    C     C_R   0.281231 0.499928 0.499867 0.929536
C2    C     C_3   0.410509 0.431108 0.043034 -0.325333
C3    C     C_3   0.401408 0.547065 0.958439 0.449323
C4    C     C_3   0.598641 0.452952 0.041587 0.527608
C5    C     C_3   0.500122 0.498630 0.877585 -0.168580
C6    C     C_3   0.499912 0.501377 0.122425 -0.179234
C7    C     C_1   0.161090 0.499822 0.499813 -0.101269
C8    C     C_1   0.838912 0.500178 0.500107 -0.089257
C9    C     C_1   0.059169 0.499911 0.499873 0.058853
C10   C     C_1   0.940833 0.500088 0.500000 0.063486
C11   C     C_R   0.718770 0.500072 0.500121 0.940753
C12   C     C_R   0.499841 0.500449 0.256727 0.955337
C13   C     C_R   0.500147 0.499552 0.743276 0.963832
C14   C     C_1   0.500001 0.069819 0.499998 0.087844
C15   C     C_1   0.499998 0.930181 0.500002 0.088539
C16   C     C_3   0.489124 0.618266 0.039727 -0.238663
C17   C     C_3   0.510929 0.381741 0.960291 -0.215489
C18   C     C_3   0.589550 0.568894 0.956980 -0.272068
H1    H     H_    0.174924 0.572870 0.073732 0.347493
H2    H     H_    0.886815 0.318679 0.015257 0.395555
H3    H     H_    0.478882 0.714217 0.075138 0.203369
H4    H     H_    0.521156 0.285784 0.924889 0.199745
H5    H     H_    0.663014 0.623423 0.918133 0.199579
H6    H     H_    0.337071 0.376538 0.081883 0.183468
N1    N     N_1   0.500000 0.180630 0.500000 -0.067796
N2    N     N_1   0.500000 0.819370 0.500000 -0.067781
O1    O     O_R   0.334450 0.602530 0.499980 -0.590572
O2    O     O_2   0.207404 0.513332 0.821734 -0.310888
O3    O     O_3   0.184460 0.649626 0.022891 -0.494935
O4    O     O_2   0.790887 0.486780 0.180013 -0.318408
O5    O     O_2   0.707167 0.277539 0.178552 -0.286158
O6    O     O_3   0.816007 0.354106 0.976544 -0.535773
O7    O     O_R   0.665550 0.397470 0.500020 -0.590221
O8    O     O_R   0.665550 0.602530 0.500020 -0.618301
O9    O     O_R   0.334450 0.397470 0.499980 -0.620560
O10   O     O_R   0.499970 0.602510 0.313950 -0.625459
O11   O     O_R   0.500030 0.397490 0.686050 -0.623887
O12   O     O_R   0.500030 0.602510 0.686050 -0.592397
O13   O     O_R   0.499970 0.397490 0.313950 -0.590543
O14   O     O_2   0.292982 0.721140 0.819678 -0.241992
S1    S     S_3+6 0.268629 0.608868 0.900213 0.051668
S2    S     S_3+6 0.731290 0.391262 0.100006 0.029970
Zn1   Zn    Zn3+2 0.500000 0.636920 0.500000 1.044934
Zn2   Zn    Zn3+2 0.500000 0.363080 0.500000 1.044671

loop_
_geom_bond_atom_site_label_1
_geom_bond_atom_site_label_2
_ccdc_geom_bond_type
C16   H3    S    
O5    S2    D    
C12   O10   A    
C9    C10   S    
C5    C13   S    
C17   H4    S    
C3    C5    S    
C4    C18   S    
O11   Zn2   S    
C2    C3    S    
O12   Zn1   S    
C2    C6    S    
C2    C17   S    
C2    H6    S    
O9    Zn2   S    
C13   O12   A    
O13   Zn2   S    
C4    S2    S    
C12   O13   A    
C8    C11   S    
C4    C17   S    
N1    Zn2   S    
C4    C6    S    
O14   S1    D    
N2    Zn1   S    
C7    C9    T    
C11   O8    A    
C14   N1    T    
C6    C12   S    
C5    C17   S    
O8    Zn1   S    
C6    C16   S    
C18   H5    S    
H1    O3    S    
O1    Zn1   S    
O2    S1    D    
C11   O7    A    
C1    O9    A    
C16   C18   S    
H2    O6    S    
C1    O1    A    
O6    S2    S    
C14   C15   S    
O4    S2    D    
O10   Zn1   S    
C5    C18   S    
O3    S1    S    
C1    C7    S    
O7    Zn2   S    
C13   O11   A    
C8    C10   T    
C3    S1    S    
C3    C16   S    
C15   N2    T    
