data_mof_unit_37123.cif
_audit_creation_date              2012-12-11T14:25:52-0500
_audit_creation_method            fapswitch 2.2
_symmetry_space_group_name_H-M    P1
_symmetry_Int_Tables_number       1
_space_group_crystal_system       triclinic
_cell_length_a                    6.933444
_cell_length_b                    14.745696
_cell_length_c                    16.208966
_cell_angle_alpha                 90.826641
_cell_angle_beta                  89.362683
_cell_angle_gamma                 90.157909
_cell_volume                      1656.89911741

loop_
_atom_site_label
_atom_site_type_symbol
_atom_type_description
_atom_site_fract_x
_atom_site_fract_y
_atom_site_fract_z
_atom_type_partial_charge
O1    O     O_R   0.494490 0.416160 0.413410 -0.542498
O2    O     O_R   0.823830 0.407240 0.585990 -0.531293
O3    O     O_R   0.994160 0.583840 0.586590 -0.544778
C1    C     C_R   0.655312 0.384847 0.613765 0.759313
O4    O     O_R   0.824200 0.405280 0.414020 -0.517949
O5    O     O_R   0.994530 0.581860 0.413390 -0.538065
C2    C     C_R   0.655820 0.381094 0.387228 0.794293
O6    O     O_R   0.494110 0.418140 0.586610 -0.545051
O7    O     O_3   0.660810 0.557940 0.500000 -0.383826
V1    V     V_3+5 0.935650 0.489250 0.500000 1.448704
O8    O     O_R   0.324250 0.592760 0.414010 -0.548946
C3    C     C_R   0.158120 0.612178 0.383530 0.676584
O9    O     O_R   0.323880 0.594720 0.585980 -0.548156
C4    C     C_R   0.154663 0.616975 0.614774 0.641862
V2    V     V_3+5 0.435660 0.510750 0.500000 1.404647
O10   O     O_3   0.160630 0.442060 0.500000 -0.353626
C5    C     C_3   0.046139 0.644919 0.762624 -0.313314
H1    H     H_    0.897875 0.621399 0.747446 0.137686
H2    H     H_    0.128649 0.584527 0.782410 0.130551
C6    C     C_3   0.035142 0.715390 0.834832 -0.314723
H3    H     H_    0.114129 0.688965 0.888759 0.140675
H4    H     H_    0.881929 0.724634 0.854282 0.142729
H5    H     H_    0.876708 0.749501 0.642363 0.139876
H6    H     H_    0.858050 0.852799 0.748878 0.138124
C7    C     C_3   0.024974 0.770648 0.660088 -0.320708
C8    C     C_3   0.348349 0.720043 0.710233 -0.314613
C9    C     C_3   0.143921 0.686498 0.685124 0.112507
H7    H     H_    0.422733 0.751155 0.656357 0.135046
H8    H     H_    0.437529 0.661624 0.729745 0.136941
C10   C     C_3   0.123307 0.807693 0.808777 0.107051
C11   C     C_3   0.012271 0.841090 0.732264 -0.316649
C12   C     C_3   0.336384 0.790482 0.781618 -0.308037
H9    H     H_    0.420795 0.765564 0.834706 0.143247
H10   H     H_    0.404276 0.855073 0.761380 0.133650
H11   H     H_    0.092871 0.802742 0.605219 0.122502
H12   H     H_    0.073062 0.907056 0.711762 0.127009
C13   C     C_2   0.028074 0.675196 0.250434 0.133373
C14   C     C_2   0.167752 0.672254 0.309604 -0.197181
C15   C     C_2   0.051101 0.730798 0.173467 0.069713
C16   C     C_2   0.105048 0.819176 0.178822 -0.316194
H13   H     H_    0.133483 0.849961 0.238724 0.112346
C17   C     C_2   0.781402 0.207169 0.781726 -0.136154
C18   C     C_2   0.615101 0.173125 0.811304 -0.346342
H14   H     H_    0.914956 0.185827 0.809956 0.145022
H15   H     H_    0.478245 0.190680 0.784213 0.130467
C19   C     C_2   0.798877 0.269593 0.710218 0.176342
C20   C     C_2   0.646106 0.318468 0.682011 -0.307383
H16   H     H_    0.505800 0.311818 0.711367 0.105076
C21   C     C_2   0.774036 0.194953 0.221047 -0.203160
C22   C     C_2   0.611122 0.174740 0.179987 -0.300704
H17   H     H_    0.907979 0.163439 0.200377 0.132550
H18   H     H_    0.473135 0.200679 0.201645 0.128551
C23   C     C_2   0.782212 0.251150 0.298469 0.017801
C24   C     C_2   0.645570 0.314410 0.317888 -0.312213
H19   H     H_    0.521798 0.321887 0.278328 0.118298
O11   O     O_R   0.770850 0.076180 0.907410 -0.541055
O12   O     O_R   0.440600 0.088970 0.079950 -0.546877
O13   O     O_R   0.270430 0.912340 0.080550 -0.523362
C25   C     C_R   0.608356 0.110339 0.109065 0.761613
O14   O     O_R   0.441120 0.087010 0.907980 -0.545828
O15   O     O_R   0.270950 0.910370 0.907350 -0.543902
C26   C     C_R   0.610056 0.108179 0.879709 0.751826
O16   O     O_R   0.770320 0.078150 0.080620 -0.537450
O17   O     O_3   0.604200 0.936340 0.994000 -0.369528
V3    V     V_3+5 0.329300 0.004970 0.993950 1.420743
O18   O     O_R   0.941240 0.899420 0.907920 -0.547500
C27   C     C_R   0.110915 0.877174 0.879156 0.642556
O19   O     O_R   0.940720 0.901380 0.079890 -0.542677
C28   C     C_R   0.107323 0.880676 0.108174 0.721047
V4    V     V_3+5 0.829310 0.983370 0.993880 1.419853
O20   O     O_3   0.104280 0.052120 0.993920 -0.371977
C29   C     C_3   0.844579 0.620078 0.258699 -0.620963
H20   H     H_    0.749592 0.628555 0.204793 0.243970
H21   H     H_    0.879092 0.546814 0.263146 0.194857
H22   H     H_    0.761230 0.643046 0.313940 0.196620
C30   C     C_2   0.357081 0.719535 0.298160 0.340452
H23   H     H_    0.431966 0.746550 0.351632 0.041017
O21   O     O_2   0.435834 0.723963 0.230583 -0.530338
C31   C     C_2   0.016381 0.686996 0.091446 0.416275
H24   H     H_    0.010812 0.726986 0.035910 0.004821
O22   O     O_2   0.998012 0.604851 0.084825 -0.528076
C32   C     C_3   0.998965 0.276087 0.672122 -0.678804
H25   H     H_    0.100685 0.227431 0.699879 0.164249
H26   H     H_    0.993894 0.259353 0.605174 0.243398
H27   H     H_    0.059768 0.345024 0.682399 0.199724
C33   C     C_2   0.948672 0.232115 0.352500 0.401595
H28   H     H_    0.084308 0.209682 0.325152 0.017556
O23   O     O_2   0.932860 0.235152 0.427590 -0.534807

loop_
_geom_bond_atom_site_label_1
_geom_bond_atom_site_label_2
_ccdc_geom_bond_type
C7    C11   S    
C8    C12   S    
C1    O6    A    
C6    C10   S    
C23   C24   D    
C8    C9    S    
C22   C25   S    
C30   O21   D    
O5    C3    A    
C10   C11   S    
C33   O23   D    
O12   C25   A    
V2    O10   S    
C5    C6    S    
O14   C26   A    
C17   C19   S    
C32   H26   S    
C24   H19   S    
O8    V2    S    
O19   C28   A    
C21   H17   S    
C22   H18   S    
V4    O20   S    
O1    V2    S    
O17   V4    S    
C4    C9    S    
O7    V1    S    
C10   C27   S    
O18   C27   A    
C19   C32   S    
O9    C4    A    
C17   H14   S    
C29   H22   S    
C16   C28   S    
C5    C9    S    
C30   H23   S    
C29   H21   S    
C15   C16   D    
C31   O22   D    
C33   H28   S    
C14   C30   S    
V3    O20   S    
C12   H10   S    
O2    C1    A    
C13   C14   D    
O15   C27   A    
O13   V3    S    
C20   H16   S    
O16   V4    S    
C5    H1    S    
C18   H15   S    
C23   C33   S    
O3    C4    A    
C7    H11   S    
C16   H13   S    
C6    H4    S    
O14   V3    S    
C32   H25   S    
O6    V2    S    
O11   V4    S    
O9    V2    S    
O11   C26   A    
C17   C18   D    
O2    V1    S    
O4    C2    A    
C19   C20   D    
O1    C2    A    
C25   O16   A    
O12   V3    S    
C29   H20   S    
O5    V1    S    
O8    C3    A    
O13   C28   A    
C7    C9    S    
C32   H27   S    
C8    H7    S    
O17   V3    S    
O7    V2    S    
H6    C11   S    
O4    V1    S    
C13   C15   S    
O3    V1    S    
V1    O10   S    
C12   H9    S    
C10   C12   S    
O18   V4    S    
C21   C23   S    
C5    H2    S    
H5    C7    S    
C3    C14   S    
C31   H24   S    
O15   V3    S    
C6    H3    S    
C8    H8    S    
O19   V4    S    
C21   C22   D    
C13   C29   S    
C11   H12   S    
C2    C24   S    
C18   C26   S    
C15   C31   S    
C1    C20   S    
