data_mof_unit_44417.cif
_audit_creation_date              2012-12-10T20:41:54-0500
_audit_creation_method            fapswitch 2.2
_symmetry_space_group_name_H-M    P1
_symmetry_Int_Tables_number       1
_space_group_crystal_system       triclinic
_cell_length_a                    14.785423
_cell_length_b                    15.221465
_cell_length_c                    9.967887
_cell_angle_alpha                 89.467153
_cell_angle_beta                  91.084218
_cell_angle_gamma                 89.491559
_cell_volume                      2242.74024958

loop_
_atom_site_label
_atom_site_type_symbol
_atom_type_description
_atom_site_fract_x
_atom_site_fract_y
_atom_site_fract_z
_atom_type_partial_charge
C1    C     C_R   0.376490 0.883726 0.499365 0.866426
C2    C     C_R   0.920636 0.500059 0.067710 0.088927
C3    C     C_R   0.579040 0.994662 0.074362 0.183926
C4    C     C_R   0.079040 0.494662 0.074362 0.183926
C5    C     C_R   0.578862 0.992624 0.930864 0.166173
C6    C     C_R   0.078862 0.492624 0.930864 0.166173
C7    C     C_R   0.420730 0.997423 0.926377 0.084342
C8    C     C_R   0.920730 0.497423 0.926377 0.084342
C9    C     C_3   0.344357 0.060665 0.910734 -0.500561
C10   C     C_3   0.844357 0.560665 0.910734 -0.500560
C11   C     C_3   0.347001 0.068933 0.062525 0.273511
C12   C     C_R   0.380294 0.119505 0.498912 0.874320
C13   C     C_3   0.847001 0.568933 0.062525 0.273511
C14   C     C_R   0.617332 0.122547 0.500039 0.889393
C15   C     C_R   0.619569 0.880370 0.500994 0.896249
C16   C     C_R   0.117332 0.622547 0.500039 0.889393
C17   C     C_R   0.119569 0.380370 0.500994 0.896249
C18   C     C_R   0.227533 0.166988 0.457510 0.181495
C19   C     C_R   0.254354 0.809933 0.616031 0.121214
C20   C     C_R   0.727533 0.666989 0.457510 0.181495
C21   C     C_R   0.754355 0.309933 0.616032 0.121214
C22   C     C_R   0.315711 0.186795 0.495286 -0.076757
C23   C     C_R   0.876490 0.383726 0.499365 0.866426
C24   C     C_R   0.297060 0.831565 0.496985 -0.108303
C25   C     C_R   0.815711 0.686795 0.495286 -0.076757
C26   C     C_R   0.797060 0.331565 0.496985 -0.108303
C27   C     C_R   0.342229 0.272830 0.521703 -0.178849
C28   C     C_R   0.261126 0.802054 0.374406 -0.190014
C29   C     C_R   0.842229 0.772830 0.521703 -0.178849
C30   C     C_R   0.761125 0.302054 0.374406 -0.190014
C31   C     C_R   0.776578 0.838063 0.524330 -0.148564
C32   C     C_R   0.697146 0.236414 0.375029 -0.179621
C33   C     C_R   0.276577 0.338063 0.524330 -0.148564
C34   C     C_R   0.880294 0.619505 0.498912 0.874320
C35   C     C_R   0.197146 0.736413 0.375028 -0.179621
C36   C     C_R   0.686391 0.815131 0.501365 -0.077541
C37   C     C_R   0.670299 0.200496 0.498193 -0.116021
C38   C     C_R   0.186391 0.315130 0.501365 -0.077541
C39   C     C_R   0.170299 0.700496 0.498193 -0.116021
C40   C     C_R   0.662648 0.731627 0.459490 0.141098
C41   C     C_R   0.692022 0.244025 0.616816 0.118716
C42   C     C_R   0.162648 0.231627 0.459490 0.141098
C43   C     C_R   0.192021 0.744025 0.616816 0.118716
C44   C     C_3   0.594132 0.671578 0.518186 -0.503215
C45   C     C_3   0.166195 0.100181 0.517087 -0.488239
C46   C     C_3   0.726007 0.209644 0.749447 -0.434278
C47   C     C_3   0.094132 0.171578 0.518186 -0.503216
C48   C     C_3   0.226005 0.709646 0.749448 -0.434279
C49   C     C_3   0.293374 0.783869 0.749969 -0.463303
C50   C     C_3   0.666195 0.600181 0.517087 -0.488239
C51   C     C_3   0.793376 0.283868 0.749968 -0.463305
C52   C     C_R   0.420637 0.000059 0.067710 0.088927
H1    H     H_    0.412267 0.288450 0.544040 0.151563
H2    H     H_    0.760041 0.144955 0.740486 0.232270
H3    H     H_    0.074126 0.190897 0.620900 0.214174
H4    H     H_    0.260039 0.644957 0.740489 0.232270
H5    H     H_    0.536835 0.659415 0.447145 0.222389
H6    H     H_    0.674744 0.214974 0.829199 0.224059
H7    H     H_    0.036835 0.159415 0.447145 0.222389
H8    H     H_    0.174741 0.714977 0.829198 0.224059
H9    H     H_    0.188785 0.078250 0.619208 0.205265
H10   H     H_    0.364823 0.760714 0.745467 0.216170
H11   H     H_    0.688785 0.578250 0.619208 0.205264
H12   H     H_    0.287700 0.823365 0.279065 0.194858
H13   H     H_    0.864824 0.260713 0.745465 0.216170
H14   H     H_    0.150066 0.046185 0.446636 0.236849
H15   H     H_    0.279851 0.833987 0.827704 0.215317
H16   H     H_    0.650066 0.546185 0.446636 0.236849
H17   H     H_    0.779854 0.333985 0.827705 0.215317
H18   H     H_    0.363329 0.121524 0.856246 0.234711
H19   H     H_    0.282699 0.028410 0.869954 0.199793
H20   H     H_    0.863329 0.621525 0.856246 0.234710
H21   H     H_    0.782699 0.528411 0.869954 0.199793
H22   H     H_    0.912267 0.788450 0.544040 0.151563
H23   H     H_    0.787699 0.323366 0.279066 0.194858
H24   H     H_    0.795288 0.905016 0.547291 0.164856
H25   H     H_    0.675191 0.209297 0.279881 0.198930
H26   H     H_    0.295288 0.405016 0.547291 0.164856
H27   H     H_    0.175192 0.709296 0.279881 0.198930
H28   H     H_    0.574126 0.690896 0.620900 0.214174
I1    I     I_    0.387232 0.199348 0.119060 -0.278152
I2    I     I_    0.225543 0.025461 0.154212 -0.377999
I3    I     I_    0.887232 0.699348 0.119060 -0.278153
I4    I     I_    0.725543 0.525462 0.154212 -0.378000
I5    I     I_    0.706430 0.996716 0.180331 -0.264929
I6    I     I_    0.206430 0.496716 0.180331 -0.264930
I7    I     I_    0.705178 0.975958 0.834152 -0.313527
I8    I     I_    0.205178 0.475958 0.834152 -0.313526
N1    N     N_R   0.499140 1.000000 0.142800 -0.139929
N2    N     N_R   0.999140 0.500000 0.142800 -0.139929
N3    N     N_R   0.499160 0.000000 0.857150 -0.125928
N4    N     N_R   0.999160 0.500000 0.857150 -0.125928
O1    O     O_R   0.408400 0.908380 0.614690 -0.617326
O2    O     O_R   0.591610 0.908390 0.614650 -0.591412
O3    O     O_R   0.091610 0.591610 0.614650 -0.601268
O4    O     O_R   0.091610 0.408390 0.614650 -0.591412
O5    O     O_R   0.591590 0.091600 0.385310 -0.598460
O6    O     O_R   0.591590 0.908400 0.385310 -0.586164
O7    O     O_R   0.091590 0.591600 0.385310 -0.598460
O8    O     O_R   0.091590 0.408400 0.385310 -0.586164
O9    O     O_R   0.408400 0.091620 0.614690 -0.631006
O10   O     O_R   0.908400 0.408380 0.614690 -0.617325
O11   O     O_R   0.908400 0.591620 0.614690 -0.631006
O12   O     O_R   0.408370 0.908370 0.385350 -0.611834
O13   O     O_R   0.408370 0.091630 0.385350 -0.578649
O14   O     O_R   0.908370 0.408370 0.385350 -0.611834
O15   O     O_R   0.908370 0.591630 0.385350 -0.578649
O16   O     O_R   0.591610 0.091610 0.614650 -0.601268
Zn1   Zn    Zn3+2 0.500010 0.000000 0.653130 0.974930
Zn2   Zn    Zn3+2 0.000010 0.500000 0.653130 0.974930
Zn3   Zn    Zn3+2 0.499980 0.000000 0.346870 1.009930
Zn4   Zn    Zn3+2 0.999980 0.500000 0.346870 1.009930

loop_
_geom_bond_atom_site_label_1
_geom_bond_atom_site_label_2
_ccdc_geom_bond_type
C21   C26   A    
C3    I5    S    
O15   Zn4   S    
N2    Zn4   S    
C15   O2    A    
O14   Zn4   S    
C11   I1    S    
C13   I4    S    
O11   Zn2   S    
C34   O15   A    
C49   H10   S    
C7    C52   A    
C38   C42   A    
C18   C42   A    
C12   O13   A    
C20   C40   A    
C10   H21   S    
C6    N4    A    
C33   H26   S    
C23   O10   A    
C4    I6    S    
C20   C25   A    
O9    Zn1   S    
C12   C22   S    
C6    I8    S    
O16   Zn1   S    
C48   H4    S    
C51   H13   S    
C23   C26   S    
C45   H9    S    
C2    N2    A    
C2    C13   S    
C20   C50   S    
C11   C52   S    
C32   H25   S    
C28   C35   A    
C41   C46   S    
C8    N4    A    
C43   C48   S    
C25   C34   S    
C17   C38   S    
C14   O16   A    
O13   Zn3   S    
C46   H6    S    
C50   H11   S    
C52   N1    A    
C19   C43   A    
C48   H8    S    
C4    N2    A    
C45   C47   S    
C11   I2    S    
C25   C29   A    
C24   C28   A    
C44   H28   S    
C9    H18   S    
C4    C6    A    
C39   C43   A    
C29   H22   S    
C23   O14   A    
O4    Zn2   S    
C46   C51   S    
O3    Zn2   S    
C27   C33   A    
C35   C39   A    
C19   C49   S    
C36   C40   A    
C44   H5    S    
C7    N3    A    
C46   H2    S    
C17   O4    A    
C32   C37   A    
C9    C11   S    
C1    O12   A    
C5    N3    A    
C21   C41   A    
C28   H12   S    
C8    C10   S    
C48   C49   S    
O8    Zn4   S    
C22   C27   A    
O10   Zn2   S    
C15   O6    A    
C18   C45   S    
C15   C36   S    
C21   C51   S    
C14   O5    A    
C47   H3    S    
C44   C50   S    
C7    C9    S    
N1    Zn3   S    
C16   O3    A    
O6    Zn3   S    
C49   H15   S    
C18   C22   A    
C2    C8    A    
C9    H19   S    
C3    C5    A    
C10   C13   S    
O12   Zn3   S    
C27   H1    S    
C16   O7    A    
C26   C30   A    
C13   I3    S    
O2    Zn1   S    
C34   O11   A    
C3    N1    A    
N3    Zn1   S    
C19   C24   A    
C12   O9    A    
C29   C31   A    
C14   C37   S    
C30   C32   A    
C30   H23   S    
N4    Zn2   S    
C31   H24   S    
O5    Zn3   S    
O7    Zn4   S    
C35   H27   S    
C42   C47   S    
C37   C41   A    
C17   O8    A    
C16   C39   S    
C47   H7    S    
C5    I7    S    
C40   C44   S    
C1    C24   S    
C1    O1    A    
C45   H14   S    
C31   C36   A    
C33   C38   A    
C51   H17   S    
C50   H16   S    
O1    Zn1   S    
C10   H20   S    
