data_mof_unit_9413.cif
_audit_creation_date              2012-12-10T18:35:02-0500
_audit_creation_method            fapswitch 2.2
_symmetry_space_group_name_H-M    P1
_symmetry_Int_Tables_number       1
_space_group_crystal_system       triclinic
_cell_length_a                    15.226042
_cell_length_b                    13.936067
_cell_length_c                    10.839698
_cell_angle_alpha                 90.010507
_cell_angle_beta                  92.801511
_cell_angle_gamma                 89.992583
_cell_volume                      2297.33888336

loop_
_atom_site_label
_atom_site_type_symbol
_atom_type_description
_atom_site_fract_x
_atom_site_fract_y
_atom_site_fract_z
_atom_type_partial_charge
C1    C     C_R   0.330155 0.499976 0.503660 0.822399
C2    C     C_R   0.669845 0.499966 0.496323 0.822256
C3    C     C_R   0.233764 0.499561 0.507660 -0.170697
C4    C     C_R   0.766231 0.499539 0.492192 -0.170828
C5    C     C_R   0.189113 0.413768 0.530203 -0.175234
C6    C     C_R   0.810905 0.413651 0.470134 -0.175341
C7    C     C_R   0.097573 0.411783 0.528861 -0.140551
C8    C     C_R   0.902441 0.411675 0.471320 -0.140690
C9    C     C_R   0.048685 0.495048 0.499964 0.056359
C10   C     C_R   0.951311 0.495061 0.499583 0.056348
C11   C     C_R   0.578135 0.107436 0.497608 0.275341
C12   C     C_R   0.421909 0.107435 0.502367 0.275290
C13   C     C_R   0.575835 0.206031 0.529652 0.397448
C14   C     C_R   0.424182 0.206020 0.470347 0.397560
C15   C     C_R   0.500028 0.053509 0.499981 -0.184580
C16   C     C_R   0.449721 0.892274 0.411433 -0.315321
C17   C     C_R   0.550323 0.892285 0.588515 -0.314916
C18   C     C_R   0.448567 0.789652 0.413029 0.528182
C19   C     C_R   0.551449 0.789673 0.586944 0.527774
C20   C     C_R   0.500039 0.944410 0.499958 0.217107
C21   C     C_R   0.506501 0.500680 0.262808 0.803848
C22   C     C_R   0.493533 0.500703 0.737205 0.803893
C23   C     C_R   0.541115 0.680267 0.117388 -0.121684
C24   C     C_R   0.459692 0.680500 0.882835 -0.120570
C25   C     C_R   0.523123 0.766976 0.057400 -0.154537
C26   C     C_R   0.478099 0.767105 0.942888 -0.153333
C27   C     C_R   0.486447 0.591929 0.937171 0.083176
C28   C     C_R   0.514012 0.591851 0.062939 0.083363
C29   C     C_R   0.512378 0.503508 0.128567 -0.140781
C30   C     C_R   0.487722 0.503576 0.871461 -0.140752
C31   C     C_R   0.504045 0.416921 0.063662 -0.169039
C32   C     C_R   0.495747 0.416946 0.936297 -0.169163
C33   C     C_R   0.093998 0.580489 0.476873 -0.258345
C34   C     C_R   0.905981 0.580601 0.522179 -0.258057
C35   C     C_R   0.185041 0.584696 0.491052 0.439590
C36   C     C_R   0.814928 0.584745 0.508181 0.439065
Cu1   Cu    Cu3+1 0.500000 0.596430 0.500000 1.043221
Cu2   Cu    Cu3+1 0.500000 0.403570 0.500000 1.076246
H1    H     H_    0.504531 0.348550 0.111241 0.206652
H2    H     H_    0.494993 0.348579 0.888664 0.206531
H3    H     H_    0.412699 0.932906 0.341827 0.187807
H4    H     H_    0.587289 0.932897 0.658203 0.187892
H5    H     H_    0.578203 0.683890 0.204700 0.151041
H6    H     H_    0.422540 0.684349 0.795589 0.151208
H7    H     H_    0.541963 0.834100 0.101485 0.165295
H8    H     H_    0.459543 0.834336 0.898877 0.165164
H9    H     H_    0.059982 0.646410 0.452864 0.147693
H10   H     H_    0.939983 0.646614 0.545748 0.147707
H11   H     H_    0.225058 0.348904 0.553662 0.229247
H12   H     H_    0.774980 0.348674 0.447220 0.229548
H13   H     H_    0.065746 0.345301 0.552233 0.165544
H14   H     H_    0.934280 0.345089 0.448362 0.165651
N1    N     N_R   0.500000 0.258690 0.500000 -0.324714
N2    N     N_R   0.500000 0.741330 0.500000 -0.245457
O1    O     O_R   0.371460 0.581430 0.500010 -0.522805
O2    O     O_R   0.628540 0.581430 0.499990 -0.523054
O3    O     O_R   0.371470 0.418560 0.500010 -0.539500
O4    O     O_R   0.628530 0.418560 0.499990 -0.539560
O5    O     O_R   0.500000 0.581450 0.319650 -0.561225
O6    O     O_R   0.500000 0.581450 0.680350 -0.561275
O7    O     O_R   0.500010 0.418580 0.319650 -0.531060
O8    O     O_R   0.499990 0.418580 0.680350 -0.531051
O9    O     O_3   0.399533 0.733665 0.328092 -0.530828
C37   C     C_3   0.333865 0.783739 0.258077 0.095660
H15   H     H_    0.364124 0.833692 0.192345 0.143365
H16   H     H_    0.289466 0.822968 0.319319 0.196622
C38   C     C_3   0.279083 0.711797 0.182008 -0.723914
H17   H     H_    0.247950 0.659586 0.243705 0.263815
H18   H     H_    0.226817 0.749921 0.126335 0.197454
H19   H     H_    0.321500 0.672273 0.118698 0.242368
O10   O     O_3   0.600273 0.733755 0.672165 -0.531594
C39   C     C_3   0.666779 0.783589 0.740873 0.095955
H20   H     H_    0.637372 0.834023 0.806841 0.143504
H21   H     H_    0.710899 0.822249 0.678697 0.197001
C40   C     C_3   0.721686 0.711522 0.816548 -0.723580
H22   H     H_    0.751826 0.658679 0.754676 0.263882
H23   H     H_    0.774718 0.749428 0.870999 0.197502
H24   H     H_    0.679585 0.672746 0.880974 0.242149
O11   O     O_3   0.224821 0.673488 0.499486 -0.562674
C41   C     C_3   0.225240 0.701428 0.625022 0.007294
H25   H     H_    0.261339 0.648485 0.685772 0.126729
H26   H     H_    0.156892 0.709626 0.656054 0.145897
C42   C     C_3   0.270890 0.797103 0.640970 -0.622919
H27   H     H_    0.236093 0.851114 0.581594 0.275265
H28   H     H_    0.269821 0.820207 0.738952 0.205149
H29   H     H_    0.340201 0.790989 0.615073 0.241399
O12   O     O_3   0.775090 0.673510 0.499574 -0.563296
C43   C     C_3   0.774376 0.701155 0.373931 0.007534
H30   H     H_    0.737999 0.648164 0.313577 0.126753
H31   H     H_    0.842634 0.709073 0.342459 0.145950
C44   C     C_3   0.728900 0.796943 0.357943 -0.624082
H32   H     H_    0.764085 0.851032 0.416773 0.274969
H33   H     H_    0.729573 0.819740 0.259819 0.204988
H34   H     H_    0.659717 0.791154 0.384513 0.241562
S1    S     S_3+6 0.675121 0.057378 0.441999 0.027025
O13   O     O_2   0.650655 0.985853 0.342671 -0.323300
O14   O     O_2   0.729870 0.134867 0.387310 -0.264850
O15   O     O_3   0.732879 0.003424 0.558617 -0.531398
H35   H     H_    0.794669 0.003981 0.534026 0.374694
S2    S     S_3+6 0.324925 0.057397 0.557936 0.027050
O16   O     O_2   0.349382 0.985737 0.657076 -0.323196
O17   O     O_2   0.270250 0.134873 0.612863 -0.264920
O18   O     O_3   0.267095 0.003649 0.441208 -0.531392
H36   H     H_    0.205257 0.004623 0.465578 0.374896
S3    S     S_3+6 0.654695 0.236275 0.651931 0.062354
O19   O     O_2   0.644438 0.163021 0.752036 -0.285432
O20   O     O_2   0.746095 0.226658 0.607502 -0.254603
O21   O     O_3   0.646597 0.344585 0.717173 -0.515190
H37   H     H_    0.692854 0.345801 0.784666 0.359956
S4    S     S_3+6 0.345180 0.236320 0.348280 0.062465
O22   O     O_2   0.355004 0.162822 0.248316 -0.285178
O23   O     O_2   0.253855 0.227166 0.393103 -0.254874
O24   O     O_3   0.353502 0.344460 0.282709 -0.515251
H38   H     H_    0.307082 0.345763 0.215439 0.359940

loop_
_geom_bond_atom_site_label_1
_geom_bond_atom_site_label_2
_ccdc_geom_bond_type
O12   C43   S    
C4    C36   A    
C39   H21   S    
C19   O10   S    
S1    O13   D    
C24   C27   A    
S1    O15   S    
S3    O20   D    
C28   C29   A    
C24   C26   A    
C21   O5    A    
C41   C42   S    
C22   O6    A    
C18   O9    S    
C22   O8    A    
C17   C20   A    
C23   H5    S    
O21   H37   S    
C14   S4    S    
S4    O22   D    
O18   H36   S    
C33   C35   A    
Cu2   O4    S    
Cu1   O2    S    
C11   C15   A    
C42   H27   S    
C12   C15   A    
C9    C10   S    
C8    H14   S    
C21   O7    A    
Cu2   O7    S    
C32   H2    S    
C27   C30   A    
C9    C33   A    
C5    H11   S    
C39   C40   S    
C13   N1    A    
C36   O12   S    
C15   C20   S    
S3    O21   S    
C38   H17   S    
C37   C38   S    
C13   S3    S    
C44   H32   S    
C5    C7    A    
C18   N2    A    
C39   H20   S    
C6    C8    A    
C25   C26   A    
C21   C29   S    
S2    O18   S    
O11   C41   S    
C1    C3    S    
C37   H16   S    
C2    C4    S    
C40   H22   S    
Cu1   Cu2   S    
C1    O3    A    
C44   H33   S    
Cu2   O3    S    
C31   C32   A    
C43   C44   S    
C3    C35   A    
C16   C20   A    
C42   H29   S    
S2    O17   D    
C10   C34   A    
C16   C18   A    
C23   C28   A    
C6    H12   S    
C40   H23   S    
S4    O24   S    
Cu1   O5    S    
Cu1   N2    S    
C19   N2    A    
C41   H26   S    
C42   H28   S    
C43   H31   S    
C33   H9    S    
C4    C6    A    
C34   H10   S    
C25   H7    S    
C17   H4    S    
O24   H38   S    
C11   S1    S    
C7    C9    A    
C22   C30   S    
C12   C14   A    
C41   H25   S    
C3    C5    A    
S1    O14   D    
S3    O19   D    
C38   H19   S    
C37   H15   S    
C1    O1    A    
C7    H13   S    
O10   C39   S    
C29   C31   A    
C2    O2    A    
C44   H34   S    
C30   C32   A    
C11   C13   A    
Cu2   N1    S    
C24   H6    S    
C35   O11   S    
S2    O16   D    
C17   C19   A    
C31   H1    S    
C34   C36   A    
C23   C25   A    
C2    O4    A    
C40   H24   S    
S4    O23   D    
C12   S2    S    
Cu1   O6    S    
C26   H8    S    
O9    C37   S    
Cu1   O1    S    
C14   N1    A    
C43   H30   S    
C8    C10   A    
O15   H35   S    
C27   C28   A    
C38   H18   S    
C16   H3    S    
Cu2   O8    S    
