data_mof_unit_25011.cif
_audit_creation_date              2012-12-10T18:01:19-0500
_audit_creation_method            fapswitch 2.2
_symmetry_space_group_name_H-M    P1
_symmetry_Int_Tables_number       1
_space_group_crystal_system       triclinic
_cell_length_a                    9.510525
_cell_length_b                    10.828842
_cell_length_c                    17.215879
_cell_angle_alpha                 90.15557
_cell_angle_beta                  86.697954
_cell_angle_gamma                 89.989045
_cell_volume                      1770.07818986

loop_
_atom_site_label
_atom_site_type_symbol
_atom_type_description
_atom_site_fract_x
_atom_site_fract_y
_atom_site_fract_z
_atom_type_partial_charge
C1    C     C_R   0.500022 0.737947 0.500069 0.790730
C2    C     C_R   0.499975 0.262053 0.499956 0.789367
C3    C     C_R   0.627758 0.936131 0.500348 -0.187243
C4    C     C_R   0.372233 0.063872 0.499741 -0.186834
C5    C     C_R   0.627757 0.063857 0.500276 -0.189007
C6    C     C_R   0.372233 0.936146 0.499815 -0.188621
C7    C     C_R   0.499994 0.128219 0.499980 -0.018240
C8    C     C_R   0.499998 0.871783 0.500092 -0.018671
C9    C     C_R   0.920277 0.573150 0.550609 -0.030606
C10   C     C_R   0.079727 0.426873 0.449376 -0.031928
C11   C     C_R   0.069169 0.573143 0.550576 -0.025421
C12   C     C_R   0.930833 0.426873 0.449413 -0.028116
C13   C     C_R   0.482713 0.495974 0.650117 0.787774
C14   C     C_R   0.517312 0.502962 0.349720 0.790060
C15   C     C_R   0.477154 0.479076 0.734398 -0.025069
C16   C     C_R   0.523182 0.514847 0.264870 -0.030528
C17   C     C_R   0.593949 0.427379 0.768754 -0.193955
C18   C     C_R   0.652068 0.508496 0.220944 -0.196044
C19   C     C_R   0.591601 0.410243 0.848628 -0.203702
C20   C     C_R   0.655060 0.520880 0.140280 -0.192847
C21   C     C_R   0.473493 0.446319 0.895016 0.166546
C22   C     C_R   0.529490 0.540006 0.103447 0.157990
C23   C     C_R   0.355417 0.495826 0.861283 -0.171959
C24   C     C_R   0.401580 0.549571 0.147093 -0.173184
C25   C     C_R   0.356669 0.511212 0.780870 -0.199243
C26   C     C_R   0.398191 0.536490 0.227279 -0.198380
C27   C     C_2   0.479795 0.442069 0.979665 0.010507
C28   C     C_2   0.529457 0.541344 0.018428 0.008752
Cu1   Cu    Cu3+1 0.359340 0.499980 0.500000 0.939744
Cu2   Cu    Cu3+1 0.640660 0.500020 0.500000 0.938466
H1    H     H_    0.687276 0.400064 0.733869 0.153117
H2    H     H_    0.749788 0.492679 0.248701 0.146631
H3    H     H_    0.297476 0.543396 0.259715 0.152626
H4    H     H_    0.265426 0.550565 0.755309 0.140171
H5    H     H_    0.264045 0.524444 0.897341 0.115559
H6    H     H_    0.304354 0.565112 0.118772 0.120804
H7    H     H_    0.754273 0.512872 0.106450 0.123663
H8    H     H_    0.683315 0.372553 0.874658 0.128500
H9    H     H_    0.727641 0.888074 0.500601 0.148633
H10   H     H_    0.272350 0.111929 0.499487 0.148738
H11   H     H_    0.727636 0.111901 0.500459 0.148395
H12   H     H_    0.272354 0.888103 0.499634 0.148428
H13   H     H_    0.859885 0.631853 0.591052 0.117734
H14   H     H_    0.140123 0.368201 0.408914 0.116679
H15   H     H_    0.121118 0.631879 0.590995 0.114943
H16   H     H_    0.878886 0.368152 0.408986 0.116182
N1    N     N_R   0.147930 0.499970 0.499980 -0.155582
N2    N     N_R   0.852070 0.500030 0.500020 -0.156080
O1    O     O_R   0.381260 0.680340 0.500000 -0.588477
O2    O     O_R   0.618740 0.319660 0.500000 -0.589190
O3    O     O_R   0.618830 0.680370 0.500010 -0.586605
O4    O     O_R   0.381170 0.319630 0.499990 -0.586607
O5    O     O_R   0.367440 0.500000 0.613600 -0.583801
O6    O     O_R   0.632560 0.500000 0.386400 -0.585712
O7    O     O_R   0.605010 0.500030 0.613600 -0.588468
O8    O     O_R   0.394990 0.499970 0.386400 -0.588508
C29   C     C_3   0.580616 0.659206 0.978143 -0.399428
C30   C     C_3   0.466024 0.758944 0.983944 -0.334203
C31   C     C_3   0.514902 0.876684 0.942045 -0.855080
H17   H     H_    0.609653 0.914612 0.968468 0.251209
H18   H     H_    0.540109 0.857440 0.879368 0.256311
H19   H     H_    0.429833 0.946955 0.947117 0.238153
H20   H     H_    0.369583 0.724466 0.957516 0.215633
H21   H     H_    0.438922 0.781306 0.046076 0.220115
H22   H     H_    0.675640 0.693208 0.006281 0.189248
H23   H     H_    0.613955 0.643035 0.916122 0.209758
C32   C     C_3   0.438277 0.320732 0.019045 -0.396564
C33   C     C_3   0.278612 0.300488 0.020174 -0.344451
C34   C     C_3   0.235689 0.183284 0.064458 -0.854693
H24   H     H_    0.288887 0.101552 0.036956 0.252809
H25   H     H_    0.264146 0.190507 0.125993 0.255040
H26   H     H_    0.119993 0.170315 0.063476 0.237876
H27   H     H_    0.223019 0.380470 0.048444 0.210692
H28   H     H_    0.244862 0.292261 0.959634 0.220715
H29   H     H_    0.492557 0.243859 0.986529 0.191904
H30   H     H_    0.473382 0.315621 0.079322 0.212846

loop_
_geom_bond_atom_site_label_1
_geom_bond_atom_site_label_2
_ccdc_geom_bond_type
C14   O8    A    
Cu2   O3    S    
C1    C8    S    
C11   N1    A    
C2    C7    S    
C29   H23   S    
C12   N2    A    
Cu1   O1    S    
C28   C29   S    
Cu2   O6    S    
C24   H6    S    
Cu1   N1    S    
Cu2   N2    S    
C19   C21   A    
C24   C26   A    
C15   C25   A    
C33   H28   S    
C34   H25   S    
C2    O2    A    
C4    H10   S    
C33   C34   S    
C18   C20   A    
C25   H4    S    
Cu2   O2    S    
C3    H9    S    
C31   H17   S    
C22   C28   S    
C30   H21   S    
C4    C7    A    
C10   C12   A    
C13   O5    A    
C16   C26   A    
C9    H13   S    
C31   H18   S    
C10   H14   S    
C32   C33   S    
C4    C6    A    
C3    C8    A    
C5    C7    A    
C6    C8    A    
C33   H27   S    
C34   H26   S    
Cu1   Cu2   S    
C19   H8    S    
C9    C11   A    
C26   H3    S    
C1    O3    A    
C2    O4    A    
C12   H16   S    
C14   O6    A    
C20   C22   A    
C23   H5    S    
C13   C15   S    
C17   H1    S    
C22   C24   A    
C11   H15   S    
C18   H2    S    
C10   N1    A    
C30   H20   S    
C15   C17   A    
C5    H11   S    
C31   H19   S    
C29   H22   S    
C3    C5    A    
Cu1   O8    S    
Cu2   O7    S    
C21   C23   A    
C30   C31   S    
C20   H7    S    
C29   C30   S    
Cu1   O5    S    
C17   C19   A    
C14   C16   S    
C23   C25   A    
C21   C27   S    
C34   H24   S    
C27   C32   S    
C32   H29   S    
C9    N2    A    
C16   C18   A    
C6    H12   S    
C27   C28   D    
C32   H30   S    
C1    O1    A    
C13   O7    A    
Cu1   O4    S    
