data_mof_unit_43477.cif
_audit_creation_date              2012-10-26T20:34:03-0400
_audit_creation_method            fapswitch 2.2
_symmetry_space_group_name_H-M    P1
_symmetry_Int_Tables_number       1
_space_group_crystal_system       triclinic
_cell_length_a                    15.914355
_cell_length_b                    9.089414
_cell_length_c                    7.785827
_cell_angle_alpha                 89.996321
_cell_angle_beta                  90.020681
_cell_angle_gamma                 90.007815
_cell_volume                      1126.23661564

loop_
_atom_site_label
_atom_site_type_symbol
_atom_type_description
_atom_site_fract_x
_atom_site_fract_y
_atom_site_fract_z
_atom_type_partial_charge
C1    C     C_R   0.499994 0.220027 0.500003 0.549839
C2    C     C_3   0.047627 0.475577 0.323366 -0.223093
C3    C     C_3   0.952424 0.421590 0.649483 -0.231812
C4    C     C_3   0.951126 0.457862 0.332676 -0.244567
C5    C     C_1   0.749611 0.505263 0.500494 0.042905
C6    C     C_1   0.250400 0.505243 0.499960 0.039406
C7    C     C_3   0.082963 0.522518 0.501454 -0.011957
C8    C     C_3   0.917075 0.522123 0.504746 -0.012864
C9    C     C_3   0.949017 0.687527 0.529865 0.045783
C10   C     C_3   0.051078 0.684001 0.550291 0.050112
C11   C     C_2   0.082293 0.717195 0.735217 0.579899
C12   C     C_1   0.824896 0.511887 0.502050 0.003553
C13   C     C_2   0.091853 0.804083 0.438000 0.641159
C14   C     C_2   0.908801 0.763730 0.686702 0.624697
C15   C     C_2   0.918074 0.777093 0.372056 0.575217
C16   C     C_1   0.175119 0.512029 0.500231 0.008329
C17   C     C_R   0.339802 0.500116 0.499973 0.549235
C18   C     C_R   0.660200 0.500170 0.500056 0.553971
C19   C     C_1   0.499986 0.934621 0.499996 -0.021537
C20   C     C_1   0.499987 0.065379 0.500005 -0.026563
C21   C     C_R   0.499990 0.779978 0.499997 0.561878
C22   C     C_3   0.048802 0.407398 0.632467 -0.245718
Cu1   Cu    Cu3+1 0.500000 0.500010 0.669080 1.067040
Cu2   Cu    Cu3+1 0.500000 0.500010 0.330920 1.063507
H1    H     H_    0.923984 0.309844 0.641058 0.155060
H2    H     H_    0.170288 0.859664 0.244600 0.344439
H3    H     H_    0.898516 0.951013 0.824951 0.337856
H4    H     H_    0.932420 0.831392 0.121901 0.369264
H5    H     H_    0.935263 0.338664 0.324669 0.151120
H6    H     H_    0.064245 0.294332 0.587055 0.172887
H7    H     H_    0.075762 0.368872 0.282951 0.137484
H8    H     H_    0.064318 0.555870 0.221933 0.240792
H9    H     H_    0.079348 0.417113 0.760239 0.168894
H10   H     H_    0.920777 0.508901 0.218866 0.188173
H11   H     H_    0.936211 0.464339 0.778650 0.201918
H12   H     H_    0.168018 0.817341 0.887382 0.350969
N1    N     N_1   0.500000 0.499970 0.076820 -0.071074
N2    N     N_1   0.500000 0.499970 0.923180 -0.070868
O1    O     O_R   0.500000 0.288400 0.642760 -0.498154
O2    O     O_R   0.153452 0.805333 0.761362 -0.659862
O3    O     O_2   0.074484 0.933369 0.464579 -0.462242
O4    O     O_R   0.148848 0.769410 0.307307 -0.695370
O5    O     O_2   0.859507 0.699433 0.781027 -0.514517
O6    O     O_R   0.928660 0.911037 0.720208 -0.642412
O7    O     O_2   0.854512 0.852739 0.381947 -0.481387
O8    O     O_R   0.959851 0.769023 0.214131 -0.676328
O9    O     O_R   0.500000 0.288400 0.357240 -0.498275
O10   O     O_R   0.379440 0.500020 0.642850 -0.497970
O11   O     O_R   0.379440 0.500020 0.357150 -0.496105
O12   O     O_R   0.620560 0.500020 0.642850 -0.488867
O13   O     O_R   0.620560 0.500020 0.357150 -0.496043
O14   O     O_R   0.500000 0.711620 0.642810 -0.491735
O15   O     O_R   0.500000 0.711620 0.357190 -0.492868
O16   O     O_2   0.047257 0.663819 0.860439 -0.523198

loop_
_geom_bond_atom_site_label_1
_geom_bond_atom_site_label_2
_ccdc_geom_bond_type
C8    C9    S    
C7    C10   S    
C2    C4    S    
C9    C14   S    
N1    N2    T    
Cu1   O10   S    
C8    C12   S    
Cu1   N2    S    
C9    C10   S    
C19   C20   T    
C4    H5    S    
C17   O10   A    
C3    H11   S    
C4    C8    S    
Cu2   O13   S    
C13   O3    D    
Cu2   N1    S    
C9    C15   S    
C3    C22   S    
C21   O15   A    
H4    O8    S    
Cu1   O14   S    
C11   O16   D    
Cu1   O1    S    
C18   O12   A    
C2    H8    S    
C13   O4    S    
C19   C21   S    
C18   O13   A    
C2    H7    S    
C11   O2    S    
C4    H10   S    
C10   C11   S    
C15   O7    D    
Cu1   Cu2   S    
C6    C16   T    
C7    C22   S    
C3    H1    S    
H12   O2    S    
H2    O4    S    
C5    C12   T    
C14   O6    S    
C3    C8    S    
C17   O11   A    
Cu2   O11   S    
C6    C17   S    
C22   H9    S    
C1    O1    A    
C7    C16   S    
C1    C20   S    
C5    C18   S    
C22   H6    S    
C15   O8    S    
Cu2   O15   S    
Cu2   O9    S    
H3    O6    S    
C21   O14   A    
C1    O9    A    
C2    C7    S    
C14   O5    D    
Cu1   O12   S    
C10   C13   S    
