data_mof_unit_48252.cif
_audit_creation_date              2012-12-10T19:47:20-0500
_audit_creation_method            fapswitch 2.2
_symmetry_space_group_name_H-M    P1
_symmetry_Int_Tables_number       1
_space_group_crystal_system       triclinic
_cell_length_a                    14.932875
_cell_length_b                    14.093542
_cell_length_c                    10.644217
_cell_angle_alpha                 90.183016
_cell_angle_beta                  91.907109
_cell_angle_gamma                 90.513263
_cell_volume                      2238.80671756

loop_
_atom_site_label
_atom_site_type_symbol
_atom_type_description
_atom_site_fract_x
_atom_site_fract_y
_atom_site_fract_z
_atom_type_partial_charge
C1    C     C_R   0.326865 0.499426 0.503300 0.944793
C2    C     C_R   0.672115 0.500374 0.492793 0.941769
C3    C     C_R   0.229357 0.499543 0.497363 -0.167247
C4    C     C_R   0.766818 0.502930 0.471439 -0.160532
C5    C     C_R   0.176759 0.417497 0.519937 0.059712
C6    C     C_R   0.806387 0.441360 0.384664 0.044569
C7    C     C_R   0.083805 0.422168 0.500740 0.502763
C8    C     C_R   0.898063 0.450215 0.364436 0.536269
C9    C     C_R   0.045378 0.506347 0.453713 -0.018139
C10   C     C_R   0.949153 0.514511 0.439678 -0.035433
C11   C     C_R   0.435400 0.104055 0.428907 -0.235136
C12   C     C_R   0.565501 0.105539 0.569205 -0.244690
C13   C     C_R   0.436795 0.203716 0.429954 0.035867
C14   C     C_R   0.563835 0.205193 0.568883 0.019908
C15   C     C_R   0.500430 0.053523 0.499016 0.155242
C16   C     C_R   0.576038 0.895814 0.461839 0.367697
C17   C     C_R   0.424274 0.894992 0.536397 0.364714
C18   C     C_R   0.574452 0.796015 0.465234 -0.074874
C19   C     C_R   0.425605 0.795200 0.534064 -0.079189
C20   C     C_R   0.500270 0.947046 0.499070 -0.138647
C21   C     C_R   0.490515 0.500031 0.259161 0.917708
C22   C     C_R   0.512121 0.500716 0.740108 0.904935
C23   C     C_R   0.439999 0.671689 0.100847 0.191607
C24   C     C_R   0.552886 0.678351 0.897757 0.194646
C25   C     C_R   0.462765 0.758688 0.048004 -0.221182
C26   C     C_R   0.522817 0.762236 0.951289 -0.224676
C27   C     C_R   0.521436 0.589470 0.941798 0.030011
C28   C     C_R   0.479576 0.587086 0.057179 0.021853
C29   C     C_R   0.482603 0.500431 0.123999 -0.103460
C30   C     C_R   0.525412 0.502722 0.874824 -0.105395
C31   C     C_R   0.500683 0.415237 0.062523 -0.179693
C32   C     C_R   0.518483 0.416104 0.937227 -0.191647
C33   C     C_R   0.097173 0.587435 0.437087 -0.260420
C34   C     C_R   0.908161 0.579046 0.518281 -0.263667
C35   C     C_R   0.187909 0.584680 0.461760 -0.191304
C36   C     C_R   0.817332 0.573978 0.532587 -0.222500
H1    H     H_    0.501591 0.347766 0.111075 0.178172
H2    H     H_    0.525060 0.348852 0.888891 0.168901
H3    H     H_    0.633003 0.757199 0.438492 0.171786
H4    H     H_    0.366877 0.755820 0.560997 0.163628
H5    H     H_    0.434568 0.823679 0.082930 0.172878
H6    H     H_    0.544859 0.830259 0.916392 0.171700
H7    H     H_    0.066869 0.653379 0.406331 0.180905
H8    H     H_    0.947273 0.629437 0.574910 0.181674
H9    H     H_    0.225753 0.649628 0.449903 0.205711
H10   H     H_    0.787192 0.623447 0.595699 0.207890
H11   H     H_    0.384548 0.066672 0.372718 0.174801
H12   H     H_    0.616544 0.069311 0.624952 0.170844
H13   H     H_    0.387120 0.242250 0.374809 0.144495
H14   H     H_    0.613739 0.244865 0.623739 0.131781
N1    N     N_R   0.500000 0.252470 0.500000 -0.087194
N2    N     N_R   0.500000 0.747550 0.500000 -0.126583
O1    O     O_R   0.369060 0.579480 0.500010 -0.621752
O2    O     O_R   0.630940 0.579480 0.499990 -0.615601
O3    O     O_R   0.369050 0.420520 0.500010 -0.595418
O4    O     O_R   0.630950 0.420520 0.499990 -0.604274
O5    O     O_R   0.500000 0.579490 0.316770 -0.599677
O6    O     O_R   0.500000 0.579490 0.683230 -0.597202
O7    O     O_R   0.499990 0.420540 0.316770 -0.619031
O8    O     O_R   0.500010 0.420540 0.683230 -0.624397
Zn1   Zn    Zn3+2 0.500000 0.606140 0.500000 0.974313
Zn2   Zn    Zn3+2 0.500000 0.393860 0.500000 0.980386
O9    O     O_3   0.653713 0.941980 0.428113 -0.633025
C37   C     C_3   0.645308 0.972537 0.301710 0.107146
H15   H     H_    0.688239 0.036808 0.292790 0.194230
H16   H     H_    0.575921 0.994219 0.272871 0.121700
C38   C     C_3   0.678199 0.895848 0.212317 -0.374977
H17   H     H_    0.745527 0.871397 0.245175 0.246297
H18   H     H_    0.631295 0.834183 0.211882 0.220104
C39   C     C_3   0.684026 0.933510 0.078577 -0.916681
H19   H     H_    0.617635 0.959552 0.044327 0.250764
H20   H     H_    0.705544 0.875794 0.015379 0.286214
H21   H     H_    0.733735 0.992490 0.075438 0.272648
O10   O     O_3   0.346557 0.940329 0.568835 -0.631335
C40   C     C_3   0.354310 0.972271 0.694998 0.112644
H22   H     H_    0.313910 0.037798 0.701907 0.195739
H23   H     H_    0.424131 0.992307 0.726044 0.119469
C41   C     C_3   0.316724 0.897565 0.783719 -0.375105
H24   H     H_    0.248668 0.875178 0.749269 0.245432
H25   H     H_    0.360667 0.834345 0.785419 0.220517
C42   C     C_3   0.310991 0.936539 0.917070 -0.924226
H26   H     H_    0.378284 0.959929 0.953226 0.250905
H27   H     H_    0.285295 0.880350 0.979653 0.283204
H28   H     H_    0.264546 0.997626 0.918608 0.272532
I1    I     I_    0.325895 0.672388 0.213232 -0.425675
I2    I     I_    0.664377 0.693008 0.781590 -0.441778
I3    I     I_    0.229558 0.286731 0.591058 -0.355010
I4    I     I_    0.731599 0.337034 0.278200 -0.367912
O11   O     O_3   0.030988 0.342809 0.521321 -0.591350
C43   C     C_3   0.994290 0.348943 0.641872 0.064161
H29   H     H_    0.965507 0.420063 0.660456 0.138039
H30   H     H_    0.046954 0.334404 0.715519 0.160400
C44   C     C_3   0.919464 0.274813 0.650727 -0.269711
H31   H     H_    0.869111 0.285737 0.572930 0.245096
H32   H     H_    0.948041 0.202741 0.640620 0.242115
C45   C     C_3   0.872765 0.281379 0.775744 -0.970593
H33   H     H_    0.921841 0.272055 0.855381 0.275576
H34   H     H_    0.820758 0.224802 0.780287 0.270695
H35   H     H_    0.839667 0.351234 0.784438 0.272301
O12   O     O_3   0.938094 0.388652 0.281708 -0.595436
C46   C     C_3   0.971565 0.439255 0.178013 0.091056
H36   H     H_    0.026336 0.396590 0.138860 0.182417
H37   H     H_    0.001814 0.509413 0.204157 0.131386
C47   C     C_3   0.898366 0.452065 0.075123 -0.356621
H38   H     H_    0.869964 0.381617 0.047435 0.256058
H39   H     H_    0.843692 0.496241 0.111740 0.231234
C48   C     C_3   0.935379 0.500324 0.959340 -0.945567
H40   H     H_    0.963961 0.571118 0.984754 0.275854
H41   H     H_    0.880587 0.510052 0.887549 0.275759
H42   H     H_    0.988219 0.456064 0.918144 0.258339

loop_
_geom_bond_atom_site_label_1
_geom_bond_atom_site_label_2
_ccdc_geom_bond_type
C4    C36   A    
C44   H31   S    
C11   H11   S    
C24   C27   A    
C12   H12   S    
C47   H39   S    
C42   H26   S    
C18   N2    A    
C46   H36   S    
C28   C29   A    
C24   C26   A    
C21   O7    A    
N2    Zn1   S    
C22   O8    A    
C41   H25   S    
C7    O11   S    
C45   H35   S    
C17   C20   A    
C6    I4    S    
O8    Zn2   S    
C18   H3    S    
C1    O1    A    
C33   C35   A    
C13   N1    A    
O1    Zn1   S    
C19   N2    A    
C31   C32   A    
C45   H34   S    
C48   H40   S    
C36   H10   S    
C39   H19   S    
C16   O9    S    
C32   H2    S    
C9    C10   S    
O6    Zn1   S    
C44   H32   S    
C27   C30   A    
C9    C33   A    
C48   H41   S    
N1    Zn2   S    
C11   C15   A    
C47   H38   S    
C42   H27   S    
C15   C20   S    
O10   C40   S    
C38   H17   S    
C33   H7    S    
C37   C38   S    
C34   H8    S    
C4    C6    A    
C2    O2    A    
C25   H5    S    
C5    C7    A    
C41   H24   S    
C6    C8    A    
C25   C26   A    
C21   C29   S    
C31   H1    S    
C38   H18   S    
C37   H16   S    
C2    C4    S    
C40   H22   S    
C21   O5    A    
C43   H30   S    
C14   N1    A    
C12   C15   A    
C3    C35   A    
C16   C20   A    
C45   H33   S    
C39   H21   S    
C10   C34   A    
C23   C28   A    
C40   H23   S    
C13   H13   S    
C16   C18   A    
C12   C14   A    
C46   C47   S    
C17   O10   S    
C48   H42   S    
O4    Zn2   S    
C35   H9    S    
C42   H28   S    
C26   H6    S    
C43   C44   S    
C46   H37   S    
C7    C9    A    
O7    Zn2   S    
C22   C30   S    
C3    C5    A    
C22   O6    A    
O5    Zn1   S    
O2    Zn1   S    
C44   C45   S    
C38   C39   S    
C37   H15   S    
C1    O3    A    
C29   C31   A    
C2    O4    A    
C30   C32   A    
C11   C13   A    
C41   C42   S    
C43   H29   S    
C14   H14   S    
O12   C46   S    
C17   C19   A    
C34   C36   A    
C23   C25   A    
C8    O12   S    
C40   C41   S    
C19   H4    S    
O9    C37   S    
C5    I3    S    
O3    Zn2   S    
C8    C10   A    
C23   I1    S    
C27   C28   A    
C39   H20   S    
C1    C3    S    
O11   C43   S    
C24   I2    S    
C47   C48   S    
