data_mof_unit_5695.cif
_audit_creation_date              2012-12-11T15:46:41-0500
_audit_creation_method            fapswitch 2.2
_symmetry_space_group_name_H-M    P1
_symmetry_Int_Tables_number       1
_space_group_crystal_system       triclinic
_cell_length_a                    11.551426
_cell_length_b                    11.556553
_cell_length_c                    19.55005
_cell_angle_alpha                 90.562402
_cell_angle_beta                  90.211726
_cell_angle_gamma                 59.913339
_cell_volume                      2258.08949307

loop_
_atom_site_label
_atom_site_type_symbol
_atom_type_description
_atom_site_fract_x
_atom_site_fract_y
_atom_site_fract_z
_atom_type_partial_charge
C1    C     C_R   0.640572 0.117272 0.599239 0.541175
C2    C     C_1   0.653230 0.149518 0.668623 0.007210
C3    C     C_R   0.653536 0.684103 0.189234 0.007655
C4    C     C_R   0.612598 0.746023 0.598632 0.538663
C5    C     C_R   0.533332 0.720142 0.223206 0.007071
C6    C     C_R   0.528732 0.726014 0.292982 0.023919
C7    C     C_R   0.757020 0.676585 0.298249 -0.106104
C8    C     C_R   0.760086 0.678254 0.226880 -0.143753
C9    C     C_3   0.440949 0.663414 0.221229 -0.231730
C10   C     C_3   0.439148 0.668265 0.298342 -0.254404
C11   C     C_R   0.641362 0.697051 0.331808 0.012679
C12   C     C_1   0.641572 0.703957 0.668007 0.006425
C13   C     C_R   0.166667 0.185979 0.185946 -0.029940
C14   C     C_R   0.201254 0.268779 0.222200 0.066190
C15   C     C_R   0.225549 0.251746 0.291121 -0.028783
C16   C     C_R   0.241249 0.145246 0.598209 0.547772
C17   C     C_R   0.211384 0.051500 0.288280 -0.122897
C18   C     C_R   0.187938 0.067898 0.217542 -0.129962
C19   C     C_3   0.131365 0.417554 0.229765 0.270354
C20   C     C_3   0.158905 0.398304 0.305655 -0.193968
C21   C     C_R   0.218304 0.151169 0.326695 -0.005882
C22   C     C_R   0.687823 0.195165 0.199016 -0.033163
C23   C     C_1   0.126522 0.198771 0.859288 0.006523
C24   C     C_R   0.799180 0.104087 0.236675 -0.025797
C25   C     C_R   0.792472 0.089221 0.305873 0.018986
C26   C     C_R   0.562530 0.268390 0.304852 -0.161178
C27   C     C_R   0.571203 0.284569 0.234502 -0.160482
C28   C     C_R   0.645390 0.113784 0.403228 0.571348
C29   C     C_3   0.891684 0.958215 0.224247 0.340470
C30   C     C_3   0.889975 0.942152 0.300634 0.739285
C31   C     C_R   0.670221 0.161903 0.339767 -0.014617
C32   C     C_R   0.081576 0.231226 0.928583 0.542463
C33   C     C_R   0.683845 0.604303 0.929502 0.542943
C34   C     C_1   0.171609 0.170363 0.727704 -0.029101
C35   C     C_R   0.708287 0.206698 0.930162 0.543736
C36   C     C_R   0.086865 0.234142 0.123961 0.538866
C37   C     C_R   0.681135 0.614882 0.124403 0.539822
C38   C     C_R   0.709958 0.212304 0.127842 0.549373
C39   C     C_R   0.616821 0.738380 0.402442 0.541390
C40   C     C_R   0.251083 0.137438 0.399134 0.556899
C41   C     C_1   0.670097 0.646399 0.860144 0.006533
C42   C     C_1   0.654947 0.683713 0.728453 -0.029478
C43   C     C_1   0.663300 0.666652 0.799716 -0.029354
C44   C     C_1   0.150078 0.182299 0.798937 -0.028719
C45   C     C_1   0.195507 0.160993 0.667388 0.005757
C46   C     C_1   0.678395 0.191376 0.860790 0.007003
C47   C     C_1   0.658683 0.167146 0.729023 -0.029197
C48   C     C_1   0.665582 0.180951 0.800331 -0.028895
Cr1   Cr    Cr6+3 0.404720 0.198220 0.499960 1.033045
Cr2   Cr    Cr6+3 0.698290 0.897110 0.500380 1.092579
Cr3   Cr    Cr6+3 0.396970 0.904720 0.499610 1.054978
Cr4   Cr    Cr6+3 0.926290 0.152010 0.028150 1.079340
Cr5   Cr    Cr6+3 0.921440 0.451830 0.027490 1.064715
Cr6   Cr    Cr6+3 0.626370 0.446880 0.028730 1.051778
F1    F     F_    0.200941 0.470831 0.198081 -0.616630
F2    F     F_    0.014940 0.930433 0.200027 -0.624753
F3    F     F_    0.837647 0.863036 0.318140 -0.653797
F4    F     F_    0.010572 0.906034 0.332437 -0.587719
H1    H     H_    0.066759 0.435073 0.337050 0.091199
H2    H     H_    0.342407 0.733735 0.198136 0.187655
H3    H     H_    0.339492 0.739207 0.320106 0.189515
H4    H     H_    0.489708 0.567589 0.322090 0.138756
H5    H     H_    0.217888 0.965396 0.313026 0.189911
H6    H     H_    0.024156 0.466545 0.216762 0.120907
H7    H     H_    0.467863 0.331348 0.330174 0.149379
H8    H     H_    0.176401 0.994301 0.188796 0.219943
H9    H     H_    0.844519 0.658105 0.327192 0.195522
H10   H     H_    0.230060 0.429838 0.324029 0.178704
H11   H     H_    0.485276 0.361244 0.207629 0.187078
H12   H     H_    0.845489 0.909654 0.194130 0.108830
H13   H     H_    0.849738 0.662378 0.201412 0.155490
H14   H     H_    0.487824 0.559246 0.201809 0.176324
O1    O     O_R   0.267750 0.231960 0.575440 -0.503269
O2    O     O_R   0.596230 0.579400 0.952760 -0.501895
O3    O     O_R   0.639160 0.321170 0.958690 -0.491868
O4    O     O_R   0.527290 0.186640 0.570530 -0.497926
O5    O     O_R   0.821370 0.124220 0.104400 -0.473103
O6    O     O_R   0.037020 0.167050 0.097880 -0.480878
O7    O     O_R   0.056310 0.349620 0.102920 -0.491653
O8    O     O_R   0.797790 0.564880 0.097980 -0.506752
O9    O     O_R   0.596000 0.584270 0.104310 -0.519859
O10   O     O_R   0.638950 0.325690 0.099180 -0.501464
O11   O     O_3   0.824700 0.350240 0.028120 -0.270888
O12   O     O_R   0.685950 0.784660 0.430010 -0.468859
O13   O     O_R   0.728110 0.003450 0.576380 -0.504151
O14   O     O_R   0.682980 0.789190 0.570500 -0.499184
O15   O     O_R   0.499300 0.771880 0.575540 -0.504523
O16   O     O_R   0.285350 0.030870 0.569740 -0.490157
O17   O     O_R   0.270960 0.227070 0.423890 -0.519064
O18   O     O_R   0.530270 0.182120 0.430040 -0.521505
O19   O     O_R   0.731320 0.998570 0.424830 -0.424162
O20   O     O_R   0.502510 0.767000 0.423980 -0.519816
O21   O     O_R   0.288320 0.026340 0.429250 -0.491313
O22   O     O_3   0.499990 0.000020 0.499980 -0.270149
O23   O     O_R   0.821590 0.119350 0.952850 -0.503470
O24   O     O_R   0.037230 0.162540 0.957390 -0.497146
O25   O     O_R   0.056530 0.344750 0.951370 -0.498861
O26   O     O_R   0.798000 0.560370 0.957490 -0.493937

loop_
_geom_bond_atom_site_label_1
_geom_bond_atom_site_label_2
_ccdc_geom_bond_type
C25   C31   A    
C19   C20   S    
C9    H14   S    
C40   O21   A    
C38   O5    A    
Cr2   O12   S    
C7    C8    A    
C4    O15   A    
C7    C11   A    
C35   O3    A    
C26   C27   A    
C13   C18   A    
Cr5   O7    S    
C39   O12   A    
C33   O26   A    
C5    C6    A    
Cr5   O26   S    
C4    O14   A    
C22   C38   S    
C30   F3    S    
C32   O25   A    
Cr4   O23   S    
C1    C2    S    
C24   C29   S    
C12   C42   T    
Cr2   O13   S    
Cr6   O2    S    
Cr1   O22   S    
C4    C12   S    
C9    C10   S    
Cr1   O18   S    
C27   H11   S    
C26   C31   A    
C13   C14   A    
C38   O10   A    
C41   C43   T    
C37   O9    A    
C10   H4    S    
Cr4   O6    S    
Cr6   O11   S    
C1    O13   A    
C15   C20   S    
C37   O8    A    
C46   C48   T    
C16   O1    A    
Cr5   O8    S    
C34   C44   S    
C24   C25   A    
C13   C36   S    
C3    C8    A    
Cr3   O15   S    
C6    C11   A    
Cr2   O22   S    
Cr5   O25   S    
C17   C21   A    
C23   C44   T    
Cr3   O16   S    
Cr4   O11   S    
C5    C9    S    
C29   C30   S    
Cr3   O20   S    
C33   O2    A    
C47   C48   S    
C19   H6    S    
C17   C18   A    
Cr1   O4    S    
C34   C45   T    
C20   H1    S    
C11   C39   S    
Cr3   O21   S    
C32   O24   A    
C22   C27   A    
C40   O17   A    
Cr1   O1    S    
C10   H3    S    
C42   C43   S    
Cr4   O5    S    
C39   O20   A    
Cr6   O10   S    
C29   H12   S    
C19   F1    S    
C25   C30   S    
C8    H13   S    
C26   H7    S    
C14   C19   S    
C20   H10   S    
C28   C31   S    
Cr1   O17   S    
C3    C5    A    
C36   O7    A    
C16   C45   S    
C6    C10   S    
C29   F2    S    
C35   O23   A    
C2    C47   T    
C18   H8    S    
Cr5   O11   S    
C9    H2    S    
C33   C41   S    
C23   C32   S    
C36   O6    A    
C17   H5    S    
C21   C40   S    
C30   F4    S    
C1    O4    A    
Cr4   O24   S    
C28   O19   A    
C22   C24   A    
Cr2   O14   S    
Cr3   O22   S    
C7    H9    S    
Cr6   O3    S    
Cr2   O19   S    
C15   C21   A    
C3    C37   S    
C16   O16   A    
C14   C15   A    
C28   O18   A    
C35   C46   S    
Cr6   O9    S    
