data_mof_unit_6732.cif
_audit_creation_date              2012-12-10T20:34:52-0500
_audit_creation_method            fapswitch 2.2
_symmetry_space_group_name_H-M    P1
_symmetry_Int_Tables_number       1
_space_group_crystal_system       triclinic
_cell_length_a                    10.627911
_cell_length_b                    10.614179
_cell_length_c                    9.86785
_cell_angle_alpha                 88.918576
_cell_angle_beta                  89.988711
_cell_angle_gamma                 90.541969
_cell_volume                      1112.90997085

loop_
_atom_site_label
_atom_site_type_symbol
_atom_type_description
_atom_site_fract_x
_atom_site_fract_y
_atom_site_fract_z
_atom_type_partial_charge
C1    C     C_R   0.511854 0.260219 0.501258 0.857241
C2    C     C_R   0.547401 0.932984 0.619925 0.082627
C3    C     C_3   0.470299 0.924393 0.745630 -0.472335
C4    C     C_R   0.257575 0.499404 0.500259 0.833021
C5    C     C_3   0.491897 0.065259 0.757747 0.292191
C6    C     C_R   0.392718 0.471526 0.071747 0.143315
C7    C     C_R   0.602207 0.540639 0.071056 -0.118397
C8    C     C_R   0.602048 0.540979 0.927101 -0.151233
C9    C     C_R   0.392085 0.474163 0.929319 0.149569
C10   C     C_3   0.315790 0.356562 0.923891 -0.607788
C11   C     C_3   0.318335 0.351195 0.077983 0.319076
C12   C     C_3   0.878511 0.499744 0.501074 0.195772
C13   C     C_R   0.505022 0.740528 0.498823 0.876339
C14   C     C_R   0.742273 0.500006 0.500238 0.818934
C15   C     C_3   0.070847 0.489890 0.648730 -0.392986
C16   C     C_3   0.928202 0.493778 0.648997 -0.405088
C17   C     C_3   0.073354 0.622922 0.433386 -0.405035
C18   C     C_3   0.070492 0.384877 0.422032 -0.412870
C19   C     C_3   0.121011 0.499431 0.501071 0.188393
C20   C     C_3   0.652162 0.187121 0.860080 0.132873
C21   C     C_3   0.721479 0.203809 0.994672 -0.314439
C22   C     C_3   0.837339 0.288943 0.979011 -1.022050
C23   C     C_3   0.928876 0.621790 0.430603 -0.399648
C24   C     C_3   0.322755 0.135600 0.126474 0.122670
C25   C     C_3   0.244283 0.115065 0.255613 -0.373474
C26   C     C_3   0.198956 0.978598 0.270554 -0.975587
C27   C     C_3   0.926186 0.383187 0.424882 -0.402867
C28   C     C_R   0.561208 0.060903 0.624016 0.003501
C29   C     C_R   0.547364 0.130168 0.502679 -0.166779
C30   C     C_R   0.563728 0.068873 0.378721 -0.187432
C31   C     C_R   0.555960 0.938508 0.376079 -0.240884
C32   C     C_R   0.533009 0.871947 0.497573 -0.097311
H1    H     H_    0.108231 0.568562 0.710616 0.176935
H2    H     H_    0.685640 0.571135 0.124380 0.141609
H3    H     H_    0.101163 0.399360 0.696154 0.167986
H4    H     H_    0.685189 0.572021 0.872364 0.141684
H5    H     H_    0.220072 0.373271 0.883587 0.156852
H6    H     H_    0.367750 0.280165 0.875660 0.225762
H7    H     H_    0.225145 0.362908 0.126747 0.053436
H8    H     H_    0.890902 0.408047 0.702563 0.175796
H9    H     H_    0.896817 0.577596 0.705807 0.172237
H10   H     H_    0.107813 0.705786 0.490659 0.156758
H11   H     H_    0.892883 0.706187 0.482996 0.156422
H12   H     H_    0.889874 0.383331 0.319089 0.177151
H13   H     H_    0.102395 0.391108 0.315026 0.166192
H14   H     H_    0.106866 0.295528 0.467322 0.152745
H15   H     H_    0.891821 0.295027 0.476114 0.156308
H16   H     H_    0.602432 0.275602 0.834702 0.179006
H17   H     H_    0.722667 0.166828 0.780154 0.138332
H18   H     H_    0.656379 0.244716 0.069880 0.246862
H19   H     H_    0.752256 0.110332 0.034373 0.228220
H20   H     H_    0.906243 0.246470 0.909067 0.260173
H21   H     H_    0.883076 0.300487 0.079181 0.262919
H22   H     H_    0.810631 0.383134 0.939003 0.265358
H23   H     H_    0.109817 0.632887 0.327899 0.175684
H24   H     H_    0.392612 0.058792 0.119488 0.184966
H25   H     H_    0.261562 0.127832 0.035183 0.117781
H26   H     H_    0.300966 0.139527 0.345998 0.240482
H27   H     H_    0.160923 0.177100 0.251605 0.198351
H28   H     H_    0.141183 0.952008 0.181574 0.262943
H29   H     H_    0.140507 0.967665 0.363403 0.260988
H30   H     H_    0.280401 0.914146 0.279657 0.270466
H31   H     H_    0.895957 0.627290 0.323553 0.171930
H32   H     H_    0.568848 0.120614 0.283303 0.197523
H33   H     H_    0.556922 0.892007 0.279306 0.169256
H34   H     H_    0.370473 0.898704 0.725043 0.148224
H35   H     H_    0.516419 0.866188 0.825994 0.226875
H36   H     H_    0.402796 0.118361 0.754068 0.082472
N1    N     N_R   0.499150 0.499140 0.142800 -0.088567
N2    N     N_R   0.499150 0.499180 0.857150 -0.101054
O1    O     O_R   0.500020 0.316790 0.614690 -0.648752
O2    O     O_3   0.391100 0.250697 0.130518 -0.605499
O3    O     O_R   0.500000 0.316760 0.385350 -0.566210
O4    O     O_R   0.314800 0.500000 0.614670 -0.618660
O5    O     O_R   0.314790 0.499960 0.385330 -0.627736
O6    O     O_R   0.500000 0.683240 0.614650 -0.609907
O7    O     O_R   0.499980 0.683210 0.385310 -0.626516
O8    O     O_R   0.685210 0.500040 0.614670 -0.642813
O9    O     O_R   0.685200 0.500000 0.385330 -0.633798
O10   O     O_3   0.566221 0.085692 0.875317 -0.641127
Zn1   Zn    Zn3+2 0.500010 0.500020 0.653130 0.918788
Zn2   Zn    Zn3+2 0.499990 0.499980 0.346870 0.955848

loop_
_geom_bond_atom_site_label_1
_geom_bond_atom_site_label_2
_ccdc_geom_bond_type
C6    N1    A    
C30   H32   S    
C13   C32   S    
C6    C9    A    
C7    C8    A    
C22   H22   S    
C15   C19   S    
C12   C23   S    
C1    O1    A    
C10   H5    S    
C28   C29   A    
C26   H29   S    
C30   C31   A    
C15   C16   S    
C23   H11   S    
C2    C32   A    
C18   C19   S    
C8    H4    S    
N2    Zn1   S    
C17   H10   S    
C4    O5    A    
N1    Zn2   S    
C4    C19   S    
C27   H12   S    
C12   C16   S    
C24   H25   S    
C9    C10   S    
C17   H23   S    
C4    O4    A    
C23   H31   S    
C21   C22   S    
C5    H36   S    
C20   H17   S    
C18   H14   S    
C15   H3    S    
C21   H18   S    
C22   H21   S    
C13   O7    A    
C20   O10   S    
C12   C27   S    
C9    N2    A    
C6    C11   S    
C11   O2    S    
C25   C26   S    
C29   C30   A    
C5    C28   S    
C31   C32   A    
C13   O6    A    
C1    C29   S    
C17   C23   S    
C14   O9    A    
C24   C25   S    
C5    O10   S    
C11   H7    S    
C20   H16   S    
C16   H8    S    
C12   C14   S    
C7    H2    S    
C3    H34   S    
C25   H26   S    
O4    Zn1   S    
C18   H13   S    
O3    Zn2   S    
C21   H19   S    
C24   O2    S    
C22   H20   S    
C27   H15   S    
C31   H33   S    
C3    H35   S    
C18   C27   S    
C3    C5    S    
O6    Zn1   S    
C7    N1    A    
O9    Zn2   S    
O5    Zn2   S    
C24   H24   S    
C8    N2    A    
C10   H6    S    
C1    O3    A    
C2    C3    S    
C26   H30   S    
O8    Zn1   S    
O7    Zn2   S    
C17   C19   S    
C14   O8    A    
C10   C11   S    
C20   C21   S    
C2    C28   A    
C25   H27   S    
C26   H28   S    
C16   H9    S    
C15   H1    S    
O1    Zn1   S    
