data_mof_unit_49125.cif
_audit_creation_date              2012-12-10T19:48:35-0500
_audit_creation_method            fapswitch 2.2
_symmetry_space_group_name_H-M    P1
_symmetry_Int_Tables_number       1
_space_group_crystal_system       triclinic
_cell_length_a                    10.827376
_cell_length_b                    10.624814
_cell_length_c                    9.419799
_cell_angle_alpha                 89.039489
_cell_angle_beta                  90.741481
_cell_angle_gamma                 89.148632
_cell_volume                      1083.27673057

loop_
_atom_site_label
_atom_site_type_symbol
_atom_type_description
_atom_site_fract_x
_atom_site_fract_y
_atom_site_fract_z
_atom_type_partial_charge
C1    C     C_R   0.500264 0.259374 0.501025 0.771339
C2    C     C_R   0.499734 0.740626 0.498975 0.771350
C3    C     C_R   0.871555 0.493795 0.502227 -0.084313
C4    C     C_R   0.128445 0.506195 0.497771 -0.084312
C5    C     C_R   0.942002 0.432635 0.610891 -0.001103
C6    C     C_R   0.057999 0.567353 0.389107 -0.001114
C7    C     C_3   0.491639 0.037442 0.635225 -0.146592
C8    C     C_3   0.508356 0.962559 0.364775 -0.146585
C9    C     C_3   0.596878 0.954306 0.575949 -0.171627
C10   C     C_3   0.403118 0.045696 0.424051 -0.171631
C11   C     C_3   0.499714 0.877644 0.497342 0.034248
C12   C     C_3   0.500282 0.122357 0.502658 0.034247
C13   C     C_3   0.394538 0.958471 0.556482 -0.175290
C14   C     C_3   0.605457 0.041529 0.443518 -0.175297
C15   C     C_3   0.535071 0.607412 0.048919 -0.050583
C16   C     C_3   0.464929 0.392587 0.951080 -0.050586
C17   C     C_3   0.425931 0.586038 0.946410 -0.017114
C18   C     C_3   0.574069 0.413962 0.053590 -0.017111
C19   C     C_3   0.609337 0.521281 0.950940 -0.027428
C20   C     C_3   0.390663 0.478719 0.049060 -0.027433
C21   C     C_R   0.262470 0.504035 0.498947 0.783209
C22   C     C_R   0.737530 0.495962 0.501052 0.783204
C23   C     C_R   0.231692 0.821977 0.191359 -0.129049
C24   C     C_R   0.768260 0.178058 0.808667 -0.129046
C25   C     C_R   0.189694 0.745182 0.302189 -0.088459
C26   C     C_R   0.810273 0.254836 0.697831 -0.088421
C27   C     C_R   0.112180 0.643717 0.272819 0.125138
C28   C     C_R   0.887820 0.356280 0.727186 0.125120
C29   C     C_R   0.077327 0.621242 0.131435 -0.178964
C30   C     C_R   0.922704 0.378743 0.868564 -0.178973
C31   C     C_R   0.119504 0.698167 0.021134 -0.159154
C32   C     C_R   0.880513 0.301835 0.978871 -0.159137
C33   C     C_R   0.196329 0.798892 0.051238 -0.140077
C34   C     C_R   0.803643 0.201136 0.948780 -0.140098
C35   C     C_R   0.929983 0.559448 0.392865 -0.242620
C36   C     C_R   0.070018 0.440540 0.607132 -0.242626
Cu1   Cu    Cu3+1 0.500030 0.499990 0.643150 0.934440
Cu2   Cu    Cu3+1 0.499970 0.500010 0.356850 0.934443
H1    H     H_    0.228669 0.858942 0.965958 0.117314
H2    H     H_    0.771288 0.141101 0.034066 0.117312
H3    H     H_    0.364832 0.658419 0.894875 0.120436
H4    H     H_    0.635168 0.341582 0.105126 0.120438
H5    H     H_    0.564600 0.697942 0.094653 0.112201
H6    H     H_    0.435401 0.302058 0.905347 0.112198
H7    H     H_    0.701333 0.540082 0.905317 0.130433
H8    H     H_    0.298667 0.459918 0.094683 0.130424
H9    H     H_    0.290234 0.900570 0.213692 0.121111
H10   H     H_    0.709691 0.099482 0.786345 0.121108
H11   H     H_    0.016384 0.544617 0.107643 0.117731
H12   H     H_    0.983684 0.455346 0.892345 0.117730
H13   H     H_    0.092231 0.680047 0.912505 0.130968
H14   H     H_    0.907811 0.319945 0.087494 0.130967
H15   H     H_    0.874989 0.608788 0.311814 0.154822
H16   H     H_    0.125013 0.391201 0.688182 0.154814
H17   H     H_    0.676235 0.912924 0.637259 0.122969
H18   H     H_    0.323763 0.087085 0.362746 0.122960
H19   H     H_    0.483967 0.070652 0.745931 0.122204
H20   H     H_    0.516023 0.929348 0.254070 0.122214
N1    N     N_3   0.500090 0.499970 0.858290 -0.158740
N2    N     N_3   0.499910 0.500030 0.141710 -0.158740
O1    O     O_R   0.500060 0.316850 0.620870 -0.584294
O2    O     O_R   0.499940 0.683150 0.379130 -0.584289
O3    O     O_R   0.500000 0.316860 0.379090 -0.585670
O4    O     O_R   0.500000 0.683140 0.620910 -0.585669
O5    O     O_R   0.319670 0.500010 0.620890 -0.587874
O6    O     O_R   0.680330 0.499990 0.379110 -0.587872
O7    O     O_R   0.319620 0.500010 0.379110 -0.574083
O8    O     O_R   0.680380 0.499990 0.620890 -0.574082
H21   H     H_    0.215483 0.766174 0.410571 0.088270
H22   H     H_    0.784467 0.233847 0.589454 0.088267
H23   H     H_    0.308183 0.921394 0.602450 0.116212
H24   H     H_    0.691812 0.078606 0.397550 0.116214

loop_
_geom_bond_atom_site_label_1
_geom_bond_atom_site_label_2
_ccdc_geom_bond_type
C4    C36   A    
C35   H15   S    
C15   N2    S    
C5    C36   A    
C29   H11   S    
C15   C19   S    
C33   H1    S    
C34   H2    S    
C24   C26   A    
C18   H4    S    
C27   C29   A    
Cu1   O8    S    
C17   C20   S    
C6    C35   A    
C15   C17   S    
C18   C19   S    
C32   H14   S    
C8    H20   S    
C22   O6    A    
Cu2   O6    S    
C23   C33   A    
Cu1   O5    S    
C31   C33   A    
C9    H17   S    
C20   N2    S    
C10   H18   S    
C16   H6    S    
C30   H12   S    
C21   O7    A    
C1    C12   S    
C2    C11   S    
C1    O3    A    
C2    O4    A    
C7    C12   S    
C23   H9    S    
C24   H10   S    
C4    C6    A    
C13   H23   S    
C19   N1    S    
C24   C34   A    
C16   N1    S    
C32   C34   A    
C9    C14   S    
Cu1   Cu2   S    
C5    C28   S    
C6    C27   S    
C3    C35   A    
C16   C20   S    
C9    C11   S    
C22   O8    A    
Cu1   N1    S    
C10   C12   S    
C17   N1    S    
Cu2   N2    S    
C18   N2    S    
C12   C14   S    
C26   H22   S    
C25   H21   S    
Cu1   O4    S    
Cu2   O3    S    
C7    C9    S    
C8    C14   S    
C21   O5    A    
C14   H24   S    
C8    C10   S    
C31   H13   S    
C3    C5    A    
C10   C13   S    
C1    O1    A    
Cu1   O1    S    
C19   H7    S    
C25   C27   A    
C26   C28   A    
C28   C30   A    
C15   H5    S    
C29   C31   A    
C30   C32   A    
C4    C21   S    
C11   C13   S    
C8    C11   S    
C23   C25   A    
C17   H3    S    
C36   H16   S    
C7    C13   S    
Cu2   O7    S    
C16   C18   S    
C3    C22   S    
C7    H19   S    
C20   H8    S    
C2    O2    A    
Cu2   O2    S    
