data_mof_unit_39629.cif
_audit_creation_date              2012-12-10T17:15:11-0500
_audit_creation_method            fapswitch 2.2
_symmetry_space_group_name_H-M    P1
_symmetry_Int_Tables_number       1
_space_group_crystal_system       triclinic
_cell_length_a                    10.228698
_cell_length_b                    10.453852
_cell_length_c                    12.847656
_cell_angle_alpha                 89.160331
_cell_angle_beta                  91.688425
_cell_angle_gamma                 93.378842
_cell_volume                      1370.69238808

loop_
_atom_site_label
_atom_site_type_symbol
_atom_type_description
_atom_site_fract_x
_atom_site_fract_y
_atom_site_fract_z
_atom_type_partial_charge
C1    C     C_R   0.448370 0.265102 0.490109 0.796885
C2    C     C_R   0.645895 0.390104 0.040234 0.485872
C3    C     C_R   0.366361 0.570634 0.855749 0.254191
C4    C     C_R   0.646460 0.417611 0.146962 0.236862
C5    C     C_R   0.537171 0.416404 0.869872 0.446239
C6    C     C_R   0.416482 0.465403 0.128170 0.457143
C7    C     C_R   0.539233 0.428480 0.977184 -0.235937
C8    C     C_R   0.430033 0.480053 0.022119 -0.227541
C9    C     C_2   0.429382 0.127592 0.470254 0.229981
C10   C     C_2   0.576623 0.873421 0.494126 0.256049
C11   C     C_2   0.516939 0.073575 0.410325 0.314820
C12   C     C_R   0.552562 0.734841 0.503724 0.870487
C13   C     C_2   0.524068 0.933221 0.410512 0.363513
C14   C     C_3   0.248694 0.330288 0.179205 0.070845
C15   C     C_3   0.114844 0.320617 0.228255 -0.771386
C16   C     C_3   0.510586 0.218428 0.797376 0.070264
C17   C     C_3   0.572040 0.089918 0.806628 -0.792758
C18   C     C_3   0.117403 0.550801 0.976104 0.112502
C19   C     C_3   0.008691 0.615764 0.029326 -0.753763
C20   C     C_3   0.788010 0.227406 0.035285 0.176298
C21   C     C_3   0.883227 0.167646 0.964465 -0.858711
C22   C     C_3   0.955993 0.732406 0.600117 0.080658
C23   C     C_2   0.078518 0.495802 0.521865 0.544361
C24   C     C_3   0.988186 0.870054 0.566225 -0.700052
C25   C     C_3   0.101010 0.415548 0.688351 0.101142
C26   C     C_3   0.171678 0.316669 0.753730 -0.831285
C27   C     C_3   0.800794 0.241990 0.591115 0.289480
C28   C     C_3   0.892240 0.157974 0.652338 -0.959492
C29   C     C_3   0.181382 0.682763 0.320493 0.286568
C30   C     C_3   0.126042 0.800216 0.268320 -0.875256
C31   C     C_2   0.934620 0.534468 0.527138 0.510522
C32   C     C_R   0.475186 0.503708 0.698642 0.952117
C33   C     C_R   0.522859 0.486255 0.301414 0.986716
C34   C     C_R   0.530093 0.455486 0.191492 -0.337799
C35   C     C_R   0.458553 0.496953 0.809478 -0.313191
C36   C     C_R   0.339052 0.547322 0.961105 0.416639
H1    H     H_    0.317019 0.276482 0.230287 0.144537
H2    H     H_    0.660796 0.090979 0.759827 0.263134
H3    H     H_    0.745095 0.346574 0.259930 0.374454
H4    H     H_    0.262597 0.721264 0.844072 0.354984
H5    H     H_    0.110447 0.447228 0.997741 0.154420
H6    H     H_    0.100096 0.561065 0.890714 0.123732
H7    H     H_    0.015522 0.720266 0.011848 0.232367
H8    H     H_    0.911851 0.574888 0.000720 0.247154
H9    H     H_    0.016493 0.600264 0.114764 0.269592
H10   H     H_    0.699198 0.160990 0.041781 0.110405
H11   H     H_    0.837847 0.236304 0.112792 0.170200
H12   H     H_    0.239326 0.284147 0.101465 0.119451
H13   H     H_    0.971719 0.233066 0.954732 0.245708
H14   H     H_    0.913361 0.075396 0.998758 0.205193
H15   H     H_    0.835424 0.148865 0.887469 0.272504
H16   H     H_    0.442677 0.923973 0.272632 0.330391
H17   H     H_    0.659176 0.092757 0.313822 0.328209
H18   H     H_    0.662796 0.882396 0.630039 0.321823
H19   H     H_    0.282315 0.109131 0.561720 0.337532
H20   H     H_    0.047355 0.696560 0.636461 0.110580
H21   H     H_    0.879956 0.730829 0.660293 0.134443
H22   H     H_    0.899327 0.912727 0.532514 0.264586
H23   H     H_    0.044174 0.375036 0.180756 0.268157
H24   H     H_    0.026141 0.925645 0.634690 0.192801
H25   H     H_    0.065016 0.874314 0.506922 0.299326
H26   H     H_    0.995698 0.408916 0.707063 0.134314
H27   H     H_    0.141598 0.512101 0.711001 0.165886
H28   H     H_    0.276432 0.323728 0.736542 0.233090
H29   H     H_    0.159503 0.333063 0.837849 0.178290
H30   H     H_    0.136275 0.217536 0.735105 0.250755
H31   H     H_    0.741096 0.176284 0.539515 0.229523
H32   H     H_    0.737577 0.288297 0.646880 0.186209
H33   H     H_    0.917914 0.201813 0.728382 0.248656
H34   H     H_    0.078013 0.218668 0.232675 0.207369
H35   H     H_    0.843514 0.062624 0.668301 0.237771
H36   H     H_    0.981656 0.144696 0.607764 0.304891
H37   H     H_    0.156841 0.599202 0.269983 0.186627
H38   H     H_    0.288303 0.701190 0.329059 0.235647
H39   H     H_    0.151334 0.886470 0.315977 0.266808
H40   H     H_    0.168232 0.815354 0.190118 0.235109
H41   H     H_    0.017785 0.786596 0.259428 0.269828
H42   H     H_    0.122208 0.359567 0.308214 0.262987
H43   H     H_    0.478060 0.232283 0.715009 0.137704
H44   H     H_    0.422803 0.211340 0.847440 0.118040
H45   H     H_    0.597802 0.068290 0.889175 0.237185
H46   H     H_    0.501360 0.013136 0.777247 0.241618
N1    N     N_2   0.162330 0.550370 0.457540 -0.001397
N2    N     N_2   0.837670 0.449630 0.542460 -0.002377
O1    O     O_R   0.567930 0.307680 0.508550 -0.622185
O2    O     O_3   0.603243 0.319347 0.825819 -0.561924
O3    O     O_3   0.761714 0.411526 0.204207 -0.747697
O4    O     O_3   0.307112 0.664398 0.797284 -0.774936
O5    O     O_3   0.240144 0.608825 0.008122 -0.583832
O6    O     O_3   0.757222 0.348936 0.994429 -0.560539
O7    O     O_3   0.478501 0.863563 0.324885 -0.828058
O8    O     O_3   0.602013 0.149545 0.350676 -0.835785
O9    O     O_3   0.636867 0.943298 0.574293 -0.851539
O10   O     O_3   0.332309 0.052604 0.518301 -0.789940
O11   O     O_3   0.906808 0.661443 0.513137 -0.571418
O12   O     O_R   0.432070 0.692320 0.491450 -0.579903
O13   O     O_3   0.119989 0.393394 0.581735 -0.587437
O14   O     O_3   0.873554 0.328827 0.527384 -0.573356
O15   O     O_3   0.125519 0.663435 0.418021 -0.571674
O16   O     O_R   0.351090 0.340020 0.481290 -0.589547
O17   O     O_R   0.648910 0.659980 0.518710 -0.587171
O18   O     O_R   0.590490 0.486480 0.665020 -0.627655
O19   O     O_R   0.409510 0.513520 0.334980 -0.614148
O20   O     O_R   0.373660 0.518820 0.637760 -0.561678
O21   O     O_R   0.626340 0.481180 0.362240 -0.558434
O22   O     O_3   0.292591 0.460621 0.168979 -0.572163
Zn1   Zn    Zn3+2 0.644780 0.478400 0.518200 1.024935
Zn2   Zn    Zn3+2 0.355220 0.521600 0.481800 1.032885

loop_
_geom_bond_atom_site_label_1
_geom_bond_atom_site_label_2
_ccdc_geom_bond_type
C36   O5    S    
O17   Zn1   S    
C27   O14   S    
C24   H25   S    
C22   O11   S    
C28   H33   S    
H3    O3    S    
C22   H21   S    
C21   H13   S    
C7    C8    A    
C4    O3    S    
O21   Zn1   S    
C23   N1    D    
C18   C19   S    
C18   H6    S    
C25   H27   S    
C15   H42   S    
C29   H37   S    
N2    Zn1   S    
N1    Zn2   S    
C17   H46   S    
C8    C36   A    
C2    O6    S    
C26   H28   S    
H18   O9    S    
C27   H32   S    
C30   H41   S    
C11   O8    S    
C2    C7    A    
C16   C17   S    
C32   O20   A    
O19   Zn2   S    
C17   H45   S    
C17   H2    S    
O20   Zn2   S    
O12   Zn2   S    
N1    O15   S    
C13   O7    S    
C16   O2    S    
C18   O5    S    
C28   H36   S    
H19   O10   S    
C1    O16   A    
C21   H14   S    
C19   H7    S    
C1    O1    A    
C4    C34   A    
O16   Zn2   S    
C29   O15   S    
C26   H30   S    
C32   C35   S    
C1    C9    S    
C18   H5    S    
C5    C7    A    
C6    C8    A    
C29   H38   S    
C10   O9    S    
C25   C26   S    
C20   O6    S    
C31   N2    D    
C6    C34   A    
C16   H44   S    
C23   C31   S    
C2    C4    A    
C29   C30   S    
C30   H40   S    
C3    C35   A    
C24   H24   S    
H17   O8    S    
C33   C34   S    
C6    O22   S    
C33   O21   A    
O18   Zn1   S    
C9    C11   D    
C10   C12   S    
C5    O2    S    
C25   O13   S    
C23   O13   S    
C32   O18   A    
C28   H35   S    
C21   H15   S    
C19   H8    S    
C15   H34   S    
C3    O4    S    
C33   O19   A    
C26   H29   S    
C15   H23   S    
C10   C13   D    
C14   H12   S    
C19   H9    S    
C22   H20   S    
C16   H43   S    
N2    O14   S    
H4    O4    S    
C12   O17   A    
C14   H1    S    
C30   H39   S    
C11   C13   S    
C3    C36   A    
C31   O11   S    
C5    C35   A    
C22   C24   S    
C25   H26   S    
C20   H11   S    
C27   H31   S    
C14   O22   S    
C20   C21   S    
C24   H22   S    
C27   C28   S    
C14   C15   S    
C12   O12   A    
H16   O7    S    
O1    Zn1   S    
C9    O10   S    
C20   H10   S    
