data_mof_unit_16008.cif
_audit_creation_date              2012-12-11T17:09:31-0500
_audit_creation_method            fapswitch 2.2
_symmetry_space_group_name_H-M    P1
_symmetry_Int_Tables_number       1
_space_group_crystal_system       triclinic
_cell_length_a                    14.799117
_cell_length_b                    6.913745
_cell_length_c                    13.50592
_cell_angle_alpha                 89.999981
_cell_angle_beta                  99.854948
_cell_angle_gamma                 90.000058
_cell_volume                      1361.49868279

loop_
_atom_site_label
_atom_site_type_symbol
_atom_type_description
_atom_site_fract_x
_atom_site_fract_y
_atom_site_fract_z
_atom_type_partial_charge
O1    O     O_R   0.586930 0.505770 0.416350 -0.536119
O2    O     O_R   0.413070 0.005770 0.583650 -0.536120
O3    O     O_R   0.397900 0.173100 0.389630 -0.535456
O4    O     O_R   0.602100 0.673100 0.610370 -0.535456
C1    C     C_R   0.364355 0.345449 0.362655 0.724966
C2    C     C_R   0.635645 0.845449 0.637345 0.724966
O5    O     O_R   0.585280 0.175870 0.404330 -0.546845
O6    O     O_R   0.414720 0.675870 0.595670 -0.546845
O7    O     O_R   0.601790 0.008380 0.598460 -0.536230
O8    O     O_R   0.398210 0.508380 0.401540 -0.536230
C3    C     C_R   0.614263 0.345046 0.382441 0.735221
C4    C     C_R   0.385737 0.845046 0.617559 0.735220
O9    O     O_3   0.505200 0.340120 0.563670 -0.370164
O10   O     O_3   0.494800 0.840120 0.436330 -0.370164
V1    V     V_3+5 0.499040 0.064180 0.488190 1.436767
V2    V     V_3+5 0.500960 0.564180 0.511810 1.436768
C5    C     C_R   0.311101 0.013736 0.746974 0.036880
C6    C     C_R   0.688899 0.513737 0.253026 0.036882
C7    C     C_R   0.315076 0.856389 0.682600 -0.151955
C8    C     C_R   0.684924 0.356390 0.317401 -0.151955
C9    C     C_R   0.244527 0.717797 0.675874 -0.221895
C10   C     C_R   0.755472 0.217794 0.324126 -0.221893
H1    H     H_    0.242276 0.599537 0.622874 0.167640
H2    H     H_    0.757721 0.099532 0.377123 0.167641
C11   C     C_R   0.176581 0.729321 0.737609 0.364378
C12   C     C_R   0.823417 0.229317 0.262389 0.364376
C13   C     C_R   0.179127 0.879769 0.809834 -0.185842
C14   C     C_R   0.820873 0.379769 0.190167 -0.185839
C15   C     C_R   0.245371 0.024967 0.809078 0.064082
C16   C     C_R   0.754628 0.524967 0.190922 0.064089
C17   C     C_3   0.310897 0.120840 0.892412 0.264636
C18   C     C_3   0.689101 0.620828 0.107586 0.264632
C19   C     C_3   0.383592 0.109169 0.822638 -0.023863
C20   C     C_3   0.616407 0.609160 0.177361 -0.023865
H3    H     H_    0.403001 0.252502 0.795114 0.137347
H4    H     H_    0.596996 0.752495 0.204880 0.137347
C21   C     C_1   0.783234 0.877107 0.783181 -0.153963
C22   C     C_1   0.216766 0.377107 0.216818 -0.153965
C23   C     C_1   0.715956 0.860139 0.717129 -0.169071
C24   C     C_1   0.284043 0.360139 0.282871 -0.169072
O11   O     O_R   0.101720 0.231700 0.098560 -0.538017
O12   O     O_R   0.898280 0.731700 0.901440 -0.538016
O13   O     O_R   0.914700 0.558980 0.095690 -0.537404
O14   O     O_R   0.085300 0.058980 0.904310 -0.537406
C25   C     C_R   0.886262 0.389630 0.118397 0.760810
C26   C     C_R   0.113738 0.889630 0.881603 0.760811
O15   O     O_R   0.102080 0.561590 0.110390 -0.539763
O16   O     O_R   0.897920 0.061590 0.889610 -0.539763
O17   O     O_R   0.086950 0.728940 0.916330 -0.521739
O18   O     O_R   0.913050 0.228940 0.083670 -0.521736
C27   C     C_R   0.136224 0.391910 0.137353 0.732547
C28   C     C_R   0.863776 0.891910 0.862646 0.732549
O19   O     O_3   0.994770 0.394510 0.936380 -0.352917
O20   O     O_3   0.005230 0.894510 0.063620 -0.352915
V3    V     V_3+5 0.000970 0.670520 0.011800 1.532766
V4    V     V_3+5 0.999030 0.170520 0.988200 1.532765
Cl1   Cl    Cl    0.089953 0.551569 0.721139 -0.629119
Cl2   Cl    Cl    0.910040 0.051555 0.278853 -0.629123
C29   C     C_3   0.329393 0.000843 0.990142 -0.735151
H5    H     H_    0.391429 0.056108 0.040189 0.211852
H6    H     H_    0.270450 0.012793 0.030811 0.192122
H7    H     H_    0.339148 0.845182 0.974586 0.190658
C30   C     C_3   0.670606 0.500820 0.009860 -0.735163
H8    H     H_    0.608571 0.556079 0.959812 0.211855
H9    H     H_    0.729549 0.512762 0.969190 0.192120
H10   H     H_    0.660852 0.345163 0.025420 0.190663
C31   C     C_3   0.282952 0.329766 0.911380 -0.727237
H11   H     H_    0.269755 0.413225 0.840241 0.213275
H12   H     H_    0.219763 0.331659 0.945333 0.221061
H13   H     H_    0.338797 0.402699 0.963470 0.185681
C32   C     C_3   0.717042 0.829752 0.088612 -0.727223
H14   H     H_    0.730243 0.913219 0.159750 0.213276
H15   H     H_    0.780229 0.831641 0.054652 0.221055
H16   H     H_    0.661191 0.902678 0.036523 0.185681
C33   C     C_3   0.468204 0.981695 0.857451 -0.784836
H17   H     H_    0.508967 0.042721 0.927080 0.214133
H18   H     H_    0.448997 0.830070 0.871377 0.212778
H19   H     H_    0.512189 0.980368 0.798625 0.197984
C34   C     C_3   0.531796 0.481679 0.142552 -0.784839
H20   H     H_    0.491032 0.542694 0.072920 0.214134
H21   H     H_    0.551005 0.330053 0.128631 0.212777
H22   H     H_    0.487810 0.480358 0.201377 0.197984

loop_
_geom_bond_atom_site_label_1
_geom_bond_atom_site_label_2
_ccdc_geom_bond_type
C22   C24   T    
C30   H9    S    
C13   C15   A    
C5    C15   A    
O1    C3    A    
O2    C4    A    
C2    O7    A    
C17   C31   S    
C26   O17   A    
C11   Cl1   S    
C10   H2    S    
C7    C9    A    
O12   V3    S    
C17   C29   S    
C19   H3    S    
C12   Cl2   S    
C17   C19   S    
C6    C16   A    
C20   H4    S    
O5    V1    S    
C30   H10   S    
C29   H5    S    
O6    V2    S    
C5    C19   S    
O14   C26   A    
C18   C32   S    
O19   V3    S    
C3    C8    S    
O20   V4    S    
C14   C25   S    
C29   H6    S    
C31   H11   S    
O4    C2    A    
C34   H21   S    
C21   C28   S    
O15   C27   A    
C22   C27   S    
O17   V3    S    
O18   V4    S    
C30   H8    S    
C31   H12   S    
C18   C20   S    
O4    V2    S    
O5    C3    A    
C33   H17   S    
O11   V4    S    
C20   C34   S    
C32   H16   S    
C6    C20   S    
O14   V4    S    
O6    C4    A    
O1    V2    S    
O2    V1    S    
C33   H18   S    
C13   C26   S    
O13   V3    S    
C8    C10   A    
O9    V1    S    
O10   V2    S    
O9    V2    S    
C19   C33   S    
O3    V1    S    
O15   V3    S    
O19   V4    S    
O16   V4    S    
C9    C11   A    
O20   V3    S    
C29   H7    S    
C2    C23   S    
C18   C30   S    
O3    C1    A    
C34   H22   S    
C11   C13   A    
C12   C14   A    
C31   H13   S    
C9    H1    S    
O7    V1    S    
C1    O8    A    
C15   C17   S    
O8    V2    S    
C16   C18   S    
C25   O18   A    
C4    C7    S    
C14   C16   A    
C5    C7    A    
C6    C8    A    
C33   H19   S    
C34   H20   S    
O16   C28   A    
C32   H14   S    
C21   C23   T    
C10   C12   A    
C1    C24   S    
C32   H15   S    
O10   V1    S    
O13   C25   A    
O11   C27   A    
O12   C28   A    
