data_mof_unit_31451.cif
_audit_creation_date              2013-03-05T15:55:27-0500
_audit_creation_method            fapswitch 2.2
_symmetry_space_group_name_H-M    P1
_symmetry_Int_Tables_number       1
_space_group_crystal_system       triclinic
_cell_length_a                    10.750549
_cell_length_b                    12.353537
_cell_length_c                    13.237204
_cell_angle_alpha                 116.968643
_cell_angle_beta                  76.984385
_cell_angle_gamma                 101.78356
_cell_volume                      1515.98552517

loop_
_atom_site_label
_atom_site_type_symbol
_atom_site_description
_atom_site_fract_x
_atom_site_fract_y
_atom_site_fract_z
_atom_type_partial_charge
O1    O     O_R   0.537340 0.972510 0.318130 -0.537208
O2    O     O_R   0.487200 0.806530 0.359650 -0.625816
C1    C     C_R   0.512483 0.854531 0.286484 0.880015
O3    O     O_R   0.707380 0.082980 0.479220 -0.558280
O4    O     O_R   0.657240 0.917000 0.520740 -0.595129
C2    C     C_R   0.740006 0.998695 0.498234 0.902950
Cu1   Cu    Cu3+1 0.529690 0.098270 0.475420 1.021348
Cu2   Cu    Cu3+1 0.470310 0.901730 0.524580 0.960285
O5    O     O_R   0.512800 0.193470 0.640350 -0.566221
O6    O     O_R   0.462660 0.027490 0.681870 -0.584161
O7    O     O_R   0.342760 0.083000 0.479260 -0.597946
O8    O     O_R   0.292620 0.917020 0.520780 -0.608509
C3    C     C_R   0.480353 0.145232 0.713444 0.843138
C4    C     C_R   0.260263 0.999600 0.499846 0.810430
C5    C     C_3   0.960156 0.990018 0.378833 0.087646
H1    H     H_    0.956516 0.078285 0.376648 0.106852
C6    C     C_3   0.104129 0.984042 0.378445 0.133063
H2    H     H_    0.160519 0.065051 0.366557 0.100015
H3    H     H_    0.921834 0.195623 0.574333 0.118900
H4    H     H_    0.130896 0.197940 0.575287 0.152208
C7    C     C_3   0.930445 0.118382 0.593208 0.156711
C8    C     C_3   0.899270 0.884804 0.512960 -0.321073
C9    C     C_3   0.878455 0.996431 0.495714 -0.136025
H5    H     H_    0.835750 0.879449 0.589743 0.225391
H6    H     H_    0.874154 0.797505 0.439445 0.221996
C10   C     C_3   0.122610 0.997607 0.497747 -0.059472
C11   C     C_3   0.075277 0.119604 0.591975 -0.506287
C12   C     C_3   0.039336 0.892490 0.525012 -0.342185
H7    H     H_    0.075660 0.802713 0.468731 0.211757
H8    H     H_    0.044250 0.909797 0.614339 0.198982
H9    H     H_    0.093739 0.134401 0.677042 0.222358
C13   C     C_R   0.303214 0.280229 0.013469 -0.152834
H10   H     H_    0.305230 0.098833 0.878002 0.161512
H11   H     H_    0.227804 0.464324 0.210670 0.151781
H12   H     H_    0.227458 0.251572 0.068861 0.159976
C14   C     C_R   0.448394 0.228039 0.834309 -0.048349
C15   C     C_R   0.601302 0.813964 0.085801 -0.139650
C16   C     C_R   0.619818 0.738409 0.969707 -0.110885
C17   C     C_R   0.565664 0.616814 0.927914 0.244685
C18   C     C_R   0.492479 0.567795 0.005453 0.026285
C19   C     C_R   0.457921 0.650983 0.121653 0.048731
C20   C     C_R   0.448758 0.441261 0.973018 0.073423
C21   C     C_R   0.351653 0.404114 0.047232 0.141523
C22   C     C_R   0.304303 0.490793 0.154285 -0.202902
C23   C     C_R   0.357808 0.611998 0.191791 -0.100039
C24   C     C_R   0.503294 0.349604 0.871997 -0.137695
C25   C     C_R   0.349334 0.192794 0.906115 -0.181894
C26   C     C_R   0.521147 0.772249 0.163167 -0.063657
H13   H     H_    0.590026 0.370265 0.821544 0.219640
H14   H     H_    0.648406 0.906525 0.114512 0.215337
H15   H     H_    0.675709 0.775782 0.911279 0.190783
H16   H     H_    0.315718 0.675072 0.274944 0.189334
C27   C     C_R   0.705053 0.351080 0.330396 -0.284645
H17   H     H_    0.746560 0.549515 0.296624 0.192314
H18   H     H_    0.785653 0.352774 0.264723 0.179810
N1    N     N_R   0.574690 0.246280 0.438200 -0.203740
C28   C     C_R   0.323579 0.758560 0.644010 0.081695
C29   C     C_R   0.282329 0.660454 0.673179 -0.215136
C30   C     C_R   0.346559 0.556451 0.617635 -0.141837
C31   C     C_R   0.454082 0.549795 0.532363 0.032674
C32   C     C_R   0.491883 0.652582 0.504742 0.270071
C33   C     C_R   0.526002 0.446045 0.473758 -0.004410
C34   C     C_R   0.632003 0.448454 0.388878 0.105760
C35   C     C_R   0.665566 0.548043 0.362077 -0.236564
C36   C     C_R   0.597106 0.647627 0.418802 -0.181235
C37   C     C_R   0.499468 0.340148 0.495814 0.030127
C38   C     C_R   0.675441 0.250756 0.355577 0.442607
N2    N     N_R   0.426100 0.754320 0.561190 -0.214921
H19   H     H_    0.420421 0.331224 0.559098 0.141665
H20   H     H_    0.272666 0.838530 0.687274 0.129008
H21   H     H_    0.310659 0.482984 0.643171 0.152190
H22   H     H_    0.200102 0.664973 0.738946 0.173286
H23   H     H_    0.630401 0.719156 0.392363 0.237051
N3    N     N_R   0.856056 0.140211 0.707085 0.143192
O9    O     O_R   0.789837 0.232952 0.761218 -0.372515
O10   O     O_R   0.863461 0.074723 0.759193 -0.359317
Br1   Br    Br    0.573530 0.539256 0.764113 -0.569979
N4    N     N_R   0.911321 0.893375 0.274729 0.195741
O11   O     O_R   0.960493 0.894282 0.175783 -0.268947
O12   O     O_R   0.815709 0.811049 0.278771 -0.407866
Br2   Br    Br    0.780773 0.122220 0.267267 -0.492742
N5    N     N_R   0.155119 0.874272 0.283300 0.151994
O13   O     O_R   0.251726 0.886469 0.208333 -0.354756
O14   O     O_R   0.101187 0.764803 0.268585 -0.351412

loop_
_geom_bond_atom_site_label_1
_geom_bond_atom_site_label_2
_geom_bond_distance
_ccdc_geom_bond_type
Cu1   Cu2   2.709036 S    
Cu1   O7    1.970917 S    
C24   H13   1.075868 S    
C10   C11   1.551896 S    
C15   C16   1.381869 A    
N3    O10   1.301461 A    
C6    C10   1.564999 S    
C17   Br1   1.921653 S    
C12   H7    1.110840 S    
H3    C7    1.115448 S    
O4    C2    1.298284 A    
O7    C4    1.301880 A    
N4    O12   1.300522 A    
C37   H19   1.077453 S    
C5    H1    1.112605 S    
C1    C26   1.473689 S    
C36   H23   1.061279 S    
C14   C25   1.399002 A    
C31   C33   1.440507 A    
C6    N5    1.472808 S    
C20   C24   1.399527 A    
O5    C3    1.303459 A    
C13   C21   1.404294 A    
C8    H6    1.109278 S    
C14   C24   1.394123 A    
C28   H20   1.081685 S    
C18   C20   1.425054 A    
C7    C11   1.550477 S    
C30   C31   1.408535 A    
C8    C12   1.529025 S    
Cu1   N1    2.041677 S    
O3    Cu1   1.971444 S    
C27   H18   1.084796 S    
N3    O9    1.300604 A    
C33   C37   1.426351 A    
C11   H9    1.113527 S    
C13   H12   1.083938 S    
H11   C22   1.084160 S    
C3    C14   1.461411 S    
O3    C2    1.302738 A    
C17   C18   1.429898 A    
N4    O11   1.301564 A    
C16   H15   1.083331 S    
C23   H16   1.079452 S    
C29   C30   1.394624 A    
C7    N3    1.470020 S    
C31   C32   1.433382 A    
O1    C1    1.307155 A    
C21   C22   1.391137 A    
C33   C34   1.414808 A    
Cu2   O8    1.971443 S    
C6    H2    1.116169 S    
C4    C10   1.481333 S    
C15   C26   1.398824 A    
C18   C19   1.422976 A    
O8    C4    1.297406 A    
Cu2   N2    2.029800 S    
N5    O14   1.301765 A    
C7    C9    1.570054 S    
H10   C25   1.083294 S    
C13   C25   1.393239 A    
C8    H5    1.110699 S    
C20   C21   1.420124 A    
C28   N2    1.358905 A    
C22   C23   1.386325 A    
Cu1   O5    1.939675 S    
O1    Cu1   1.948491 S    
O2    Cu2   1.939676 S    
O6    C3    1.303052 A    
O4    Cu2   1.970918 S    
C38   Br2   1.903867 S    
H4    C11   1.113956 S    
N1    C38   1.367185 A    
C10   C12   1.556507 S    
C35   C36   1.379112 A    
C12   H8    1.113959 S    
O2    C1    1.303847 A    
C15   H14   1.079071 S    
C27   C34   1.389379 A    
C32   N2    1.382495 A    
C29   H22   1.082535 S    
C28   C29   1.393684 A    
C16   C17   1.391248 A    
H17   C35   1.084982 S    
N1    C37   1.372357 A    
C2    C9    1.486949 S    
C5    C9    1.573736 S    
C19   C26   1.419115 A    
C27   C38   1.383549 A    
C34   C35   1.388006 A    
C5    N4    1.475686 S    
C32   C36   1.401068 A    
Cu2   O6    1.948491 S    
N5    O13   1.301375 A    
C19   C23   1.412810 A    
C8    C9    1.561532 S    
C5    C6    1.563298 S    
C30   H21   1.078584 S    
