data_mof_unit_62450.cif
_audit_creation_date              2012-12-10T16:52:12-0500
_audit_creation_method            fapswitch 2.2
_symmetry_space_group_name_H-M    P1
_symmetry_Int_Tables_number       1
_space_group_crystal_system       triclinic
_cell_length_a                    11.03679
_cell_length_b                    10.937963
_cell_length_c                    9.690599
_cell_angle_alpha                 90.01161
_cell_angle_beta                  102.216422
_cell_angle_gamma                 90.0496
_cell_volume                      1143.35769989

loop_
_atom_site_label
_atom_site_type_symbol
_atom_type_description
_atom_site_fract_x
_atom_site_fract_y
_atom_site_fract_z
_atom_type_partial_charge
C1    C     C_R   0.501548 0.265352 0.500420 0.843755
C2    C     C_2   0.492510 0.866619 0.500565 -0.302358
C3    C     C_2   0.497881 0.066934 0.386220 -0.150165
C4    C     C_2   0.507867 0.133404 0.504268 -0.308040
C5    C     C_2   0.427257 0.430769 0.904556 -0.062800
C6    C     C_2   0.429587 0.428435 0.060841 -0.063891
C7    C     C_R   0.262873 0.502739 0.443279 0.841504
C8    C     C_R   0.498624 0.734660 0.499769 0.862718
C9    C     C_R   0.737057 0.505103 0.556427 0.898215
C10   C     C_2   0.128665 0.516694 0.412565 -0.301952
C11   C     C_2   0.068745 0.529690 0.518232 -0.200993
C12   C     C_2   0.872049 0.508262 0.585844 -0.397419
C13   C     C_2   0.935156 0.550128 0.490964 0.316967
C14   C     C_2   0.503468 0.933009 0.387639 -0.131326
Cu1   Cu    Cu3+1 0.500020 0.500020 0.638640 0.960024
Cu2   Cu    Cu3+1 0.499980 0.499980 0.361360 0.984279
H1    H     H_    0.563090 0.553579 0.909178 0.206826
H2    H     H_    0.368521 0.364082 0.097501 0.150057
H3    H     H_    0.554551 0.562011 0.119216 0.218181
H4    H     H_    0.118029 0.521231 0.627575 0.164759
H5    H     H_    0.921214 0.467653 0.684249 0.126687
H6    H     H_    0.079527 0.519937 0.302992 0.192539
H7    H     H_    0.515035 0.888314 0.291134 0.177887
H8    H     H_    0.476117 0.907588 0.596545 0.147711
H9    H     H_    0.487069 0.111556 0.284188 0.168450
H10   H     H_    0.523627 0.092504 0.608143 0.150782
H11   H     H_    0.361817 0.370758 0.837356 0.150881
N1    N     N_2   0.498650 0.498660 0.846590 -0.279368
N2    N     N_2   0.498620 0.498630 0.152710 -0.272328
O1    O     O_R   0.500020 0.321960 0.617050 -0.580415
O2    O     O_R   0.499980 0.321920 0.382890 -0.578077
O3    O     O_R   0.320700 0.500020 0.574050 -0.578226
O4    O     O_R   0.320660 0.499980 0.339890 -0.578644
O5    O     O_R   0.500020 0.678080 0.617110 -0.581171
O6    O     O_R   0.499980 0.678040 0.382950 -0.567429
O7    O     O_R   0.679340 0.500020 0.660110 -0.579514
O8    O     O_R   0.679300 0.499980 0.425950 -0.526910
Br1   Br    Br    0.859746 0.643949 0.325152 -0.521196

loop_
_geom_bond_atom_site_label_1
_geom_bond_atom_site_label_2
_ccdc_geom_bond_type
C14   H7    S    
C7    C10   S    
C4    H10   S    
Cu2   O4    S    
C9    O7    A    
C5    N1    D    
C7    O4    A    
Cu1   O5    S    
C1    O2    A    
Cu2   O8    S    
C1    C4    S    
C9    O8    A    
C13   Br1   S    
Cu1   O3    S    
C8    O5    A    
C10   H6    S    
Cu2   O2    S    
C11   C13   S    
Cu1   N1    S    
C3    C14   S    
C6    H2    S    
C1    O1    A    
Cu2   O6    S    
C2    H8    S    
C5    C6    S    
C2    C14   D    
C9    C12   S    
C11   H4    S    
C10   C11   D    
Cu1   Cu2   S    
H3    N2    S    
Cu1   O7    S    
C3    H9    S    
C6    N2    D    
C12   C13   D    
Cu1   O1    S    
C7    O3    A    
Cu2   N2    S    
C5    H11   S    
H1    N1    S    
C12   H5    S    
C2    C8    S    
C3    C4    D    
C8    O6    A    
