data_mof_unit_12577.cif
_audit_creation_date              2012-12-10T19:44:59-0500
_audit_creation_method            fapswitch 2.2
_symmetry_space_group_name_H-M    P1
_symmetry_Int_Tables_number       1
_space_group_crystal_system       triclinic
_cell_length_a                    15.016255
_cell_length_b                    10.940295
_cell_length_c                    13.88425
_cell_angle_alpha                 87.993053
_cell_angle_beta                  91.34522
_cell_angle_gamma                 86.642823
_cell_volume                      2274.87981025

loop_
_atom_site_label
_atom_site_type_symbol
_atom_type_description
_atom_site_fract_x
_atom_site_fract_y
_atom_site_fract_z
_atom_type_partial_charge
C1    C     C_R   0.497519 0.262589 0.501652 0.811682
C2    C     C_R   0.598584 0.855615 0.651206 0.059327
C3    C     C_R   0.435534 0.163772 0.256574 -0.032630
C4    C     C_R   0.564441 0.836245 0.743434 -0.032630
C5    C     C_R   0.385460 0.233505 0.186184 -0.159755
C6    C     C_R   0.614510 0.766528 0.813836 -0.159758
C7    C     C_R   0.300017 0.281639 0.206272 -0.175783
C8    C     C_R   0.699958 0.718397 0.793763 -0.175810
C9    C     C_R   0.465426 0.944173 0.418203 -0.026600
C10   C     C_R   0.534564 0.055828 0.581799 -0.026616
C11   C     C_R   0.506509 0.871577 0.495386 -0.106787
C12   C     C_R   0.502479 0.737411 0.498348 0.811681
C13   C     C_R   0.493484 0.128423 0.504615 -0.106784
C14   C     C_R   0.544590 0.928373 0.575233 -0.045764
C15   C     C_R   0.455401 0.071628 0.424769 -0.045752
C16   C     C_R   0.328913 0.500734 0.499299 0.787882
C17   C     C_R   0.671087 0.499267 0.500700 0.787879
C18   C     C_R   0.566502 0.434832 0.798045 0.166125
C19   C     C_R   0.433498 0.565168 0.201955 0.166121
C20   C     C_R   0.435357 0.568766 0.790721 0.113315
C21   C     C_R   0.564643 0.431234 0.209279 0.113304
C22   C     C_R   0.435675 0.572203 0.893202 -0.063428
C23   C     C_R   0.056225 0.354456 0.637106 -0.191464
C24   C     C_R   0.564326 0.427799 0.106798 -0.063424
C25   C     C_R   0.500158 0.500293 0.948418 0.057532
C26   C     C_R   0.499843 0.499709 0.051581 0.057522
C27   C     C_R   0.565071 0.429161 0.900834 -0.004651
C28   C     C_R   0.434930 0.570842 0.099166 -0.004652
C29   C     C_R   0.373268 0.646733 0.942090 -0.219788
C30   C     C_R   0.626734 0.353272 0.057910 -0.219772
C31   C     C_R   0.373627 0.647227 0.042491 -0.128755
C32   C     C_R   0.626376 0.352778 0.957509 -0.128770
C33   C     C_R   0.809019 0.571259 0.431673 -0.214683
C34   C     C_R   0.943775 0.645547 0.362895 -0.191481
C35   C     C_R   0.190981 0.428743 0.568327 -0.214684
C36   C     C_R   0.767759 0.499325 0.500993 -0.057052
C37   C     C_R   0.232241 0.500677 0.499007 -0.057073
C38   C     C_R   0.818851 0.425153 0.567994 -0.219804
C39   C     C_R   0.181149 0.574851 0.432007 -0.219863
C40   C     C_R   0.911659 0.425322 0.568563 0.108021
C41   C     C_R   0.088341 0.574683 0.431439 0.107989
C42   C     C_R   0.953358 0.499356 0.499823 0.092147
C43   C     C_R   0.046642 0.500648 0.500179 0.092135
C44   C     C_R   0.901785 0.572172 0.430771 0.146816
C45   C     C_R   0.263467 0.259003 0.296779 0.076445
C46   C     C_R   0.098214 0.427831 0.569230 0.146827
C47   C     C_R   0.963395 0.353082 0.636692 -0.191336
C48   C     C_R   0.036605 0.646922 0.363309 -0.191344
C49   C     C_2   0.431865 0.890461 0.329074 0.330028
C50   C     C_2   0.568115 0.109540 0.670933 0.330041
C51   C     C_2   0.643651 0.376505 0.750156 0.381727
C52   C     C_2   0.356348 0.623492 0.249843 0.381732
C53   C     C_2   0.362757 0.638277 0.735671 0.438954
C54   C     C_2   0.637241 0.361720 0.264329 0.438958
C55   C     C_2   0.170672 0.303268 0.314166 0.359190
C56   C     C_R   0.736515 0.741016 0.703257 0.076440
C57   C     C_2   0.829316 0.696759 0.685888 0.359230
C58   C     C_R   0.315122 0.191798 0.368530 -0.159012
C59   C     C_R   0.684865 0.808203 0.631493 -0.159001
C60   C     C_R   0.401400 0.144389 0.348804 0.059314
Cu1   Cu    Cu3+1 0.500010 0.499980 0.597420 0.981500
Cu2   Cu    Cu3+1 0.499990 0.500020 0.402580 0.981491
H1    H     H_    0.768735 0.627749 0.379497 0.144551
H2    H     H_    0.067962 0.704085 0.310231 0.164966
H3    H     H_    0.095177 0.298012 0.690293 0.149635
H4    H     H_    0.904823 0.701990 0.309707 0.149637
H5    H     H_    0.261685 0.334363 0.150455 0.146198
H6    H     H_    0.738286 0.665686 0.849590 0.146182
H7    H     H_    0.288259 0.175081 0.439234 0.161865
H8    H     H_    0.711734 0.824912 0.560791 0.161865
H9    H     H_    0.500951 0.125046 0.239420 0.188172
H10   H     H_    0.499022 0.874975 0.760578 0.188175
H11   H     H_    0.412622 0.249423 0.115626 0.154018
H12   H     H_    0.231265 0.372251 0.620502 0.144554
H13   H     H_    0.587342 0.750622 0.884393 0.154025
H14   H     H_    0.360905 0.897244 0.311474 0.054125
H15   H     H_    0.639074 0.102756 0.688542 0.054113
H16   H     H_    0.634611 0.323192 0.687435 0.105438
H17   H     H_    0.365386 0.676797 0.312569 0.105456
H18   H     H_    0.298814 0.598274 0.726349 0.052427
H19   H     H_    0.701184 0.401721 0.273654 0.052424
H20   H     H_    0.135090 0.365630 0.262087 0.085391
H21   H     H_    0.864909 0.634453 0.738000 0.085364
H22   H     H_    0.323767 0.706651 0.903348 0.158603
H23   H     H_    0.676236 0.293354 0.096651 0.158600
H24   H     H_    0.325741 0.710078 0.074645 0.182156
H25   H     H_    0.674263 0.289930 0.925355 0.182149
H26   H     H_    0.786511 0.365382 0.617952 0.171460
H27   H     H_    0.213489 0.634620 0.382048 0.171467
H28   H     H_    0.932038 0.295919 0.689770 0.164961
N1    N     N_R   0.499960 0.499900 0.743810 -0.242003
N2    N     N_R   0.500040 0.500100 0.256190 -0.242007
O1    O     O_R   0.500000 0.319630 0.582270 -0.581262
O2    O     O_2   0.515871 0.152811 0.728511 -0.541613
O3    O     O_2   0.719538 0.392154 0.778748 -0.620696
O4    O     O_2   0.280461 0.607850 0.221246 -0.620712
O5    O     O_2   0.371490 0.743051 0.706189 -0.565996
O6    O     O_2   0.628506 0.256944 0.293806 -0.565992
O7    O     O_2   0.132209 0.268927 0.385793 -0.550584
O8    O     O_2   0.867772 0.731045 0.614240 -0.550591
O9    O     O_R   0.500000 0.680370 0.417730 -0.581261
O10   O     O_R   0.499990 0.319660 0.417730 -0.532710
O11   O     O_R   0.500010 0.680340 0.582270 -0.532708
O12   O     O_R   0.370260 0.499960 0.582280 -0.599642
O13   O     O_R   0.629740 0.500040 0.417720 -0.599648
O14   O     O_R   0.370250 0.499990 0.417740 -0.597801
O15   O     O_R   0.629750 0.500010 0.582260 -0.597785
O16   O     O_2   0.484102 0.847194 0.271487 -0.541615

loop_
_geom_bond_atom_site_label_1
_geom_bond_atom_site_label_2
_ccdc_geom_bond_type
C40   C47   A    
C38   C40   A    
C35   H12   S    
C22   C29   A    
C15   C60   S    
C2    C4    A    
C34   H4    S    
C6    H13   S    
C39   C41   A    
Cu2   O13   S    
C18   N1    A    
C7    C45   A    
Cu1   O11   S    
C24   C26   A    
C17   O15   A    
C21   C54   S    
C11   C14   A    
Cu1   O1    S    
C48   H2    S    
C58   C60   A    
C33   C36   A    
C56   C57   S    
C19   N2    A    
C19   C52   S    
C16   O12   A    
C22   C25   A    
Cu2   N2    S    
C57   H21   S    
C17   C36   S    
C52   H17   S    
C16   O14   A    
C16   C37   S    
Cu2   O9    S    
C3    C60   A    
C40   C42   A    
C31   H24   S    
C41   C43   A    
C8    C56   A    
C42   C44   A    
C2    C14   S    
C18   C51   S    
C49   O16   D    
C20   N1    A    
C45   C58   A    
C23   C47   A    
Cu1   O12   S    
C34   C44   A    
C12   O11   A    
C4    C6    A    
C10   C14   A    
C5    C7    A    
C2    C59   A    
C50   O2    D    
C6    C8    A    
C53   O5    D    
C25   C26   A    
C32   H25   S    
C38   H26   S    
C30   H23   S    
C3    H9    S    
C17   O13   A    
C33   H1    S    
C53   H18   S    
C49   H14   S    
C9    C49   S    
C55   H20   S    
C19   C28   A    
C9    C11   A    
C29   H22   S    
C1    O1    A    
C20   C22   A    
C8    H6    S    
C13   C15   A    
C47   H28   S    
C34   C48   A    
C42   C43   A    
C10   C50   S    
C50   H15   S    
C4    H10   S    
C35   C37   A    
C27   C32   A    
C33   C44   A    
C28   C31   A    
C18   C27   A    
C20   C53   S    
C3    C5    A    
C10   C13   A    
C11   C12   S    
C58   H7    S    
Cu2   O14   S    
C25   C27   A    
C26   C28   A    
C56   C59   A    
C23   H3    S    
C36   C38   A    
C9    C15   A    
C51   H16   S    
C12   O9    A    
C29   C31   A    
C30   C32   A    
C57   O8    D    
C41   C48   A    
C52   O4    D    
C5    H11   S    
Cu1   Cu2   S    
Cu1   O15   S    
C43   C46   A    
C24   C30   A    
C59   H8    S    
C7    H5    S    
C1    C13   S    
C45   C55   S    
C37   C39   A    
C21   C24   A    
C55   O7    D    
C23   C46   A    
C54   O6    D    
C35   C46   A    
C1    O10   A    
C39   H27   S    
C54   H19   S    
Cu1   N1    S    
C51   O3    D    
Cu2   O10   S    
C21   N2    A    
