data_mof_unit_56028.cif
_audit_creation_date              2012-12-10T17:31:06-0500
_audit_creation_method            fapswitch 2.2
_symmetry_space_group_name_H-M    P1
_symmetry_Int_Tables_number       1
_space_group_crystal_system       triclinic
_cell_length_a                    12.003611
_cell_length_b                    12.941671
_cell_length_c                    15.694679
_cell_angle_alpha                 89.71287
_cell_angle_beta                  115.36642
_cell_angle_gamma                 92.802058
_cell_volume                      2200.07363042

loop_
_atom_site_label
_atom_site_type_symbol
_atom_type_description
_atom_site_fract_x
_atom_site_fract_y
_atom_site_fract_z
_atom_type_partial_charge
C1    C     C_R   0.475350 0.299377 0.493288 0.951102
C2    C     C_R   0.616608 0.960036 0.457423 -0.037064
C3    C     C_R   0.389667 0.141690 0.531994 -0.210498
C4    C     C_R   0.613563 0.855162 0.468748 -0.227500
C5    C     C_R   0.527996 0.126137 0.455674 0.382983
C6    C     C_R   0.484118 0.872002 0.551726 0.301566
C7    C     C_R   0.539027 0.021447 0.479765 -0.003525
C8    C     C_R   0.472193 0.976781 0.528083 -0.012717
C9    C     C_R   0.013703 0.613206 0.429812 0.342140
C10   C     C_R   0.990918 0.392601 0.577543 0.299582
C11   C     C_R   0.131148 0.597843 0.432594 0.706072
C12   C     C_R   0.524826 0.700021 0.506145 0.949003
C13   C     C_R   0.870614 0.404608 0.570417 0.680540
C14   C     C_R   0.157198 0.452740 0.530272 -0.029795
C15   C     C_R   0.843794 0.548454 0.471211 -0.034440
C16   C     C_R   0.575851 0.496960 0.679530 0.962734
C17   C     C_R   0.424252 0.506027 0.320189 0.958073
C18   C     C_R   0.038138 0.461280 0.528272 -0.173450
C19   C     C_R   0.964532 0.542057 0.475988 -0.176077
C20   C     C_R   0.621483 0.497815 0.781559 -0.193942
C21   C     C_R   0.379525 0.518271 0.218268 -0.184781
C22   C     C_R   0.775934 0.462398 0.936873 -0.057113
C23   C     C_R   0.647668 0.516795 0.108253 -0.099773
C24   C     C_R   0.225651 0.567922 0.066336 -0.059681
C25   C     C_R   0.737432 0.463101 0.839842 -0.222067
C26   C     C_R   0.263149 0.554714 0.162791 -0.224366
C27   C     C_R   0.544442 0.531732 0.820329 0.642307
C28   C     C_R   0.458951 0.498874 0.177270 0.618776
C29   C     C_R   0.572145 0.514605 0.915043 -0.064362
C30   C     C_R   0.431065 0.527334 0.084673 -0.053849
C31   C     C_R   0.694104 0.486960 0.975998 -0.081589
C32   C     C_R   0.308227 0.552821 0.025505 -0.077945
C33   C     C_R   0.482589 0.525944 0.950682 0.003510
C34   C     C_R   0.355390 0.534730 0.891503 -0.107972
C35   C     C_R   0.520700 0.523324 0.048598 0.000674
C36   C     C_R   0.731453 0.489009 0.074017 0.448474
C37   C     C_R   0.270653 0.556137 0.927364 0.437745
C38   C     C_R   0.542463 0.810664 0.510899 -0.149583
C39   C     C_R   0.461185 0.187530 0.490108 -0.176704
C40   C     C_R   0.392737 0.036959 0.548730 -0.082628
F1    F     F_    0.824027 0.340837 0.617176 -0.600331
F2    F     F_    0.176819 0.661129 0.384892 -0.587241
F3    F     F_    0.557433 0.441607 0.224699 -0.653080
F4    F     F_    0.448786 0.590053 0.766932 -0.589758
H1    H     H_    0.200742 0.571042 0.193674 0.255445
H2    H     H_    0.677352 0.990199 0.427772 0.238531
H3    H     H_    0.783472 0.607095 0.430257 0.223727
H4    H     H_    0.216561 0.392683 0.569305 0.218494
H5    H     H_    0.966671 0.419299 0.304289 0.373839
H6    H     H_    0.016733 0.597450 0.695750 0.378719
H7    H     H_    0.965126 0.860076 0.304148 0.398091
H8    H     H_    0.023555 0.271326 0.761414 0.395578
H9    H     H_    0.251175 0.817496 0.551356 0.358824
H10   H     H_    0.616058 0.332241 0.350830 0.433462
H11   H     H_    0.798748 0.438295 0.810522 0.244856
H12   H     H_    0.869312 0.441505 0.979713 0.230331
H13   H     H_    0.132234 0.590006 0.025102 0.233099
H14   H     H_    0.683739 0.532937 0.182750 0.261156
H15   H     H_    0.318252 0.521487 0.816639 0.264357
H16   H     H_    0.664664 0.808444 0.442092 0.217376
H17   H     H_    0.334343 0.187647 0.555180 0.214161
H18   H     H_    0.332778 0.004366 0.578333 0.208167
N1    N     N_R   0.799120 0.480200 0.517090 -0.202169
N2    N     N_R   0.200880 0.519800 0.482910 -0.188164
O1    O     O_R   0.580150 0.341050 0.504560 -0.539579
O2    O     O_2   0.971508 0.545434 0.157444 -0.291018
O3    O     O_3   0.887158 0.450564 0.265757 -0.533305
O4    O     O_2   0.033075 0.490648 0.853049 -0.336874
O5    O     O_2   0.078451 0.678268 0.869586 -0.253451
O6    O     O_3   0.103687 0.581466 0.735106 -0.522685
O7    O     O_2   0.815820 0.688268 0.288882 -0.297094
O8    O     O_2   0.901630 0.783424 0.439631 -0.313513
O9    O     O_3   0.017784 0.801528 0.333749 -0.447509
O10   O     O_2   0.104926 0.217595 0.586779 -0.253616
O11   O     O_2   0.201831 0.338626 0.720311 -0.318506
O12   O     O_R   0.419850 0.658950 0.495440 -0.522800
O13   O     O_3   0.008602 0.227519 0.705578 -0.407871
O14   O     O_2   0.536481 0.739952 0.693608 -0.229726
O15   O     O_2   0.457618 0.903116 0.713337 -0.235207
O16   O     O_3   0.302758 0.766148 0.596065 -0.453866
O17   O     O_2   0.728955 0.183497 0.430369 -0.275291
O18   O     O_2   0.555857 0.100307 0.295631 -0.236580
O19   O     O_3   0.538864 0.289086 0.333083 -0.497684
O20   O     O_R   0.388090 0.353760 0.493600 -0.652125
O21   O     O_R   0.611910 0.646240 0.506400 -0.649299
O22   O     O_R   0.650890 0.490020 0.640860 -0.594826
O23   O     O_R   0.349110 0.509980 0.359140 -0.596412
O24   O     O_R   0.458830 0.502730 0.629890 -0.552738
O25   O     O_R   0.541170 0.497270 0.370110 -0.590603
O26   O     O_2   0.917195 0.359268 0.131225 -0.281412
S1    S     S_3+6 0.881901 0.460226 0.157241 0.050795
S2    S     S_3+6 0.116544 0.577313 0.846080 0.044559
S3    S     S_3+6 0.933086 0.723339 0.371850 0.077409
S4    S     S_3+6 0.080355 0.292683 0.648685 0.106346
S5    S     S_3+6 0.446880 0.820706 0.642672 0.110573
S6    S     S_3+6 0.590455 0.174531 0.377468 0.070275
Zn1   Zn    Zn3+2 0.628240 0.491510 0.507320 1.058522
Zn2   Zn    Zn3+2 0.371760 0.508490 0.492680 1.093783

loop_
_geom_bond_atom_site_label_1
_geom_bond_atom_site_label_2
_ccdc_geom_bond_type
C23   H14   S    
C21   C26   A    
C27   C29   A    
C34   C37   A    
C14   C18   A    
C2    C7    A    
O9    S3    S    
C13   F1    S    
C7    C8    A    
C2    H2    S    
C1    O20   A    
C15   C19   A    
C30   C35   A    
C24   C26   A    
C20   C25   A    
C10   S4    S    
O12   Zn2   S    
C29   C33   A    
O13   S4    S    
C40   H18   S    
C11   F2    S    
C18   C19   A    
O22   Zn1   S    
O10   S4    D    
C26   H1    S    
O4    S2    D    
C27   F4    S    
C9    C19   A    
C24   H13   S    
C22   C25   A    
C1    O1    A    
C6    C38   A    
C15   H3    S    
O5    S2    D    
O23   Zn2   S    
N2    Zn2   S    
C3    C39   A    
C16   O22   A    
H10   O19   S    
C3    H17   S    
O18   S6    D    
C22   C31   A    
H7    O9    S    
H9    O16   S    
C17   O25   A    
C11   N2    A    
C5    C7    A    
O17   S6    D    
C14   H4    S    
C17   C21   S    
O25   Zn1   S    
C2    C4    A    
C24   C32   A    
O15   S5    D    
C13   N1    A    
O14   S5    D    
C16   C20   S    
C14   N2    A    
C4    H16   S    
O3    S1    S    
C33   C34   A    
C32   C37   A    
O16   S5    S    
C9    C11   A    
O8    S3    D    
C12   O21   A    
C36   S1    S    
C21   C28   A    
C4    C38   A    
C3    C40   A    
C23   C36   A    
C23   C35   A    
C5    C39   A    
C34   H15   S    
H8    O13   S    
C9    S3    S    
C5    S6    S    
H5    O3    S    
C37   S2    S    
C17   O23   A    
O6    S2    S    
C25   H11   S    
C10   C13   A    
C6    C8    A    
O2    S1    D    
O7    S3    D    
C20   C27   A    
C28   F3    S    
C22   H12   S    
O20   Zn2   S    
C12   O12   A    
H6    O6    S    
O1    Zn1   S    
N1    Zn1   S    
C30   C32   A    
O26   S1    D    
C10   C18   A    
O19   S6    S    
C28   C30   A    
C33   C35   A    
C12   C38   S    
O21   Zn1   S    
C1    C39   S    
C29   C31   A    
C6    S5    S    
C16   O24   A    
C15   N1    A    
C31   C36   A    
C8    C40   A    
O24   Zn2   S    
O11   S4    D    
