data_mof_unit_15102.cif
_audit_creation_date              2012-12-10T18:03:18-0500
_audit_creation_method            fapswitch 2.2
_symmetry_space_group_name_H-M    P1
_symmetry_Int_Tables_number       1
_space_group_crystal_system       triclinic
_cell_length_a                    11.026476
_cell_length_b                    9.724942
_cell_length_c                    15.14008
_cell_angle_alpha                 88.17164
_cell_angle_beta                  99.979077
_cell_angle_gamma                 90.277272
_cell_volume                      1598.12245383

loop_
_atom_site_label
_atom_site_type_symbol
_atom_type_description
_atom_site_fract_x
_atom_site_fract_y
_atom_site_fract_z
_atom_type_partial_charge
C1    C     C_R   0.262568 0.501343 0.505066 0.890690
C2    C     C_R   0.735477 0.500402 0.492491 0.942973
C3    C     C_R   0.508522 0.499606 0.329451 0.897928
C4    C     C_R   0.496698 0.497244 0.670767 0.900105
C5    C     C_R   0.410667 0.077080 0.441294 0.386237
C6    C     C_R   0.586859 0.921706 0.561150 0.369722
C7    C     C_R   0.586476 0.072747 0.561441 0.370123
C8    C     C_R   0.413305 0.927478 0.440210 0.358656
C9    C     C_R   0.063258 0.385437 0.524774 0.344171
C10   C     C_R   0.928484 0.623589 0.466612 0.243938
C11   C     C_R   0.936232 0.378540 0.493639 0.244841
C12   C     C_R   0.056870 0.632870 0.493165 0.276985
C13   C     C_R   0.620554 0.604064 0.108568 -0.188737
C14   C     C_R   0.600619 0.372265 0.910556 -0.206833
C15   C     C_R   0.548330 0.611556 0.912015 -0.206530
C16   C     C_R   0.579151 0.364423 0.104054 -0.211975
C17   C     C_R   0.564475 0.612234 0.184212 0.428433
C18   C     C_R   0.537770 0.365425 0.822013 0.377627
C19   C     C_R   0.502425 0.611701 0.820105 0.358236
C20   C     C_R   0.557520 0.362775 0.192877 0.356488
C21   C     C_R   0.540622 0.491649 0.234868 -0.254651
C22   C     C_R   0.507369 0.490283 0.771400 -0.240774
C23   C     C_R   0.609179 0.484616 0.059834 0.003047
C24   C     C_R   0.597180 0.492097 0.959327 0.033086
C25   C     C_R   0.867973 0.500892 0.483676 -0.337238
C26   C     C_R   0.126891 0.507829 0.509445 -0.374188
Cu1   Cu    Cu3+1 0.500000 0.640660 0.500000 1.204136
Cu2   Cu    Cu3+1 0.500000 0.359340 0.500000 1.203318
H1    H     H_    0.649875 0.697828 0.078243 0.206894
H2    H     H_    0.634095 0.277437 0.945063 0.192361
H3    H     H_    0.533666 0.702644 0.947592 0.214123
H4    H     H_    0.566290 0.270204 0.068071 0.207373
N1    N     N_R   0.500000 0.852070 0.500000 -0.305953
N2    N     N_R   0.500000 0.147930 0.500000 -0.297621
O1    O     O_R   0.319640 0.618740 0.499990 -0.506238
O2    O     O_R   0.680360 0.381260 0.500010 -0.496905
O3    O     O_R   0.680360 0.618740 0.500010 -0.509896
O4    O     O_R   0.319640 0.381260 0.499990 -0.506994
O5    O     O_R   0.499990 0.618780 0.371460 -0.489337
O6    O     O_R   0.500010 0.381220 0.628540 -0.510737
O7    O     O_R   0.500010 0.618780 0.628540 -0.497192
O8    O     O_R   0.499990 0.381220 0.371460 -0.501054
S1    S     S_3+6 0.270595 0.167896 0.385253 0.164583
O9    O     O_2   0.187521 0.104724 0.308501 -0.142837
O10   O     O_2   0.197743 0.172676 0.459343 -0.215678
O11   O     O_3   0.285526 0.326977 0.342606 -0.508398
H5    H     H_    0.200861 0.365043 0.328738 0.335969
S2    S     S_3+6 0.711668 0.829027 0.637505 0.146414
O12   O     O_2   0.827634 0.861221 0.602270 -0.196640
O13   O     O_2   0.725095 0.880069 0.730896 -0.190662
O14   O     O_3   0.715844 0.658448 0.656764 -0.535392
H6    H     H_    0.799813 0.637790 0.689778 0.370614
S3    S     S_3+6 0.696854 0.157358 0.649351 0.154868
O15   O     O_2   0.662345 0.116827 0.737807 -0.212643
O16   O     O_2   0.824354 0.105110 0.648750 -0.161504
O17   O     O_3   0.716556 0.327680 0.655550 -0.526706
H7    H     H_    0.768883 0.342695 0.714590 0.364394
S4    S     S_3+6 0.294432 0.845327 0.361256 0.162017
O18   O     O_2   0.175029 0.879255 0.389258 -0.194035
O19   O     O_2   0.296668 0.912075 0.271070 -0.149143
O20   O     O_3   0.286497 0.676564 0.342416 -0.509143
H8    H     H_    0.202712 0.660725 0.308348 0.341087
S5    S     S_3+6 0.481090 0.763083 0.185281 0.109418
O21   O     O_2   0.349543 0.718555 0.179748 -0.266083
O22   O     O_2   0.527588 0.839168 0.269175 -0.149253
O23   O     O_3   0.490394 0.865380 0.094883 -0.491210
H9    H     H_    0.417372 0.926273 0.087903 0.417693
S6    S     S_3+6 0.443485 0.215799 0.804005 0.119050
O24   O     O_2   0.412430 0.177805 0.707399 -0.197431
O25   O     O_2   0.506117 0.095528 0.857922 -0.199841
O26   O     O_3   0.312349 0.247326 0.842310 -0.467769
H10   H     H_    0.269041 0.157737 0.840962 0.389964
S7    S     S_3+6 0.398406 0.744562 0.777957 0.100825
O27   O     O_2   0.453727 0.843638 0.718143 -0.174325
O28   O     O_2   0.287630 0.677236 0.725515 -0.235120
O29   O     O_3   0.354902 0.832448 0.861236 -0.480509
H11   H     H_    0.300816 0.768633 0.888820 0.361231
S8    S     S_3+6 0.538841 0.191952 0.234760 0.110397
O30   O     O_2   0.591073 0.167067 0.331944 -0.203327
O31   O     O_2   0.404148 0.158205 0.218108 -0.190024
O32   O     O_3   0.611602 0.082804 0.177586 -0.455827
H12   H     H_    0.700518 0.100206 0.197886 0.390895
S9    S     S_3+6 0.111803 0.301236 0.630053 0.134394
O33   O     O_2   0.226279 0.369375 0.677038 -0.239251
O34   O     O_2   0.012782 0.315342 0.686025 -0.253622
O35   O     O_3   0.138161 0.133132 0.619451 -0.388745
H13   H     H_    0.154748 0.094210 0.681606 0.382557
S10   S     S_3+6 0.851887 0.741203 0.383299 0.107840
O36   O     O_2   0.758631 0.663184 0.320603 -0.369057
O37   O     O_2   0.786537 0.851568 0.423789 -0.122418
O38   O     O_3   0.949642 0.815509 0.322961 -0.398124
H14   H     H_    0.974461 0.740888 0.286752 0.335044
S11   S     S_3+6 0.877472 0.243623 0.422260 0.132231
O39   O     O_2   0.975122 0.156001 0.395467 -0.133987
O40   O     O_2   0.795019 0.151686 0.466519 -0.148408
O41   O     O_3   0.796540 0.316595 0.328450 -0.540192
H15   H     H_    0.857691 0.369283 0.300312 0.334418
S12   S     S_3+6 0.099649 0.781588 0.557775 0.173094
O42   O     O_2   0.234084 0.815944 0.570628 -0.201251
O43   O     O_2   0.028833 0.905163 0.515186 -0.095165
O44   O     O_3   0.059449 0.751055 0.658770 -0.460504
H16   H     H_    0.073808 0.839103 0.690081 0.396583

loop_
_geom_bond_atom_site_label_1
_geom_bond_atom_site_label_2
_ccdc_geom_bond_type
S5    O22   D    
C3    O8    A    
S11   O39   D    
S7    O27   D    
C14   C18   A    
S8    O32   S    
O32   H12   S    
S3    O15   D    
Cu1   N1    S    
C15   C19   A    
C10   S10   S    
O44   H16   S    
C6    S2    S    
C13   H1    S    
S8    O31   D    
C4    O7    A    
Cu2   O6    S    
C18   S6    S    
O17   H7    S    
C13   C23   A    
C14   C24   A    
C8    S4    S    
S2    O14   S    
C4    O6    A    
Cu1   O5    S    
S6    O24   D    
C23   C24   S    
C12   S12   S    
C11   S11   S    
S4    O20   S    
S2    O13   D    
O23   H9    S    
C5    S1    S    
S5    O23   S    
Cu2   N2    S    
S11   O40   D    
O41   H15   S    
S7    O28   D    
C14   H2    S    
C9    C26   A    
S3    O16   D    
O14   H6    S    
C19   S7    S    
C19   C22   A    
O29   H11   S    
O38   H14   S    
O35   H13   S    
Cu1   O1    S    
S4    O18   D    
C17   C21   A    
C12   C26   A    
S1    O9    D    
C4    C22   S    
Cu1   O7    S    
S9    O33   D    
S10   O38   S    
Cu2   O4    S    
C16   C20   A    
C5    N2    A    
C20   C21   A    
S1    O10   D    
C10   C12   A    
C1    O4    A    
C9    S9    S    
C10   C25   A    
C15   C24   A    
S9    O34   D    
S10   O37   D    
S11   O41   S    
S12   O43   D    
C9    C11   A    
C1    C26   S    
S7    O29   S    
C3    C21   S    
C16   H4    S    
C7    S3    S    
C1    O1    A    
S3    O17   S    
C2    O2    A    
O11   H5    S    
S2    O12   D    
C18   C22   A    
C5    C8    A    
C15   H3    S    
C6    C7    A    
C20   S8    S    
C16   C23   A    
S12   O44   S    
C6    N1    A    
C13   C17   A    
O26   H10   S    
C17   S5    S    
S8    O30   D    
C2    O3    A    
Cu1   O3    S    
S6    O26   S    
Cu2   O8    S    
C7    N2    A    
C2    C25   S    
C8    N1    A    
O20   H8    S    
S1    O11   S    
C3    O5    A    
S5    O21   D    
S9    O35   S    
S10   O36   D    
Cu2   O2    S    
S6    O25   D    
S12   O42   D    
Cu1   Cu2   S    
C11   C25   A    
S4    O19   D    
