data_mof_unit_8763.cif
_audit_creation_date              2012-12-10T17:32:19-0500
_audit_creation_method            fapswitch 2.2
_symmetry_space_group_name_H-M    P1
_symmetry_Int_Tables_number       1
_space_group_crystal_system       triclinic
_cell_length_a                    12.349196
_cell_length_b                    13.276474
_cell_length_c                    15.073054
_cell_angle_alpha                 76.813757
_cell_angle_beta                  101.699005
_cell_angle_gamma                 116.916343
_cell_volume                      2131.32752296

loop_
_atom_site_label
_atom_site_type_symbol
_atom_type_description
_atom_site_fract_x
_atom_site_fract_y
_atom_site_fract_z
_atom_type_partial_charge
C1    C     C_R   0.854488 0.286524 0.509774 0.800967
C2    C     C_R   0.903846 0.510549 0.074882 0.099966
C3    C     C_R   0.194493 0.485876 0.081433 -0.209596
C4    C     C_R   0.194666 0.486193 0.988901 -0.191783
C5    C     C_R   0.098384 0.494189 0.924579 0.102305
C6    C     C_R   0.001071 0.502283 0.953216 0.061906
C7    C     C_R   0.903778 0.510362 0.888934 0.103953
C8    C     C_R   0.807662 0.518707 0.917988 -0.179973
C9    C     C_R   0.807734 0.518864 0.010488 -0.201933
C10   C     C_R   0.097702 0.494155 0.832052 -0.206823
C11   C     C_R   0.000671 0.501284 0.768017 -0.070713
C12   C     C_R   0.000198 0.500286 0.671169 0.819969
C13   C     C_R   0.904185 0.509704 0.796686 -0.227241
C14   C     C_R   0.284596 0.009416 0.355783 -0.196980
C15   C     C_R   0.228065 0.834234 0.464235 -0.059113
C16   C     C_R   0.812123 0.089103 0.582893 -0.240429
C17   C     C_R   0.737024 0.973682 0.601966 0.208664
C18   C     C_R   0.615451 0.929439 0.560601 0.100544
C19   C     C_R   0.567742 0.005450 0.502454 -0.007583
C20   C     C_R   0.651771 0.120170 0.474276 0.056812
C21   C     C_R   0.441698 0.972594 0.468097 0.102788
C22   C     C_R   0.407181 0.044009 0.393908 0.164957
C23   C     C_R   0.145284 0.713409 0.486712 0.809245
C24   C     C_R   0.495058 0.149132 0.358516 -0.234507
C25   C     C_R   0.615071 0.187534 0.398836 -0.170344
C26   C     C_R   0.347646 0.874019 0.507715 -0.206091
C27   C     C_R   0.195915 0.903446 0.389215 -0.172744
C28   C     C_R   0.772053 0.163381 0.519859 -0.143536
C29   C     C_R   0.352320 0.332146 0.647928 -0.296462
C30   C     C_R   0.758459 0.644355 0.373838 0.630999
C31   C     C_R   0.657692 0.670764 0.343834 -0.334679
C32   C     C_R   0.553358 0.613097 0.388808 -0.215053
C33   C     C_R   0.547660 0.528507 0.465590 0.025601
C34   C     C_R   0.000242 0.500507 0.328753 0.808146
C35   C     C_R   0.651808 0.503057 0.493640 0.213723
C36   C     C_R   0.443850 0.469810 0.516715 0.004161
C37   C     C_R   0.447770 0.387454 0.593907 0.139138
C38   C     C_R   0.547758 0.361216 0.618313 -0.259382
C39   C     C_R   0.647425 0.417751 0.569322 -0.161055
C40   C     C_R   0.337436 0.491190 0.496960 0.017185
C41   C     C_R   0.252896 0.358678 0.627742 0.350773
C42   C     C_R   0.904385 0.510211 0.167501 -0.231636
C43   C     C_R   0.000554 0.501265 0.231692 -0.071155
C44   C     C_R   0.097137 0.493162 0.202933 -0.240416
C45   C     C_R   0.098125 0.493729 0.110549 0.108748
C46   C     C_R   0.001032 0.502230 0.046245 0.067160
Cu1   Cu    Cu3+1 0.098270 0.475420 0.521130 0.981973
Cu2   Cu    Cu3+1 0.901730 0.524580 0.478870 0.982033
H1    H     H_    0.829515 0.516311 0.189511 0.163776
H2    H     H_    0.470414 0.203307 0.300633 0.142264
H3    H     H_    0.258153 0.062676 0.298165 0.141304
H4    H     H_    0.364955 0.826949 0.572949 0.175824
H5    H     H_    0.903910 0.120391 0.617202 0.212966
H6    H     H_    0.679465 0.269154 0.367582 0.163488
H7    H     H_    0.549949 0.297139 0.677108 0.154776
H8    H     H_    0.355754 0.269012 0.707134 0.165351
H9    H     H_    0.171910 0.486824 0.252275 0.152119
H10   H     H_    0.326799 0.551753 0.438794 0.137253
H11   H     H_    0.479013 0.637168 0.362533 0.160469
H12   H     H_    0.659831 0.736143 0.285246 0.148883
H13   H     H_    0.719697 0.392233 0.594114 0.203344
H14   H     H_    0.269596 0.479435 0.130207 0.143457
H15   H     H_    0.269879 0.479956 0.967656 0.153037
H16   H     H_    0.173066 0.488955 0.810039 0.178837
H17   H     H_    0.829026 0.515282 0.747424 0.169987
H18   H     H_    0.732511 0.525040 0.869205 0.163148
H19   H     H_    0.732631 0.525317 0.031696 0.147703
H20   H     H_    0.103617 0.874101 0.354624 0.183941
N1    N     N_R   0.246280 0.438190 0.553160 -0.194274
N2    N     N_R   0.754320 0.561190 0.447410 -0.219659
O1    O     O_R   0.972510 0.318130 0.526570 -0.556312
O2    O     O_R   0.806530 0.359650 0.490890 -0.616671
O3    O     O_R   0.082980 0.479210 0.647590 -0.558517
O4    O     O_R   0.917000 0.520730 0.611900 -0.607723
O5    O     O_R   0.193470 0.640350 0.509110 -0.569144
O6    O     O_R   0.027490 0.681870 0.473430 -0.528056
O7    O     O_R   0.083000 0.479270 0.388100 -0.600432
O8    O     O_R   0.917020 0.520790 0.352410 -0.548880
I1    I     I_    0.528460 0.747864 0.568114 -0.381940
I2    I     I_    0.818590 0.873527 0.695398 -0.309668
I3    I     I_    0.119845 0.266610 0.720611 -0.376914
O9    O     O_3   0.862069 0.700651 0.329300 -0.715807
H21   H     H_    0.850737 0.757789 0.277652 0.289577

loop_
_geom_bond_atom_site_label_1
_geom_bond_atom_site_label_2
_ccdc_geom_bond_type
C16   C28   A    
C21   C26   A    
C8    H18   S    
C12   O4    A    
Cu2   O6    S    
C19   C20   A    
C23   O6    A    
C7    C8    A    
C13   H17   S    
C45   C46   A    
C2    C46   A    
C4    H15   S    
C1    O1    A    
C5    C6    A    
C36   C37   A    
C19   C21   A    
C34   O7    A    
C30   C31   A    
C20   C25   A    
C33   C36   A    
C18   C19   A    
Cu2   O8    S    
C16   H5    S    
Cu1   N1    S    
C27   H20   S    
C38   H7    S    
Cu1   Cu2   S    
C35   N2    A    
C8    C9    A    
C1    C28   S    
C14   C27   A    
C15   C23   S    
C21   C22   A    
C18   I1    S    
Cu2   O2    S    
C30   N2    A    
C24   H2    S    
C39   H13   S    
C1    O2    A    
C40   H10   S    
C40   N1    A    
Cu2   O4    S    
C36   C40   A    
C25   H6    S    
Cu1   O3    S    
Cu2   N2    S    
C16   C17   A    
C15   C26   A    
C20   C28   A    
C3    C45   A    
C17   I2    S    
C31   H12   S    
C30   O9    S    
C35   C39   A    
C43   C44   A    
C9    H19   S    
C37   C38   A    
C26   H4    S    
C15   C27   A    
C31   C32   A    
C44   H9    S    
C41   I3    S    
C17   C18   A    
C24   C25   A    
Cu1   O1    S    
C22   C24   A    
C42   C43   A    
Cu1   O7    S    
C3    C4    A    
C44   C45   A    
C41   N1    A    
C3    H14   S    
C6    C46   A    
C29   C41   A    
C10   H16   S    
C34   C43   S    
C23   O5    A    
C4    C5    A    
C11   C12   S    
C6    C7    A    
C29   H8    S    
C32   C33   A    
C14   C22   A    
Cu1   O5    S    
C5    C10   A    
C34   O8    A    
C11   C13   A    
C38   C39   A    
C2    C42   A    
C33   C35   A    
C10   C11   A    
C42   H1    S    
C7    C13   A    
C14   H3    S    
O9    H21   S    
C29   C37   A    
C32   H11   S    
C12   O3    A    
C2    C9    A    
