data_mof_unit_22625.cif
_audit_creation_date              2012-12-11T16:53:49-0500
_audit_creation_method            fapswitch 2.2
_symmetry_space_group_name_H-M    P1
_symmetry_Int_Tables_number       1
_space_group_crystal_system       triclinic
_cell_length_a                    14.78966
_cell_length_b                    15.121081
_cell_length_c                    17.11875
_cell_angle_alpha                 109.010445
_cell_angle_beta                  105.973464
_cell_angle_gamma                 107.940439
_cell_volume                      3129.10287882

loop_
_atom_site_label
_atom_site_type_symbol
_atom_type_description
_atom_site_fract_x
_atom_site_fract_y
_atom_site_fract_z
_atom_type_partial_charge
C1    C     C_R   0.094737 0.283699 0.058967 0.513064
C2    C     C_R   0.060684 0.523561 0.264460 0.501674
C3    C     C_R   0.265291 0.792641 0.187649 0.622945
C4    C     C_R   0.938036 0.529389 0.752731 -0.216533
C5    C     C_R   0.739899 0.465269 0.049832 -0.132764
C6    C     C_R   0.319470 0.790287 0.267735 -0.074100
C7    C     C_R   0.704869 0.535015 0.032507 0.138724
C8    C     C_R   0.969727 0.471983 0.271858 -0.185611
C9    C     C_R   0.991215 0.813585 0.971442 -0.013407
C10   C     C_R   0.538579 0.673960 0.070432 0.027970
C11   C     C_R   0.479877 0.617189 0.104052 -0.266455
C12   C     C_R   0.030565 0.585479 0.750106 -0.110023
C13   C     C_R   0.528729 0.573577 0.153235 0.528693
C14   C     C_R   0.598196 0.539761 0.126216 0.471233
C15   C     C_R   0.642905 0.578275 0.073215 -0.210716
C16   C     C_R   0.715763 0.222642 0.827033 -0.150962
C17   C     C_R   0.620618 0.656106 0.056975 0.037161
C18   C     C_3   0.599948 0.676293 0.975307 -0.614064
C19   C     C_3   0.510319 0.695904 0.990329 0.545001
C20   C     C_R   0.959014 0.492896 0.357786 -0.181474
C21   C     C_R   0.040618 0.629534 0.686663 -0.031658
C22   C     C_R   0.143984 0.643510 0.602042 -0.370129
C23   C     C_R   0.660630 0.225037 0.748250 -0.170365
C24   C     C_R   0.137783 0.676726 0.685507 0.682611
C25   C     C_R   0.950626 0.596719 0.610519 -0.267077
C26   C     C_R   0.955756 0.572397 0.527048 0.085792
C27   C     C_R   0.051703 0.581721 0.521434 -0.081574
C28   C     C_R   0.305171 0.607604 0.016948 -0.260300
C29   C     C_R   0.050509 0.529671 0.436191 0.576685
C30   C     C_R   0.864605 0.489299 0.363884 0.565623
C31   C     C_R   0.864193 0.528426 0.449429 -0.418008
C32   C     C_R   0.555719 0.147339 0.678316 0.156110
C33   C     C_R   0.393211 0.880304 0.356564 -0.249458
C34   C     C_R   0.365915 0.579847 0.070883 -0.049980
C35   C     C_R   0.478039 0.068076 0.437687 -0.414637
C36   C     C_R   0.446477 0.977908 0.360169 0.642116
C37   C     C_R   0.398127 0.874388 0.438623 0.502370
C38   C     C_R   0.436032 0.965688 0.517987 0.003482
C39   C     C_R   0.472756 0.062369 0.516150 0.011764
C40   C     C_R   0.728820 0.310672 0.746652 0.619639
C41   C     C_R   0.518564 0.152890 0.596523 -0.170958
C42   C     C_R   0.507673 0.053656 0.681582 -0.201981
C43   C     C_R   0.443447 0.963121 0.600838 -0.166580
C44   C     C_R   0.148039 0.096020 0.017240 0.024084
C45   C     C_R   0.270400 0.689717 0.253927 -0.136630
C46   C     C_R   0.046720 0.090094 0.976121 0.092319
C47   C     C_R   0.973172 0.993718 0.900517 -0.188500
C48   C     C_R   0.006722 0.924656 0.852562 -0.226715
C49   C     C_R   0.112564 0.945035 0.884476 0.019206
C50   C     C_R   0.179119 0.024774 0.971478 0.044530
C51   C     C_3   0.290685 0.101448 0.010439 0.225035
C52   C     C_R   0.297094 0.498360 0.077024 0.702702
C53   C     C_3   0.259769 0.179581 0.066128 0.325298
C54   C     C_R   0.109484 0.592362 0.820623 0.584144
C55   C     C_R   0.928760 0.193317 0.961136 0.530449
C56   C     C_R   0.742598 0.558141 0.971810 -0.130897
C57   C     C_R   0.021517 0.182470 0.000121 -0.261862
C58   C     C_3   0.191990 0.386323 0.212906 -0.109928
C59   C     C_3   0.818225 0.250787 0.168916 -0.209558
C60   C     C_3   0.218582 0.819089 0.972402 -0.109699
C61   C     C_3   0.106937 0.696102 0.341097 -0.192715
C62   C     C_3   0.196919 0.907477 0.224193 -0.188156
C63   C     C_3   0.506393 0.621559 0.284094 -0.328496
C64   C     C_3   0.528942 0.364156 0.069051 -0.242006
C65   C     C_3   0.488610 0.817161 0.943049 -0.249943
C66   C     C_3   0.223342 0.552951 0.462638 -0.144423
C67   C     C_R   0.891838 0.414844 0.183661 0.561389
C68   C     C_3   0.690785 0.372025 0.284612 -0.007874
C69   C     C_3   0.265223 0.843487 0.767860 -0.331557
C70   C     C_3   0.535864 0.949683 0.272856 -0.257617
C71   C     C_3   0.455512 0.760592 0.467177 -0.362222
C72   C     C_3   0.369187 0.063651 0.132429 0.137338
C73   C     C_3   0.392911 0.300919 0.207610 -0.122180
C74   C     C_3   0.748777 0.301113 0.618936 -0.370172
C75   C     C_3   0.272159 0.353346 0.959753 -0.383653
C76   C     C_3   0.224347 0.538937 0.782837 -0.240325
C77   C     C_3   0.856902 0.110244 0.806944 -0.291312
C78   C     C_R   0.079121 0.800417 0.008295 0.589828
C79   C     C_R   0.908421 0.717351 0.936620 -0.276129
H1    H     H_    0.792337 0.525272 0.455455 0.157061
H2    H     H_    0.743302 0.179557 0.135763 0.165980
H3    H     H_    0.166598 0.788351 0.899858 0.150722
H4    H     H_    0.233358 0.759357 0.989902 0.138412
H5    H     H_    0.294652 0.875713 0.983372 0.184273
H6    H     H_    0.829413 0.695163 0.891647 0.141285
H7    H     H_    0.049051 0.686930 0.371179 0.114173
H8    H     H_    0.073546 0.698430 0.275405 0.122370
H9    H     H_    0.174611 0.772618 0.388584 0.179846
H10   H     H_    0.231984 0.933490 0.298700 0.117821
H11   H     H_    0.117530 0.841753 0.192617 0.098971
H12   H     H_    0.268554 0.243098 0.047620 0.121606
H13   H     H_    0.187307 0.973243 0.213764 0.172067
H14   H     H_    0.731067 0.433171 0.095616 0.232726
H15   H     H_    0.476923 0.591055 0.327411 0.163282
H16   H     H_    0.462749 0.665118 0.265612 0.136202
H17   H     H_    0.591270 0.674718 0.324815 0.147065
H18   H     H_    0.548157 0.299532 0.071320 0.172915
H19   H     H_    0.519475 0.361150 0.001221 0.115583
H20   H     H_    0.453900 0.349670 0.075102 0.191019
H21   H     H_    0.665348 0.746515 0.986185 0.219507
H22   H     H_    0.860935 0.519049 0.714729 0.183582
H23   H     H_    0.296548 0.653038 0.293860 0.205896
H24   H     H_    0.571343 0.605731 0.910684 0.153357
H25   H     H_    0.401869 0.776522 0.911221 0.210090
H26   H     H_    0.520196 0.791684 0.892245 0.140405
H27   H     H_    0.511534 0.901528 0.965982 0.174519
H28   H     H_    0.432655 0.637407 0.934451 0.021738
H29   H     H_    0.267566 0.550540 0.525230 0.120731
H30   H     H_    0.237562 0.634259 0.476673 0.193407
H31   H     H_    0.255503 0.526500 0.412916 0.146409
H32   H     H_    0.646396 0.406238 0.317219 0.102730
H33   H     H_    0.716205 0.325272 0.316657 0.058245
H34   H     H_    0.117999 0.361333 0.221865 0.111735
H35   H     H_    0.636769 0.316617 0.213022 0.169492
H36   H     H_    0.220768 0.669072 0.603349 0.140868
H37   H     H_    0.203029 0.870495 0.754610 0.141732
H38   H     H_    0.301711 0.844288 0.719189 0.147776
H39   H     H_    0.326822 0.899995 0.837085 0.185809
H40   H     H_    0.874918 0.575357 0.612959 0.141447
H41   H     H_    0.540933 0.226168 0.593586 0.183364
H42   H     H_    0.684652 0.172689 0.855455 0.170339
H43   H     H_    0.527110 0.047731 0.744781 0.121800
H44   H     H_    0.513277 0.142809 0.438236 0.173487
H45   H     H_    0.216796 0.464148 0.214641 0.109299
H46   H     H_    0.410444 0.890585 0.604288 0.153458
H47   H     H_    0.503053 0.864037 0.248517 0.144200
H48   H     H_    0.610100 0.989660 0.335449 0.121198
H49   H     H_    0.554949 0.965801 0.219153 0.191321
H50   H     H_    0.507750 0.810274 0.540581 0.159694
H51   H     H_    0.500884 0.772383 0.426291 0.136671
H52   H     H_    0.428646 0.678403 0.455155 0.161104
H53   H     H_    0.891143 0.975142 0.872557 0.187034
H54   H     H_    0.951117 0.857537 0.788658 0.138014
H55   H     H_    0.293257 0.045100 0.137611 0.202018
H56   H     H_    0.253667 0.392777 0.271648 0.148285
H57   H     H_    0.431659 0.134324 0.193837 0.098926
H58   H     H_    0.391015 0.999964 0.132687 0.176341
H59   H     H_    0.308025 0.121242 0.957394 0.014805
H60   H     H_    0.381640 0.367640 0.201054 0.237201
H61   H     H_    0.452876 0.289419 0.183865 0.114358
H62   H     H_    0.422916 0.320473 0.280907 0.122363
H63   H     H_    0.332723 0.675493 0.006329 0.183027
H64   H     H_    0.703227 0.215111 0.581419 0.158088
H65   H     H_    0.833015 0.320558 0.652411 0.159421
H66   H     H_    0.739901 0.332210 0.568292 0.185060
H67   H     H_    0.732610 0.610557 0.944463 0.120902
H68   H     H_    0.307858 0.403349 0.930750 0.156302
H69   H     H_    0.185395 0.319007 0.925699 0.153962
H70   H     H_    0.295069 0.288752 0.942568 0.139308
H71   H     H_    0.170756 0.504532 0.709692 0.136864
H72   H     H_    0.211480 0.478336 0.807318 0.127491
H73   H     H_    0.305037 0.566403 0.787182 0.158240
H74   H     H_    0.913132 0.077497 0.799247 0.138373
H75   H     H_    0.886928 0.186911 0.806308 0.138418
H76   H     H_    0.781606 0.058181 0.746167 0.174805
H77   H     H_    0.850299 0.273204 0.242941 0.144474
H78   H     H_    0.871950 0.231020 0.139536 0.119694
N1    N     N_R   0.055640 0.348550 0.045600 -0.151845
N2    N     N_R   0.811290 0.303400 0.871650 -0.069470
N3    N     N_R   0.205180 0.552990 0.997660 -0.079542
N4    N     N_R   0.814810 0.361830 0.823710 -0.099492
N5    N     N_R   0.201660 0.494570 0.045600 -0.122737
N6    N     N_R   0.068420 0.560530 0.871650 -0.110107
N7    N     N_R   0.948050 0.295860 0.997660 -0.126103
N8    N     N_R   0.185190 0.638170 0.176290 -0.094158
N9    N     N_R   0.798340 0.505430 0.954400 -0.045941
N10   N     N_R   0.931580 0.439470 0.128350 -0.140683
N11   N     N_R   0.051950 0.704140 0.002340 -0.116158
N12   N     N_R   0.944360 0.651450 0.954400 -0.063514
N13   N     N_R   0.039170 0.492150 0.176290 -0.145538
N14   N     N_R   0.188710 0.696600 0.128350 -0.124730
N15   N     N_R   0.794820 0.447010 0.002340 -0.055190
N16   N     N_R   0.960830 0.507850 0.823710 -0.067952
Ni1   Ni    Ni4+2 0.119330 0.493420 0.109950 0.169768
Ni2   Ni    Ni4+2 0.880670 0.506580 0.890050 0.211185
Ni3   Ni    Ni4+2 0.872590 0.372590 0.000000 0.215892
Ni4   Ni    Ni4+2 0.127410 0.627410 0.000000 0.195208
O1    O     O_3   0.184388 0.312822 0.132685 -0.589326
O2    O     O_3   0.774550 0.450992 0.286364 -0.565870
O3    O     O_3   0.226751 0.744300 0.765137 -0.602637
O4    O     O_3   0.462873 0.987722 0.287058 -0.604092
O5    O     O_3   0.367086 0.780285 0.442191 -0.601281
O6    O     O_3   0.368457 0.074586 0.053395 -0.654819
O7    O     O_3   0.297704 0.209781 0.160675 -0.590468
O8    O     O_3   0.711679 0.345919 0.681849 -0.644374
O9    O     O_3   0.308253 0.407373 0.055716 -0.605690
O10   O     O_3   0.213616 0.624146 0.837837 -0.622950
O11   O     O_3   0.839495 0.116514 0.885639 -0.617780
O12   O     O_3   0.797987 0.329449 0.151845 -0.601705
O13   O     O_3   0.178067 0.868874 0.028334 -0.638937
O14   O     O_3   0.141767 0.617421 0.331034 -0.607882
O15   O     O_3   0.262452 0.881258 0.183785 -0.581271
O16   O     O_3   0.489670 0.536680 0.206743 -0.585762
O17   O     O_3   0.609484 0.459249 0.142206 -0.578073
O18   O     O_3   0.529706 0.801386 0.019273 -0.611166
O19   O     O_3   0.117049 0.482528 0.426212 -0.624969

loop_
_geom_bond_atom_site_label_1
_geom_bond_atom_site_label_2
_ccdc_geom_bond_type
C70   H48   S    
N8    N14   A    
C74   H64   S    
C69   H37   S    
N9    N15   A    
C6    C45   A    
C27   C29   A    
C11   C13   A    
C74   H66   S    
C35   C36   A    
C78   O13   S    
C3    C6    A    
C43   H46   S    
C31   H1    S    
C39   C41   A    
C20   C30   A    
C19   O18   S    
C63   H15   S    
C26   C27   A    
C8    C20   S    
C52   O9    S    
C1    N1    A    
C55   N7    A    
C51   O6    S    
C69   O3    S    
C68   H33   S    
C30   C31   A    
N4    Ni2   S    
C60   H4    S    
C72   H57   S    
C76   H73   S    
C10   C17   A    
C70   H49   S    
N11   Ni4   S    
C62   H10   S    
C63   H16   S    
C69   H39   S    
C28   N3    A    
C33   C36   A    
C18   C19   S    
C9    C79   A    
C45   H23   S    
C69   H38   S    
C72   H55   S    
C74   H65   S    
C34   C52   A    
C61   H8    S    
C77   H74   S    
C60   H3    S    
C44   C53   S    
N1    Ni1   S    
C64   H20   S    
C59   H78   S    
C64   O17   S    
N6    Ni4   S    
C58   H34   S    
C30   O2    S    
C63   O16   S    
C54   N6    A    
C4    C12   A    
N1    N7    A    
C18   H24   S    
C74   O8    S    
C5    H14   S    
C70   H47   S    
C64   H19   S    
C14   O17   S    
C28   C34   A    
C26   C31   A    
C41   H41   S    
C13   O16   S    
C13   C14   A    
C16   N2    A    
C71   O5    S    
C18   H21   S    
C7    C56   A    
C25   H40   S    
C65   H26   S    
C44   C46   A    
C50   C51   S    
N10   N13   A    
C20   C29   A    
N16   Ni2   S    
N12   Ni2   S    
C68   H35   S    
C48   H54   S    
C2    O14   S    
C10   C11   A    
C53   O7    S    
C5    C7    A    
C73   O7    S    
C73   H62   S    
C40   O8    S    
C73   H60   S    
C76   H72   S    
C75   H68   S    
C25   C26   A    
C12   C21   S    
C33   C37   A    
C62   H13   S    
C51   C53   S    
C68   H32   S    
N3    N5    A    
C35   C39   A    
C16   H42   S    
C24   O3    S    
C37   C38   A    
C61   H9    S    
C1    C57   A    
C77   H75   S    
C71   H50   S    
C1    O1    S    
C70   O4    S    
C66   O19   S    
C47   C48   A    
C76   H71   S    
C10   C19   S    
C32   C41   A    
C4    H22   S    
N2    N4    A    
C17   C18   S    
N9    Ni2   S    
C58   O1    S    
C55   O11   S    
C66   H31   S    
C62   H11   S    
C76   O10   S    
C2    N13   A    
C53   H12   S    
C72   H58   S    
C16   C23   A    
C54   O10   S    
C55   C57   A    
C46   C57   S    
C22   C27   A    
C58   H56   S    
C22   C24   A    
C59   O12   S    
C75   O9    S    
C28   H63   S    
C42   C43   A    
N6    N16   A    
C65   H27   S    
C79   H6    S    
C4    N16   A    
C42   H43   S    
N13   Ni1   S    
C44   C50   A    
C15   C17   A    
C21   C25   A    
C46   C47   A    
N11   N12   A    
C58   H45   S    
C64   H18   S    
C11   C34   S    
C2    C8    A    
C59   H2    S    
C72   O6    S    
C66   H29   S    
C62   O15   S    
C59   H77   S    
C67   O12   S    
N5    Ni1   S    
C73   H61   S    
C75   H69   S    
C29   O19   S    
C68   O2    S    
C78   N11   A    
C6    C33   S    
C47   H53   S    
N2    Ni3   S    
C23   C32   S    
C79   N12   A    
C35   H44   S    
N8    Ni1   S    
C38   C43   A    
C3    O15   S    
C77   H76   S    
C71   H51   S    
C67   N10   A    
C60   H5    S    
C3    N14   A    
C38   C39   A    
C22   H36   S    
C75   H70   S    
C48   C49   A    
C37   O5    S    
C63   H17   S    
C7    C15   S    
C5    N15   A    
N7    Ni3   S    
C9    C78   A    
C66   H30   S    
C56   H67   S    
N3    Ni4   S    
C61   H7    S    
C71   H52   S    
C51   H59   S    
N15   Ni3   S    
C40   N4    A    
C8    C67   A    
C60   O13   S    
C49   C50   A    
C21   C24   A    
C56   N9    A    
C61   O14   S    
C77   O11   S    
C32   C42   A    
C14   C15   A    
N14   Ni4   S    
C36   O4    S    
C65   H25   S    
C45   N8    A    
C12   C54   A    
C23   C40   A    
C52   N5    A    
N10   Ni3   S    
C65   O18   S    
C19   H28   S    
