data_mof_unit_29822.cif
_audit_creation_date              2013-03-05T15:58:55-0500
_audit_creation_method            fapswitch 2.2
_symmetry_space_group_name_H-M    P1
_symmetry_Int_Tables_number       1
_space_group_crystal_system       triclinic
_cell_length_a                    10.999723
_cell_length_b                    12.743063
_cell_length_c                    13.479638
_cell_angle_alpha                 84.030084
_cell_angle_beta                  96.625906
_cell_angle_gamma                 101.634615
_cell_volume                      1831.92049817

loop_
_atom_site_label
_atom_site_type_symbol
_atom_site_description
_atom_site_fract_x
_atom_site_fract_y
_atom_site_fract_z
_atom_type_partial_charge
O1    O     O_R   0.468120 0.366740 0.627160 -0.616273
O2    O     O_R   0.510770 0.544830 0.662520 -0.563447
C1    C     C_R   0.483818 0.440725 0.690502 0.954001
O3    O     O_R   0.663880 0.410950 0.482330 -0.562657
O4    O     O_R   0.706530 0.589040 0.517700 -0.544979
C2    C     C_R   0.742308 0.500409 0.497836 1.017241
Zn1   Zn    Zn3+2 0.471520 0.381090 0.476390 0.987709
Zn2   Zn    Zn3+2 0.528480 0.618910 0.523610 1.032955
O5    O     O_R   0.489230 0.455170 0.337480 -0.637701
O6    O     O_R   0.531880 0.633260 0.372840 -0.630679
O7    O     O_R   0.293470 0.410960 0.482300 -0.633594
O8    O     O_R   0.336120 0.589050 0.517670 -0.662275
C3    C     C_R   0.516590 0.559018 0.309534 0.902155
C4    C     C_R   0.258599 0.500199 0.501707 0.843988
C5    C     C_3   0.918512 0.388136 0.558739 0.494378
C6    C     C_3   0.064787 0.411377 0.575327 -0.535312
H1    H     H_    0.095965 0.435409 0.652035 0.193653
H2    H     H_    0.105514 0.338631 0.574994 0.248080
H3    H     H_    0.071231 0.412467 0.373514 0.200207
C7    C     C_3   0.920160 0.502306 0.384495 0.372416
C8    C     C_3   0.958628 0.601492 0.557574 0.410294
C9    C     C_3   0.880080 0.498495 0.498454 -0.383239
C10   C     C_3   0.123399 0.504844 0.501933 -0.062095
C11   C     C_3   0.060957 0.492204 0.394264 -0.423605
C12   C     C_3   0.100412 0.611295 0.542244 -0.142688
H4    H     H_    0.153849 0.615583 0.615607 0.208840
H5    H     H_    0.116972 0.549693 0.341766 0.196968
C13   C     C_R   0.555690 0.730097 0.059817 0.368420
C14   C     C_R   0.528692 0.592998 0.201777 -0.068403
C15   C     C_R   0.504350 0.302944 0.838004 0.176395
C16   C     C_R   0.557073 0.290243 0.938025 0.193187
C17   C     C_R   0.564688 0.372048 0.000655 -0.137599
C18   C     C_R   0.516228 0.464643 0.967015 0.038219
C19   C     C_R   0.470212 0.481978 0.866689 0.040210
C20   C     C_R   0.514542 0.542110 0.033086 0.006913
C21   C     C_R   0.509109 0.647398 0.996008 -0.145709
C22   C     C_R   0.446376 0.662617 0.900396 0.377727
C23   C     C_R   0.414970 0.574516 0.840185 0.111845
C24   C     C_R   0.491630 0.513865 0.132156 0.069346
C25   C     C_R   0.576500 0.701919 0.164229 -0.001208
C26   C     C_R   0.477963 0.405666 0.798895 -0.142664
H6    H     H_    0.607122 0.363025 0.076987 0.172325
C27   C     C_R   0.368118 0.115134 0.310304 0.287707
N1    N     N_R   0.433240 0.222190 0.444680 -0.132942
C28   C     C_R   0.648018 0.806737 0.637052 0.470528
C29   C     C_R   0.685031 0.915277 0.656425 0.043374
C30   C     C_R   0.636151 0.991905 0.594083 -0.173480
C31   C     C_R   0.547005 0.965701 0.513351 -0.002334
C32   C     C_R   0.515388 0.856057 0.487403 0.116307
C33   C     C_R   0.490658 0.048791 0.458797 -0.047802
C34   C     C_R   0.425211 0.032810 0.363869 -0.115728
C35   C     C_R   0.404145 0.932374 0.327705 0.250561
C36   C     C_R   0.434887 0.841498 0.390002 0.026196
C37   C     C_R   0.497734 0.150365 0.495142 0.036520
C38   C     C_R   0.354235 0.199028 0.362293 0.159744
N2    N     N_R   0.566070 0.776970 0.554790 -0.191525
H7    H     H_    0.549269 0.174005 0.564337 0.161779
H8    H     H_    0.673104 0.074031 0.609818 0.201691
N3    N     N_R   0.877205 0.290757 0.502276 0.206444
O9    O     O_R   0.956029 0.235989 0.478259 -0.422299
O10   O     O_R   0.759922 0.247102 0.489350 -0.386394
C39   C     C_3   0.157355 0.721102 0.489224 -0.711959
H9    H     H_    0.115061 0.732315 0.412001 0.296650
H10   H     H_    0.146537 0.789156 0.529357 0.278577
H11   H     H_    0.258648 0.737533 0.495611 0.248236
N4    N     N_R   0.900179 0.601434 0.323489 0.256965
O11   O     O_R   0.785979 0.611412 0.295378 -0.419246
O12   O     O_R   0.986021 0.660097 0.271766 -0.353780
C40   C     C_3   0.650267 0.788425 0.228956 -0.562734
H12   H     H_    0.682536 0.759776 0.305228 0.293077
H13   H     H_    0.736611 0.827536 0.194179 0.267692
H14   H     H_    0.594880 0.850478 0.235280 0.237355
N5    N     N_R   0.400202 0.760137 0.870037 0.231271
O13   O     O_R   0.419066 0.810528 0.782511 -0.372391
O14   O     O_R   0.337658 0.798108 0.929550 -0.289099
N6    N     N_R   0.598611 0.837768 0.017037 0.238710
O15   O     O_R   0.659746 0.852735 0.938245 -0.362160
O16   O     O_R   0.578771 0.921084 0.056131 -0.331683
C41   C     C_3   0.396688 0.411909 0.152543 -0.771124
H15   H     H_    0.319681 0.433573 0.187098 0.221673
H16   H     H_    0.350359 0.375193 0.083393 0.260880
H17   H     H_    0.441017 0.350092 0.198566 0.274909
C42   C     C_3   0.478148 0.207724 0.774833 -0.762184
H18   H     H_    0.465593 0.129604 0.820604 0.255247
H19   H     H_    0.388589 0.205517 0.727021 0.249845
H20   H     H_    0.556279 0.211343 0.728980 0.265255
C43   C     C_3   0.612362 0.193059 0.977570 -0.643311
H21   H     H_    0.679780 0.180574 0.926656 0.243048
H22   H     H_    0.663307 0.202738 0.053182 0.244434
H23   H     H_    0.537629 0.120547 0.983273 0.300828
N7    N     N_R   0.866647 0.359417 0.657114 0.229655
O17   O     O_R   0.746592 0.336486 0.661332 -0.378758
O18   O     O_R   0.936091 0.332621 0.736974 -0.360105
C44   C     C_3   0.311601 0.575701 0.758674 -0.782152
H24   H     H_    0.341591 0.639199 0.699125 0.286283
H25   H     H_    0.281761 0.496927 0.727281 0.186843
H26   H     H_    0.230289 0.592724 0.790823 0.283116
C45   C     C_3   0.245990 0.255441 0.336628 -0.755337
H27   H     H_    0.277837 0.342425 0.324392 0.248209
H28   H     H_    0.184061 0.227518 0.270327 0.263060
H29   H     H_    0.187627 0.239100 0.400411 0.267472
N8    N     N_R   0.326337 0.918018 0.233771 0.230191
O19   O     O_R   0.373441 0.902194 0.153776 -0.275383
O20   O     O_R   0.206494 0.912841 0.230891 -0.303563
N9    N     N_R   0.353138 0.127004 0.202567 0.226748
O21   O     O_R   0.449980 0.134340 0.153594 -0.385240
O22   O     O_R   0.245141 0.130481 0.152960 -0.320991
N10   N     N_R   0.698843 0.728602 0.703948 0.235744
O23   O     O_R   0.818893 0.740242 0.720129 -0.262449
O24   O     O_R   0.636767 0.684483 0.778008 -0.370164
C46   C     C_3   0.776567 0.955271 0.743320 -0.577105
H30   H     H_    0.800933 0.891219 0.799058 0.302519
H31   H     H_    0.863726 0.001812 0.714270 0.247212
H32   H     H_    0.736035 0.009227 0.784264 0.237880
C47   C     C_3   0.362574 0.742607 0.338599 -0.712071
H33   H     H_    0.263976 0.747741 0.317769 0.236902
H34   H     H_    0.399316 0.738033 0.266746 0.240554
H35   H     H_    0.347126 0.664592 0.373945 0.252554
C48   C     C_3   0.844497 0.411715 0.318618 -0.722883
H36   H     H_    0.877348 0.334795 0.327982 0.262468
H37   H     H_    0.743282 0.396713 0.326213 0.259816
H38   H     H_    0.854534 0.437112 0.237982 0.236822
N11   N     N_R   0.921597 0.708136 0.526924 0.238672
O25   O     O_R   0.958720 0.786122 0.585079 -0.307980
O26   O     O_R   0.871487 0.734132 0.438409 -0.345857
N12   N     N_R   0.942369 0.580461 0.666611 0.207453
O27   O     O_R   0.024627 0.630218 0.731841 -0.323282
O28   O     O_R   0.831494 0.545128 0.695406 -0.293524

loop_
_geom_bond_atom_site_label_1
_geom_bond_atom_site_label_2
_geom_bond_distance
_ccdc_geom_bond_type
N4    O12   1.302046 A    
C43   H21   1.110855 S    
N12   O27   1.301851 A    
N5    O13   1.300970 A    
C46   H30   1.103062 S    
C11   H5    1.108076 S    
Zn2   N2    2.050505 S    
C41   H17   1.107523 S    
N11   O25   1.301300 A    
C28   C29   1.403741 A    
Zn1   O7    2.080852 S    
N9    O22   1.300791 A    
C35   N8    1.450576 S    
C33   C37   1.415607 A    
C42   H18   1.107775 S    
C3    C14   1.485124 S    
C21   C22   1.404123 A    
C22   C23   1.416645 A    
N6    O16   1.299586 A    
C40   H12   1.098315 S    
C15   C16   1.411500 A    
O7    C4    1.330309 A    
N11   O26   1.294917 A    
C13   C25   1.419816 A    
C47   H33   1.101770 S    
C2    C9    1.519606 S    
N10   O23   1.294059 A    
C14   C25   1.442262 A    
C27   N9    1.438136 S    
C15   C42   1.515828 S    
C40   H13   1.110593 S    
O5    C3    1.321189 A    
C39   H10   1.101347 S    
C5    C9    1.655158 S    
C30   C31   1.398054 A    
C28   N2    1.380183 A    
C6    H1    1.105546 S    
C47   H34   1.102907 S    
C10   C11   1.542092 S    
C15   C26   1.431784 A    
C28   N10   1.427746 S    
C44   H25   1.103579 S    
C31   C33   1.429540 A    
N4    O11   1.297028 A    
N3    O9    1.303645 A    
C19   C23   1.427838 A    
C29   C46   1.513450 S    
N5    O14   1.301282 A    
C14   C24   1.416519 A    
N8    O19   1.299290 A    
C19   C26   1.422769 A    
O3    Zn1   2.066582 S    
C33   C34   1.406966 A    
C48   H37   1.105868 S    
N3    O10   1.297291 A    
C16   C43   1.509756 S    
C25   C40   1.520115 S    
C34   C35   1.383287 A    
C7    C11   1.569173 S    
N6    O15   1.299065 A    
O3    C2    1.303367 A    
N7    O17   1.300289 A    
C41   H16   1.110132 S    
C44   H26   1.105480 S    
C12   H4    1.091135 S    
O1    C1    1.309751 A    
C20   C21   1.392647 A    
C24   C41   1.516200 S    
C4    C10   1.500573 S    
C8    N11   1.500352 S    
C40   H14   1.106367 S    
C20   C24   1.384747 A    
C39   H9    1.097503 S    
N7    O18   1.303027 A    
C16   C17   1.392103 A    
Zn2   O8    2.066582 S    
C47   H35   1.047011 S    
C23   C44   1.488440 S    
C18   C19   1.399598 A    
C46   H31   1.110513 S    
Zn1   N1    2.062698 S    
N8    O20   1.302789 A    
C27   C38   1.379743 A    
C31   C32   1.439812 A    
C42   H19   1.110268 S    
O8    C4    1.293944 A    
C6    C10   1.550941 S    
C45   H28   1.103305 S    
C43   H22   1.111094 S    
C45   H29   1.109463 S    
C35   C36   1.432032 A    
C48   H38   1.112868 S    
C7    N4    1.474577 S    
Zn1   O5    2.019284 S    
C8    C12   1.575124 S    
C29   C30   1.373172 A    
C1    C26   1.487581 S    
N12   O28   1.300843 A    
C39   H11   1.086374 S    
O1    Zn1   2.025504 S    
C5    N3    1.488224 S    
Zn2   O6    2.025501 S    
O2    Zn2   2.019284 S    
C7    C9    1.639681 S    
O6    C3    1.312312 A    
O4    Zn2   2.080853 S    
C48   H36   1.101772 S    
C32   N2    1.439063 A    
N9    O21   1.299430 A    
C22   N5    1.438956 S    
C17   C18   1.403072 A    
O2    C1    1.324070 A    
C30   H8    1.077102 S    
N1    C38   1.348204 A    
C27   C34   1.421195 A    
O4    C2    1.329922 A    
C32   C36   1.502799 A    
C5    C6    1.570057 S    
C38   C45   1.500869 S    
C18   C20   1.400752 A    
N10   O24   1.290216 A    
H3    C11   1.111832 S    
C46   H32   1.111518 S    
C12   C39   1.550117 S    
C10   C12   1.588304 S    
C44   H24   1.107342 S    
C5    N7    1.485692 S    
C41   H15   1.105801 S    
N1    C37   1.350820 A    
C42   H20   1.106085 S    
C13   C21   1.407819 A    
C6    H2    1.108558 S    
C45   H27   1.094193 S    
C43   H23   1.108564 S    
C17   H6    1.084427 S    
C8    N12   1.491135 S    
C8    C9    1.644846 S    
C7    C48   1.571314 S    
C36   C47   1.533287 S    
C37   H7    1.072201 S    
C13   N6    1.440471 S    
