data_mof_unit_50301.cif
_audit_creation_date              2012-12-10T16:42:58-0500
_audit_creation_method            fapswitch 2.2
_symmetry_space_group_name_H-M    P1
_symmetry_Int_Tables_number       1
_space_group_crystal_system       triclinic
_cell_length_a                    7.44691
_cell_length_b                    8.74025
_cell_length_c                    12.982306
_cell_angle_alpha                 87.864732
_cell_angle_beta                  78.511185
_cell_angle_gamma                 101.891553
_cell_volume                      807.583407766

loop_
_atom_site_label
_atom_site_type_symbol
_atom_type_description
_atom_site_fract_x
_atom_site_fract_y
_atom_site_fract_z
_atom_type_partial_charge
C1    C     C_R   0.455339 0.201085 0.500215 0.835469
C2    C     C_R   0.544661 0.798915 0.499785 0.835469
C3    C     C_R   0.464369 0.492063 0.701825 0.798577
C4    C     C_R   0.535631 0.507937 0.298175 0.798577
C5    C     C_R   0.559078 0.517331 0.183521 -0.099469
C6    C     C_R   0.440922 0.482669 0.816479 -0.099469
C7    C     C_R   0.252324 0.417610 0.994190 -0.230728
C8    C     C_R   0.747676 0.582390 0.005810 -0.230727
C9    C     C_R   0.264627 0.422358 0.885743 -0.036156
C10   C     C_R   0.735372 0.577642 0.114257 -0.036156
C11   C     C_R   0.600473 0.535295 0.857609 -0.230710
C12   C     C_R   0.399527 0.464705 0.142391 -0.230710
C13   C     C_R   0.587549 0.529433 0.965682 0.156983
C14   C     C_R   0.412451 0.470567 0.034318 0.156983
C15   C     C_2   0.439808 0.038884 0.484106 -0.248056
C16   C     C_2   0.560191 0.961116 0.515894 -0.248056
Cu1   Cu    Cu3+1 0.686350 0.517570 0.488220 0.995711
Cu2   Cu    Cu3+1 0.313650 0.482430 0.511780 0.995711
H1    H     H_    0.264373 0.417875 0.194560 0.170510
H2    H     H_    0.735627 0.582125 0.805440 0.170510
H3    H     H_    0.117868 0.371693 0.047405 0.145992
H4    H     H_    0.882132 0.628306 0.952595 0.145992
H5    H     H_    0.934231 0.383882 0.587172 0.253058
H6    H     H_    0.065769 0.616118 0.412828 0.253058
N1    N     N_2   0.033570 0.455950 0.529530 -0.211829
N2    N     N_2   0.966430 0.544050 0.470470 -0.211829
O1    O     O_R   0.621060 0.286250 0.492350 -0.582918
O2    O     O_R   0.378940 0.713750 0.507650 -0.582918
O3    O     O_R   0.306310 0.256580 0.512240 -0.566644
O4    O     O_R   0.693690 0.743420 0.487760 -0.566643
O5    O     O_R   0.631800 0.512400 0.642670 -0.591153
O6    O     O_R   0.368200 0.487600 0.357330 -0.591153
O7    O     O_R   0.317060 0.482730 0.662570 -0.578646
O8    O     O_R   0.682940 0.517270 0.337430 -0.578645
C17   C     C_1   0.905330 0.639300 0.150586 0.268912
N3    N     N_1   0.041755 0.688785 0.179288 -0.272155
C18   C     C_1   0.094670 0.360700 0.849414 0.268913
N4    N     N_1   0.958245 0.311215 0.820712 -0.272155
C19   C     C_1   0.307049 0.973379 0.420420 0.293244
N5    N     N_1   0.201561 0.923022 0.369264 -0.269996
C20   C     C_1   0.692950 0.026621 0.579580 0.293243
N6    N     N_1   0.798439 0.076978 0.630736 -0.269996

loop_
_geom_bond_atom_site_label_1
_geom_bond_atom_site_label_2
_ccdc_geom_bond_type
C8    H4    S    
C18   N4    T    
C1    C15   S    
C2    C16   S    
C20   N6    T    
C17   N3    T    
C2    O4    A    
C3    C6    S    
C6    C9    A    
C1    O3    A    
Cu1   Cu2   S    
C5    C10   A    
Cu2   O3    S    
C13   C14   A    
C3    O5    A    
Cu1   O4    S    
C11   C13   A    
C15   C19   S    
C4    O6    A    
Cu2   N1    S    
Cu1   N2    S    
C12   H1    S    
C9    C18   S    
C12   C14   A    
H5    N1    S    
Cu1   O5    S    
Cu2   O7    S    
C4    O8    A    
C11   H2    S    
Cu2   O6    S    
Cu1   O8    S    
C3    O7    A    
C15   C16   D    
Cu1   O1    S    
C8    C13   A    
C7    C9    A    
C6    C11   A    
Cu2   O2    S    
C10   C17   S    
C5    C12   A    
C8    C10   A    
C19   N5    T    
C1    O1    A    
C2    O2    A    
N1    N2    D    
C7    H3    S    
C16   C20   S    
C7    C14   A    
H6    N2    S    
C4    C5    S    
