data_mof_unit_44474.cif
_audit_creation_date              2012-12-10T17:04:27-0500
_audit_creation_method            fapswitch 2.2
_symmetry_space_group_name_H-M    P1
_symmetry_Int_Tables_number       1
_space_group_crystal_system       triclinic
_cell_length_a                    14.93567
_cell_length_b                    10.733782
_cell_length_c                    10.010093
_cell_angle_alpha                 89.404796
_cell_angle_beta                  89.56498
_cell_angle_gamma                 90.204826
_cell_volume                      1604.63677459

loop_
_atom_site_label
_atom_site_type_symbol
_atom_type_description
_atom_site_fract_x
_atom_site_fract_y
_atom_site_fract_z
_atom_type_partial_charge
C1    C     C_R   0.495740 0.262993 0.500560 1.013415
C2    C     C_R   0.186860 0.408605 0.446182 -0.315644
C3    C     C_R   0.231996 0.507053 0.503138 -0.146420
C4    C     C_R   0.327233 0.502412 0.500513 0.839358
C5    C     C_R   0.187491 0.601709 0.572347 0.420980
C6    C     C_2   0.521912 0.939826 0.388084 -0.007513
C7    C     C_2   0.530548 0.865382 0.495642 -0.419352
C8    C     C_2   0.539544 0.069876 0.414192 0.406221
C9    C     C_2   0.484259 0.131147 0.497982 -0.137085
C10   C     C_2   0.548439 0.575955 0.923553 -0.096338
C11   C     C_2   0.552773 0.570164 0.073671 -0.112515
C12   C     C_R   0.906417 0.596143 0.581679 -0.100248
C13   C     C_R   0.505249 0.737175 0.498734 0.909448
C14   C     C_R   0.673072 0.501307 0.499538 0.961274
C15   C     C_R   0.812709 0.596876 0.576200 0.352657
C16   C     C_R   0.768953 0.506452 0.499624 -0.225741
C17   C     C_R   0.815622 0.415604 0.429490 0.339679
C18   C     C_R   0.907693 0.401422 0.451926 -0.104695
C19   C     C_R   0.953769 0.496886 0.520514 -0.134374
C20   C     C_3   0.404178 0.069448 0.570414 -0.518617
C21   C     C_3   0.334877 0.159778 0.628905 -0.368712
C22   C     C_3   0.253787 0.089663 0.685866 -0.793502
C23   C     C_R   0.954545 0.294072 0.408990 0.390394
C24   C     C_3   0.097499 0.180079 0.354991 -0.364079
C25   C     C_3   0.122750 0.195481 0.206840 -0.341625
C26   C     C_3   0.180916 0.087684 0.159444 -0.860000
C27   C     C_3   0.482869 0.900636 0.254084 -0.365017
C28   C     C_3   0.464412 0.009210 0.156561 -0.366081
C29   C     C_3   0.420697 0.963137 0.028702 -0.878652
C30   C     C_R   0.048285 0.294564 0.406322 0.068857
C31   C     C_R   0.094418 0.399054 0.457344 0.068296
C32   C     C_R   0.047461 0.495335 0.523718 -0.043019
C33   C     C_R   0.094416 0.592515 0.589112 -0.123362
C34   C     C_R   0.046320 0.682593 0.662264 0.399324
C35   C     C_R   0.954121 0.690065 0.649982 0.431431
H1    H     H_    0.556875 0.902405 0.588455 0.154581
H2    H     H_    0.274509 0.026617 0.768661 0.272460
H3    H     H_    0.204405 0.157367 0.725303 0.246494
H4    H     H_    0.365071 0.214308 0.710883 0.246764
H5    H     H_    0.311967 0.224707 0.549540 0.207978
H6    H     H_    0.368432 0.008929 0.498547 0.229740
H7    H     H_    0.429200 0.010273 0.653643 0.232660
H8    H     H_    0.809161 0.326904 0.262668 0.367521
H9    H     H_    0.857652 0.175900 0.433302 0.372649
H10   H     H_    0.244063 0.084022 0.217284 0.253339
H11   H     H_    0.144480 0.997880 0.172013 0.277042
H12   H     H_    0.589193 0.645801 0.872595 0.180872
H13   H     H_    0.197983 0.101045 0.052052 0.258282
H14   H     H_    0.060746 0.198739 0.146169 0.253027
H15   H     H_    0.159922 0.284095 0.189667 0.219245
H16   H     H_    0.157543 0.160884 0.416394 0.184065
H17   H     H_    0.055990 0.094608 0.367368 0.255588
H18   H     H_    0.290611 0.716060 0.569061 0.326324
H19   H     H_    0.131965 0.720865 0.798223 0.361400
H20   H     H_    0.881593 0.835282 0.632939 0.355464
H21   H     H_    0.464950 0.895290 0.977636 0.268013
H22   H     H_    0.355283 0.918018 0.051961 0.269253
H23   H     H_    0.466560 0.430276 0.899065 0.160131
H24   H     H_    0.408973 0.043221 0.959958 0.253789
H25   H     H_    0.418946 0.077636 0.204453 0.225830
H26   H     H_    0.528164 0.056964 0.129253 0.252099
H27   H     H_    0.530253 0.835649 0.204974 0.221113
H28   H     H_    0.418101 0.851915 0.273162 0.218516
H29   H     H_    0.601512 0.629267 0.122153 0.159022
H30   H     H_    0.451218 0.450905 0.103216 0.162273
H31   H     H_    0.225803 0.339953 0.393300 0.158623
H32   H     H_    0.710076 0.707054 0.597586 0.317561
H33   H     H_    0.646118 0.067008 0.301778 0.345371
H34   H     H_    0.221131 0.033827 0.607008 0.278850
N1    N     N_2   0.500970 0.501330 0.852150 -0.191974
N2    N     N_2   0.500990 0.501360 0.147810 -0.187602
O1    O     O_R   0.499990 0.319060 0.613040 -0.637253
O2    O     O_3   0.612132 0.129352 0.353994 -0.722434
O3    O     O_3   0.769176 0.342951 0.340037 -0.705940
O4    O     O_3   0.910694 0.185815 0.373962 -0.775906
O5    O     O_3   0.232176 0.707172 0.615535 -0.758461
O6    O     O_3   0.087209 0.767274 0.744797 -0.671517
O7    O     O_3   0.912773 0.791226 0.706625 -0.651099
O8    O     O_R   0.500010 0.319100 0.386900 -0.577376
O9    O     O_R   0.367830 0.499950 0.613080 -0.609764
O10   O     O_R   0.367860 0.499990 0.386940 -0.626616
O11   O     O_R   0.499990 0.680900 0.613100 -0.615950
O12   O     O_R   0.500010 0.680940 0.386960 -0.629687
O13   O     O_R   0.632140 0.500010 0.613060 -0.603836
O14   O     O_R   0.632170 0.500050 0.386920 -0.564215
O15   O     O_3   0.764978 0.684851 0.647185 -0.728079
Zn1   Zn    Zn3+2 0.499980 0.499970 0.650990 0.960568
Zn2   Zn    Zn3+2 0.500020 0.500030 0.349010 0.972459

loop_
_geom_bond_atom_site_label_1
_geom_bond_atom_site_label_2
_ccdc_geom_bond_type
C24   H17   S    
C7    H1    S    
O13   Zn1   S    
C14   O13   A    
C20   H6    S    
C28   C29   S    
C4    O9    A    
O9    Zn1   S    
C34   O6    S    
C30   C31   A    
C11   N2    D    
C19   C32   A    
C15   C16   A    
C22   H3    S    
C34   C35   A    
C25   H15   S    
C26   H10   S    
C4    O10   A    
C29   H24   S    
C8    C9    D    
C5    C33   A    
C22   H34   S    
C26   H13   S    
H19   O6    S    
C28   H26   S    
H8    O3    S    
O12   Zn2   S    
C21   C22   S    
N1    Zn1   S    
O8    Zn2   S    
C17   C18   A    
C24   C30   S    
C28   H25   S    
C1    O1    A    
C18   C23   A    
C23   C30   A    
C1    C9    S    
C24   C25   S    
C11   H29   S    
H20   O7    S    
C18   C19   A    
C6    C8    S    
C3    C5    A    
C25   C26   S    
H30   N2    S    
C22   H2    S    
C13   O11   A    
C2    C31   A    
H9    O4    S    
C27   H27   S    
C9    C20   S    
C6    C27   S    
C21   H4    S    
C12   C15   A    
C33   C34   A    
C12   C35   A    
C27   H28   S    
C15   O15   S    
C10   N1    D    
C29   H22   S    
C17   O3    S    
C1    O8    A    
C14   C16   S    
H18   O5    S    
C3    C4    S    
C10   H12   S    
O1    Zn1   S    
O14   Zn2   S    
H32   O15   S    
C31   C32   A    
H23   N1    S    
C14   O14   A    
C23   O4    S    
C2    H31   S    
C20   H7    S    
C6    C7    D    
C29   H21   S    
C13   O12   A    
C35   O7    S    
C32   C33   A    
C5    O5    S    
C2    C3    A    
H33   O2    S    
C16   C17   A    
C21   H5    S    
C24   H16   S    
C12   C19   A    
C8    O2    S    
C25   H14   S    
O10   Zn2   S    
C10   C11   S    
C26   H11   S    
N2    Zn2   S    
C7    C13   S    
C20   C21   S    
C27   C28   S    
O11   Zn1   S    
