data_mof_unit_45030.cif
_audit_creation_date              2013-03-05T15:42:54-0500
_audit_creation_method            fapswitch 2.2
_symmetry_space_group_name_H-M    P1
_symmetry_Int_Tables_number       1
_space_group_crystal_system       triclinic
_cell_length_a                    15.018111
_cell_length_b                    10.959857
_cell_length_c                    9.819346
_cell_angle_alpha                 90.932846
_cell_angle_beta                  90.748049
_cell_angle_gamma                 90.858545
_cell_volume                      1615.68989293

loop_
_atom_site_label
_atom_site_type_symbol
_atom_site_description
_atom_site_fract_x
_atom_site_fract_y
_atom_site_fract_z
_atom_type_partial_charge
O1    O     O_R   0.500020 0.321960 0.617040 -0.586655
O2    O     O_R   0.499980 0.321920 0.382900 -0.559100
C1    C     C_R   0.498229 0.265761 0.498439 0.881519
O3    O     O_R   0.370270 0.499990 0.617090 -0.570163
O4    O     O_R   0.370240 0.499950 0.382940 -0.516088
C2    C     C_R   0.329395 0.498715 0.499436 0.879330
Cu1   Cu    Cu3+1 0.500020 0.500020 0.638630 0.978247
Cu2   Cu    Cu3+1 0.499980 0.499980 0.361370 1.003298
O5    O     O_R   0.500020 0.678080 0.617100 -0.585684
O6    O     O_R   0.499980 0.678040 0.382960 -0.584889
O7    O     O_R   0.629760 0.500050 0.617060 -0.574897
O8    O     O_R   0.629730 0.500010 0.382910 -0.589005
C3    C     C_R   0.504103 0.733883 0.501179 0.820634
C4    C     C_R   0.670549 0.496988 0.500686 0.795031
C5    C     C_R   0.813310 0.592931 0.556763 -0.187445
C6    C     C_R   0.767029 0.491996 0.503508 -0.065737
C7    C     C_R   0.812157 0.387753 0.457836 0.129129
C8    C     C_R   0.905241 0.381881 0.482691 0.032836
C9    C     C_R   0.952843 0.491448 0.518253 -0.014920
C10   C     C_R   0.906272 0.597626 0.555593 -0.037918
C11   C     C_R   0.952626 0.271242 0.475654 0.280951
C12   C     C_R   0.045249 0.274691 0.476476 -0.139925
C13   C     C_R   0.093020 0.385186 0.489793 -0.031230
C14   C     C_R   0.046828 0.494200 0.517564 -0.039876
C15   C     C_R   0.094288 0.605253 0.545244 -0.032136
C16   C     C_R   0.046725 0.707648 0.595412 0.250759
C17   C     C_R   0.953148 0.704119 0.598152 0.250640
C18   C     C_R   0.186372 0.386926 0.485741 0.300449
C19   C     C_R   0.232582 0.498649 0.499748 -0.143446
C20   C     C_R   0.187494 0.609064 0.521769 0.087403
H1    H     H_    0.775268 0.669405 0.593893 0.178552
H2    H     H_    0.079373 0.188579 0.472629 0.242262
C21   C     C_2   0.487635 0.929815 0.399891 -0.136027
C22   C     C_2   0.520379 0.864675 0.503757 -0.017479
H3    H     H_    0.449929 0.884298 0.317963 0.160984
C23   C     C_2   0.502028 0.061238 0.386616 0.180614
C24   C     C_2   0.487342 0.133995 0.495940 -0.237434
H4    H     H_    0.463664 0.094422 0.589647 0.153948
C25   C     C_2   0.449887 0.430836 0.925263 0.192028
N1    N     N_2   0.499020 0.498660 0.846910 -0.148493
C26   C     C_2   0.434975 0.459910 0.073454 0.377715
N2    N     N_2   0.499000 0.498630 0.153040 -0.358432
H5    H     H_    0.562065 0.483636 0.118537 0.180923
C27   C     C_3   0.583360 0.916465 0.612685 -0.773545
H6    H     H_    0.628487 0.844575 0.650222 0.235991
H7    H     H_    0.626741 0.989937 0.572103 0.262380
H8    H     H_    0.545162 0.951162 0.700772 0.224651
C28   C     C_3   0.529796 0.106418 0.248740 -0.738343
H9    H     H_    0.542292 0.028835 0.177635 0.217864
H10   H     H_    0.476240 0.161747 0.202819 0.266862
H11   H     H_    0.592535 0.160881 0.258246 0.222942
C29   C     C_3   0.402902 0.318803 0.866902 -0.641539
H12   H     H_    0.361384 0.271920 0.942957 0.232984
H13   H     H_    0.358196 0.342231 0.781628 0.281526
H14   H     H_    0.452753 0.251148 0.834424 0.211769
C30   C     C_3   0.549363 0.603560 0.901893 -0.511418
H15   H     H_    0.574049 0.661177 0.819555 0.235933
H16   H     H_    0.508021 0.662429 0.968229 0.181513
H17   H     H_    0.611978 0.574245 0.951374 0.162062
N3    N     N_R   0.348739 0.435549 0.127028 0.147662
O9    O     O_R   0.280991 0.496273 0.082016 -0.323787
O10   O     O_R   0.334692 0.333261 0.188968 -0.311369
C31   C     C_3   0.761238 0.290987 0.374715 -0.750189
H18   H     H_    0.805251 0.228072 0.318874 0.257658
H19   H     H_    0.715569 0.238849 0.441030 0.233484
H20   H     H_    0.721710 0.334270 0.293075 0.219252
N4    N     N_R   0.909104 0.154363 0.486608 0.141483
O11   O     O_R   0.849777 0.137229 0.580092 -0.292502
O12   O     O_R   0.937917 0.060873 0.417671 -0.273476
N5    N     N_R   0.234723 0.275782 0.466077 0.119177
O13   O     O_R   0.288483 0.238212 0.560826 -0.392942
O14   O     O_R   0.221430 0.208518 0.357087 -0.280952
C32   C     C_3   0.238443 0.728708 0.505326 -0.680100
H21   H     H_    0.195543 0.798764 0.458899 0.264451
H22   H     H_    0.266426 0.761181 0.604839 0.259574
H23   H     H_    0.294354 0.718945 0.433272 0.193102
N6    N     N_R   0.092308 0.811173 0.656441 0.144989
O15   O     O_R   0.137649 0.798135 0.769027 -0.298970
O16   O     O_R   0.078104 0.920386 0.611514 -0.261145
N7    N     N_R   0.906118 0.808641 0.647874 0.156812
O17   O     O_R   0.851978 0.866140 0.567727 -0.285792
O18   O     O_R   0.919338 0.848678 0.772110 -0.258324

loop_
_geom_bond_atom_site_label_1
_geom_bond_atom_site_label_2
_geom_bond_distance
_ccdc_geom_bond_type
C31   H19   1.110400 S    
C8    C11   1.416338 A    
C26   N2    1.293331 D    
C9    C10   1.412439 A    
Cu1   Cu2   2.722498 S    
C25   C26   1.504877 S    
N6    O15   1.301797 A    
C29   H12   1.107048 S    
Cu1   O7    1.962672 S    
C16   C17   1.405915 A    
C19   C20   1.410513 A    
C12   H2    1.081020 S    
C23   C24   1.349241 D    
Cu2   N2    2.045336 S    
O2    C1    1.299879 A    
O4    C2    1.305213 A    
O7    C4    1.303773 A    
C5    C6    1.388862 A    
C21   C23   1.461475 S    
C30   H15   1.098779 S    
N3    O10   1.299875 A    
C8    C9    1.424478 A    
C32   H21   1.109499 S    
O5    C3    1.302617 A    
C28   H11   1.109866 S    
C27   H7    1.110482 S    
C6    C7    1.407188 A    
N1    C30   1.458758 S    
Cu1   N1    2.045719 S    
N5    O13   1.299931 A    
C27   H8    1.109338 S    
C28   H10   1.109963 S    
C25   C29   1.508157 S    
C31   H20   1.108366 S    
C11   C12   1.390881 A    
C11   N4    1.435593 S    
C32   H22   1.109768 S    
O3    Cu1   1.957291 S    
C29   H13   1.102424 S    
C7    C8    1.418532 A    
N6    O16   1.302007 A    
C5    C10   1.396496 A    
O2    Cu2   1.966348 S    
C16   N6    1.434918 S    
N4    O11   1.301431 A    
C22   C27   1.516113 S    
C14   C15   1.421775 A    
N7    O18   1.301460 A    
C17   N7    1.436852 S    
C25   N1    1.306137 D    
C20   C32   1.520213 S    
C15   C16   1.423912 A    
N3    O9    1.300614 A    
N4    O12   1.301414 A    
C24   H4    1.085419 S    
Cu2   O8    1.957293 S    
C21   C22   1.346409 D    
C13   C18   1.402918 A    
O3    C2    1.300928 A    
C28   H9    1.111125 S    
O8    C4    1.302958 A    
C32   H23   1.110332 S    
C4    C6    1.450713 S    
N2    H5    1.024724 S    
C27   H6    1.111257 S    
C15   C20   1.421711 A    
Cu1   O5    1.966348 S    
C18   C19   1.402291 A    
O1    Cu1   1.959559 S    
C18   N5    1.439052 S    
C26   N3    1.427348 S    
N7    O17   1.300926 A    
O6    C3    1.303769 A    
O4    Cu2   1.962671 S    
C29   H14   1.107783 S    
C5    H1    1.082429 S    
C10   C17   1.408655 A    
C30   H17   1.107153 S    
C9    C14   1.411456 A    
C3    C22   1.450302 S    
C7    C31   1.518862 S    
C21   H3    1.087799 S    
C30   H16   1.111276 S    
C23   C28   1.510768 S    
C13   C14   1.415014 A    
C31   H18   1.106270 S    
C2    C19   1.453978 S    
C1    C24   1.450703 S    
Cu2   O6    1.959559 S    
C12   C13   1.401678 A    
N5    O14   1.301157 A    
O1    C1    1.308313 A    
