data_mof_unit_41938.cif
_audit_creation_date              2012-10-26T17:12:25-0400
_audit_creation_method            fapswitch 2.2
_symmetry_space_group_name_H-M    P1
_symmetry_Int_Tables_number       1
_space_group_crystal_system       triclinic
_cell_length_a                    16.7801
_cell_length_b                    16.785281
_cell_length_c                    16.957006
_cell_angle_alpha                 67.112256
_cell_angle_beta                  67.647855
_cell_angle_gamma                 67.862321
_cell_volume                      3919.82512333

loop_
_atom_site_label
_atom_site_type_symbol
_atom_type_description
_atom_site_fract_x
_atom_site_fract_y
_atom_site_fract_z
_atom_type_partial_charge
C1    C     C_R   0.024895 0.828931 0.566216 0.530338
C2    C     C_R   0.012011 0.569987 0.832517 0.536728
C3    C     C_R   0.171544 0.970905 0.435852 0.530950
C4    C     C_R   0.828456 0.029094 0.564148 0.530950
C5    C     C_R   0.509453 0.941224 0.733075 -0.057987
C6    C     C_R   0.490547 0.058776 0.266925 -0.057987
C7    C     C_R   0.076699 0.696650 0.464537 -0.059787
C8    C     C_R   0.923300 0.303350 0.535463 -0.059787
C9    C     C_R   0.731593 0.516637 0.938873 -0.056103
C10   C     C_R   0.268406 0.483363 0.061128 -0.056104
C11   C     C_R   0.297149 0.930600 0.544182 -0.062801
C12   C     C_R   0.975105 0.171069 0.433784 0.530337
C13   C     C_R   0.702851 0.069400 0.455818 -0.062801
C14   C     C_R   0.546051 0.300012 0.926750 -0.058567
C15   C     C_R   0.453949 0.699988 0.073251 -0.058568
C16   C     C_R   0.035596 0.516143 0.265390 -0.053117
C17   C     C_R   0.964401 0.483859 0.734611 -0.053118
C18   C     C_R   0.548224 0.009753 0.547018 -0.039816
C19   C     C_R   0.451776 0.990247 0.452982 -0.039815
C20   C     C_R   0.004866 0.548303 0.549648 -0.040733
C21   C     C_R   0.995132 0.451698 0.450352 -0.040733
C22   C     C_R   0.545978 0.548641 0.010908 -0.031285
C23   C     C_R   0.830445 0.569028 0.017102 0.535412
C24   C     C_R   0.454022 0.451358 0.989094 -0.031285
C25   C     C_R   0.575341 0.035434 0.452427 0.039332
C26   C     C_R   0.424659 0.964566 0.547573 0.039332
C27   C     C_R   0.977587 0.467561 0.594046 0.041856
C28   C     C_R   0.022409 0.532440 0.405955 0.041857
C29   C     C_R   0.451372 0.571929 0.039398 0.046662
C30   C     C_R   0.548628 0.428070 0.960603 0.046662
C31   C     C_R   0.522081 0.032645 0.405498 0.040744
C32   C     C_R   0.477919 0.967355 0.594502 0.040744
C33   C     C_R   0.406158 0.517783 0.034747 0.048087
C34   C     C_R   0.169555 0.430972 0.982898 0.535412
C35   C     C_R   0.593841 0.482217 0.965254 0.048087
C36   C     C_R   0.965947 0.422933 0.544508 0.037595
C37   C     C_R   0.034050 0.577068 0.455492 0.037595
C38   C     C_R   0.471333 0.920483 0.685814 0.283159
C39   C     C_R   0.528667 0.079517 0.314186 0.283159
C40   C     C_R   0.081747 0.643809 0.416177 0.284592
C41   C     C_R   0.918249 0.356193 0.583822 0.284593
C42   C     C_R   0.683100 0.481787 0.916000 0.291117
C43   C     C_R   0.316899 0.518213 0.084001 0.291115
C44   C     C_R   0.340792 0.944678 0.590813 0.274867
C45   C     C_R   0.569252 0.016243 0.830691 0.535986
C46   C     C_R   0.659207 0.055321 0.409187 0.274868
C47   C     C_R   0.593676 0.346919 0.936035 0.287940
C48   C     C_R   0.406324 0.653081 0.063965 0.287940
C49   C     C_R   0.030080 0.568743 0.314058 0.295476
C50   C     C_R   0.969915 0.431259 0.685943 0.295474
C51   C     C_R   0.568236 0.996108 0.688896 -0.023322
C52   C     C_R   0.431764 0.003892 0.311104 -0.023322
C53   C     C_R   0.035887 0.677758 0.555819 -0.021089
C54   C     C_R   0.964112 0.322242 0.444181 -0.021089
C55   C     C_R   0.687861 0.570307 0.996811 -0.019462
C56   C     C_R   0.430748 0.983757 0.169309 0.535985
C57   C     C_R   0.312139 0.429692 0.003190 -0.019462
C58   C     C_R   0.323989 0.953126 0.450759 -0.021235
C59   C     C_R   0.676010 0.046874 0.549241 -0.021235
C60   C     C_R   0.452089 0.324766 0.951008 -0.022852
C61   C     C_R   0.547911 0.675234 0.048993 -0.022852
C62   C     C_R   0.009171 0.435633 0.306822 -0.022981
C63   C     C_R   0.990827 0.564368 0.693178 -0.022981
C64   C     C_R   0.608946 0.017733 0.735279 -0.020754
C65   C     C_R   0.391054 0.982267 0.264721 -0.020755
C66   C     C_R   0.029320 0.732201 0.605556 -0.019943
C67   C     C_R   0.436125 0.171961 0.969904 0.534074
C68   C     C_R   0.970680 0.267799 0.394444 -0.019942
C69   C     C_R   0.734737 0.609277 0.019311 -0.019530
C70   C     C_R   0.265263 0.390723 0.980689 -0.019530
C71   C     C_R   0.270158 0.957283 0.400487 -0.020695
C72   C     C_R   0.729842 0.042717 0.599513 -0.020695
C73   C     C_R   0.401130 0.270674 0.955528 -0.020879
C74   C     C_R   0.598870 0.729326 0.044472 -0.020879
C75   C     C_R   0.994155 0.389836 0.259908 -0.020499
C76   C     C_R   0.005844 0.610164 0.740092 -0.020499
C77   C     C_R   0.691212 0.037822 0.689894 -0.141723
C78   C     C_R   0.563875 0.828039 0.030096 0.534074
C79   C     C_R   0.308788 0.962179 0.310106 -0.141723
C80   C     C_R   0.018328 0.695717 0.696636 -0.143625
C81   C     C_R   0.981673 0.304283 0.303364 -0.143626
C82   C     C_R   0.689833 0.690720 0.039841 -0.140333
C83   C     C_R   0.310167 0.309280 0.960160 -0.140333
C84   C     C_R   0.596483 0.019486 0.594815 0.014970
C85   C     C_R   0.403517 0.980514 0.405185 0.014970
C86   C     C_R   0.009615 0.597167 0.599730 0.015508
C87   C     C_R   0.990384 0.402833 0.400270 0.015507
C88   C     C_R   0.593546 0.596908 0.021174 0.017263
C89   C     C_R   0.987989 0.430013 0.167483 0.536728
C90   C     C_R   0.406453 0.403092 0.978827 0.017263
Cl1   Cl    Cl    0.441322 0.817905 0.736892 -0.488105
Cl2   Cl    Cl    0.294313 0.712628 0.062907 -0.417513
Cl3   Cl    Cl    0.003680 0.685705 0.261047 -0.449555
Cl4   Cl    Cl    0.996307 0.314296 0.738958 -0.449553
Cl5   Cl    Cl    0.558679 0.182094 0.263107 -0.488108
Cl6   Cl    Cl    0.168683 0.649726 0.316813 -0.410099
Cl7   Cl    Cl    0.831307 0.350282 0.683183 -0.410098
Cl8   Cl    Cl    0.722186 0.475513 0.806388 -0.461194
Cl9   Cl    Cl    0.277811 0.524490 0.193612 -0.461199
Cl10  Cl    Cl    0.273403 0.962826 0.694971 -0.469234
Cl11  Cl    Cl    0.726597 0.037173 0.305029 -0.469232
Cl12  Cl    Cl    0.705688 0.287373 0.937090 -0.417513
Cu1   Cu    Cu3+1 0.995180 0.995180 0.424630 1.053798
Cu2   Cu    Cu3+1 0.004820 0.004820 0.575370 1.053796
Cu3   Cu    Cu3+1 0.995180 0.424630 0.995180 1.048379
Cu4   Cu    Cu3+1 0.004820 0.575370 0.004820 1.048380
Cu5   Cu    Cu3+1 0.424630 0.995180 0.995180 1.048772
Cu6   Cu    Cu3+1 0.575370 0.004820 0.004820 1.048772
H1    H     H_    0.501834 0.904619 0.802768 0.175559
H2    H     H_    0.415464 0.756933 0.098916 0.181507
H3    H     H_    0.058755 0.543327 0.194740 0.183136
H4    H     H_    0.941241 0.456675 0.805261 0.183134
H5    H     H_    0.728081 0.044021 0.726628 0.169358
H6    H     H_    0.271919 0.955980 0.273371 0.169358
H7    H     H_    0.020309 0.734156 0.734166 0.168769
H8    H     H_    0.979692 0.265844 0.265834 0.168769
H9    H     H_    0.727270 0.727192 0.046196 0.169107
H10   H     H_    0.272730 0.272808 0.953804 0.169107
H11   H     H_    0.498166 0.095381 0.197232 0.175559
H12   H     H_    0.114440 0.746205 0.431843 0.169681
H13   H     H_    0.885558 0.253796 0.568156 0.169680
H14   H     H_    0.800335 0.513663 0.900472 0.141426
H15   H     H_    0.199665 0.486338 0.099528 0.141427
H16   H     H_    0.240124 0.904093 0.583269 0.179591
H17   H     H_    0.759876 0.095906 0.416731 0.179591
H18   H     H_    0.584536 0.243067 0.901084 0.181507
O1    O     O_R   0.124540 0.978640 0.385460 -0.504838
O2    O     O_R   0.124540 0.385460 0.978640 -0.503271
O3    O     O_R   0.021360 0.875460 0.614540 -0.507913
O4    O     O_R   0.978640 0.124540 0.385460 -0.507913
O5    O     O_R   0.013780 0.867370 0.487190 -0.501561
O6    O     O_R   0.986220 0.132630 0.512810 -0.501561
O7    O     O_R   0.867370 0.487190 0.013780 -0.504773
O8    O     O_R   0.132630 0.512810 0.986220 -0.504773
O9    O     O_R   0.487190 0.013780 0.867370 -0.504153
O10   O     O_R   0.512810 0.986220 0.132630 -0.504152
O11   O     O_R   0.512810 0.132630 0.986220 -0.516116
O12   O     O_R   0.875460 0.021360 0.614540 -0.504838
O13   O     O_R   0.487190 0.867370 0.013780 -0.516116
O14   O     O_R   0.986220 0.512810 0.132630 -0.521144
O15   O     O_R   0.013780 0.487190 0.867370 -0.521143
O16   O     O_R   0.132630 0.986220 0.512810 -0.505882
O17   O     O_R   0.867370 0.013780 0.487190 -0.505882
O18   O     O_R   0.978640 0.385460 0.124540 -0.499897
O19   O     O_R   0.021360 0.614540 0.875460 -0.499897
O20   O     O_R   0.385460 0.124540 0.978640 -0.501699
O21   O     O_R   0.614540 0.875460 0.021360 -0.501699
O22   O     O_R   0.614540 0.021360 0.875460 -0.505667
O23   O     O_R   0.385460 0.978640 0.124540 -0.505667
O24   O     O_R   0.875460 0.614540 0.021360 -0.503271

loop_
_geom_bond_atom_site_label_1
_geom_bond_atom_site_label_2
_ccdc_geom_bond_type
C25   C31   A    
C21   C87   A    
C26   C32   A    
Cu4   O24   S    
C22   C29   A    
C45   O22   A    
C64   C77   A    
C23   C69   S    
C11   H16   S    
C19   C31   A    
C78   O13   A    
Cu3   O18   S    
C71   C79   A    
C26   C44   A    
C66   C80   A    
C21   C36   A    
C54   C87   A    
C2    O19   A    
C22   C35   A    
C18   C25   A    
C9    C42   A    
Cu4   O19   S    
C12   O4    A    
C30   C35   A    
C65   C79   A    
C68   C81   A    
C83   H10   S    
C52   C85   A    
C74   C82   A    
Cu6   O10   S    
C37   C40   A    
C1    O3    A    
C42   Cl8   S    
Cu3   O15   S    
Cu6   O11   S    
C3    O1    A    
C8    H13   S    
C54   C68   A    
C63   C76   A    
C34   O8    A    
C56   C65   S    
C29   C33   A    
C60   C73   A    
C55   C88   A    
C35   C42   A    
C19   C26   A    
Cu5   O9    S    
C69   C82   A    
Cu2   O12   S    
C20   C86   A    
C18   C84   A    
Cu5   Cu6   S    
C53   C86   A    
C9    C55   A    
C32   C38   A    
C57   C70   A    
C11   C58   A    
Cu1   O1    S    
C34   C70   S    
C74   C78   S    
C27   C50   A    
C59   C72   A    
Cu6   O21   S    
C13   H17   S    
C47   Cl12  S    
C5    C38   A    
C15   H2    S    
C36   C41   A    
C3    O16   A    
C16   C62   A    
C15   C48   A    
C40   Cl6   S    
C77   H5    S    
C4    O17   A    
C56   O10   A    
C24   C33   A    
C9    H14   S    
C46   Cl11  S    
C45   O9    A    
C57   C90   A    
C23   O7    A    
C29   C48   A    
C33   C43   A    
C30   C47   A    
C10   C57   A    
C16   C49   A    
C10   H15   S    
C8    C54   A    
Cu5   O20   S    
C50   Cl4   S    
C1    O5    A    
C38   Cl1   S    
Cu1   O17   S    
C3    C71   S    
C72   C77   A    
C70   C83   A    
C61   C88   A    
C12   C68   S    
C28   C49   A    
Cu4   O14   S    
C80   H7    S    
C7    C40   A    
C89   O14   A    
C67   O20   A    
C1    C66   S    
C15   C61   A    
C11   C44   A    
C8    C41   A    
C53   C66   A    
C39   Cl5   S    
C55   C69   A    
C78   O21   A    
C67   C73   S    
C21   C28   A    
C22   C88   A    
Cu2   O3    S    
C63   C86   A    
C48   Cl2   S    
C61   C74   A    
C41   Cl7   S    
C62   C75   A    
C18   C32   A    
C7    C53   A    
C17   H4    S    
C58   C85   A    
C6    H11   S    
C4    C72   S    
C2    C76   S    
Cu3   O7    S    
Cu3   Cu4   S    
C12   O6    A    
Cu3   O2    S    
C10   C43   A    
C7    H12   S    
C23   O24   A    
C75   C81   A    
C51   C64   A    
C76   C80   A    
C43   Cl9   S    
C19   C85   A    
C24   C90   A    
C17   C50   A    
C14   C47   A    
C13   C59   A    
C20   C27   A    
C60   C90   A    
C27   C36   A    
C89   O18   A    
C14   C60   A    
C62   C87   A    
C45   C64   S    
C59   C84   A    
C14   H18   S    
C49   Cl3   S    
C17   C63   A    
C20   C37   A    
C44   Cl10  S    
C13   C46   A    
C5    H1    S    
C28   C37   A    
C51   C84   A    
C81   H8    S    
C31   C39   A    
Cu2   O16   S    
Cu5   O13   S    
C58   C71   A    
Cu1   O4    S    
C24   C30   A    
C75   C89   S    
C4    O12   A    
Cu5   O23   S    
Cu4   O8    S    
C34   O2    A    
Cu2   O6    S    
C79   H6    S    
Cu1   Cu2   S    
C2    O15   A    
C6    C39   A    
C5    C51   A    
C82   H9    S    
C6    C52   A    
C56   O23   A    
C67   O11   A    
Cu1   O5    S    
C25   C46   A    
C73   C83   A    
C52   C65   A    
C16   H3    S    
Cu6   O22   S    
