data_mof_unit_42130.cif
_audit_creation_date              2012-12-10T17:47:46-0500
_audit_creation_method            fapswitch 2.2
_symmetry_space_group_name_H-M    P1
_symmetry_Int_Tables_number       1
_space_group_crystal_system       triclinic
_cell_length_a                    10.62148
_cell_length_b                    10.719699
_cell_length_c                    9.881751
_cell_angle_alpha                 89.511002
_cell_angle_beta                  89.990945
_cell_angle_gamma                 91.421123
_cell_volume                      1124.73985056

loop_
_atom_site_label
_atom_site_type_symbol
_atom_type_description
_atom_site_fract_x
_atom_site_fract_y
_atom_site_fract_z
_atom_type_partial_charge
C1    C     C_R   0.510191 0.260373 0.501613 0.857304
C2    C     C_R   0.511430 0.060399 0.631510 0.099959
C3    C     C_R   0.520956 0.127085 0.506862 -0.122064
C4    C     C_R   0.257624 0.495542 0.499935 0.841346
C5    C     C_R   0.519227 0.064605 0.383431 -0.225611
C6    C     C_R   0.504445 0.937647 0.381807 -0.237296
C7    C     C_R   0.481049 0.872801 0.502578 -0.150493
C8    C     C_R   0.335306 0.336212 0.141698 -0.180374
C9    C     C_R   0.254278 0.255682 0.071974 -0.217915
C10   C     C_R   0.254229 0.255887 0.931942 -0.183849
C11   C     C_R   0.335376 0.336456 0.860970 -0.165900
C12   C     C_3   0.878157 0.491431 0.499736 0.120966
C13   C     C_R   0.418900 0.419262 0.928290 0.154885
C14   C     C_R   0.418907 0.419240 0.073073 0.174629
C15   C     C_R   0.577277 0.577470 0.070864 -0.132214
C16   C     C_R   0.490553 0.739591 0.500190 0.882881
C17   C     C_R   0.577225 0.577451 0.927533 -0.127163
C18   C     C_R   0.741881 0.494074 0.499982 0.854935
C19   C     C_3   0.070003 0.413680 0.620645 -0.513894
C20   C     C_3   0.925829 0.409685 0.618610 -0.415675
C21   C     C_3   0.074312 0.629429 0.511640 0.378157
C22   C     C_3   0.070043 0.433424 0.366682 -0.372657
C23   C     C_3   0.929450 0.626743 0.515227 -0.436684
C24   C     C_3   0.120849 0.493389 0.499373 0.120065
C25   C     C_3   0.171299 0.817614 0.435544 0.104964
C26   C     C_3   0.070993 0.916030 0.455488 -0.365828
C27   C     C_3   0.131342 0.044381 0.481817 -0.979819
C28   C     C_3   0.926542 0.436491 0.364937 -0.389966
C29   C     C_R   0.540508 0.111749 0.760138 -0.167561
C30   C     C_R   0.501563 0.051019 0.878827 -0.142967
C31   C     C_R   0.434293 0.938564 0.871414 -0.155576
C32   C     C_R   0.417727 0.881109 0.746500 -0.171609
C33   C     C_R   0.468523 0.936530 0.626776 0.098165
H1    H     H_    0.102425 0.454299 0.718331 0.196021
H2    H     H_    0.640331 0.640691 0.124299 0.144378
H3    H     H_    0.105851 0.317140 0.615637 0.182437
H4    H     H_    0.329134 0.330614 0.248925 0.204303
H5    H     H_    0.191097 0.192830 0.127153 0.147864
H6    H     H_    0.191268 0.192989 0.877731 0.149807
H7    H     H_    0.330153 0.330504 0.753792 0.209215
H8    H     H_    0.640183 0.640719 0.872841 0.152235
H9    H     H_    0.890737 0.311601 0.607123 0.170545
H10   H     H_    0.890750 0.444053 0.717358 0.193475
H11   H     H_    0.108493 0.666824 0.610722 0.036685
H12   H     H_    0.896483 0.494534 0.277238 0.194586
H13   H     H_    0.896857 0.666057 0.612788 0.126616
H14   H     H_    0.106907 0.484190 0.275657 0.221993
H15   H     H_    0.100798 0.335125 0.359720 0.150837
H16   H     H_    0.886954 0.340360 0.350438 0.163864
H17   H     H_    0.234314 0.848970 0.351564 0.177298
H18   H     H_    0.231566 0.810347 0.526982 0.103449
H19   H     H_    0.011193 0.921268 0.363421 0.228111
H20   H     H_    0.010068 0.889344 0.542945 0.208614
H21   H     H_    0.189648 0.041985 0.575122 0.270164
H22   H     H_    0.056449 0.113654 0.495201 0.257909
H23   H     H_    0.891546 0.686752 0.432916 0.185189
H24   H     H_    0.191577 0.074502 0.394974 0.263407
H25   H     H_    0.529487 0.113618 0.287518 0.170728
H26   H     H_    0.595893 0.196873 0.771459 0.164514
H27   H     H_    0.520886 0.092855 0.976231 0.140206
H28   H     H_    0.398254 0.893985 0.962704 0.138823
H29   H     H_    0.363648 0.794349 0.744982 0.156385
H30   H     H_    0.511278 0.890549 0.285573 0.169703
N1    N     N_R   0.498810 0.498800 0.142780 -0.120102
N2    N     N_R   0.498760 0.498720 0.857170 -0.125956
O1    O     O_R   0.500000 0.316780 0.614690 -0.651597
O2    O     O_R   0.499990 0.316750 0.385360 -0.642571
O3    O     O_R   0.314800 0.499990 0.614670 -0.661095
O4    O     O_R   0.314790 0.499970 0.385330 -0.618994
O5    O     O_R   0.500010 0.683250 0.614640 -0.621222
O6    O     O_R   0.500000 0.683220 0.385310 -0.612327
O7    O     O_R   0.685210 0.500030 0.614670 -0.626091
O8    O     O_R   0.685200 0.500010 0.385330 -0.626155
O9    O     O_3   0.116414 0.701393 0.397825 -0.649991
Zn1   Zn    Zn3+2 0.500010 0.500020 0.653130 0.911963
Zn2   Zn    Zn3+2 0.499990 0.499980 0.346870 0.931636

loop_
_geom_bond_atom_site_label_1
_geom_bond_atom_site_label_2
_ccdc_geom_bond_type
C22   H15   S    
C31   H28   S    
C19   C20   S    
C27   H21   S    
C23   H23   S    
C13   N2    A    
O3    Zn1   S    
C12   C23   S    
C26   C27   S    
C5    H25   S    
C12   C28   S    
C2    C29   A    
C19   H3    S    
C5    C6    A    
C4    C24   S    
C27   H22   S    
O4    Zn2   S    
C25   O9    S    
C25   H17   S    
C29   H26   S    
C8    C9    A    
C30   H27   S    
C15   N1    A    
C9    C10   A    
C22   H14   S    
C23   H13   S    
C22   C28   S    
C13   C14   A    
C7    C33   A    
C16   O6    A    
O7    Zn1   S    
C15   H2    S    
C4    O4    A    
C18   O7    A    
C28   H12   S    
C16   O5    A    
C27   H24   S    
C4    O3    A    
C25   C26   S    
C21   O9    S    
C10   H6    S    
C1    C3    S    
C6    H30   S    
C25   H18   S    
C29   C30   A    
C26   H19   S    
C21   H11   S    
C28   H16   S    
C31   C32   A    
C14   N1    A    
C12   C20   S    
C1    O1    A    
N1    Zn2   S    
C2    C33   A    
C7    C16   S    
C18   O8    A    
C21   C23   S    
O8    Zn2   S    
C22   C24   S    
C8    H4    S    
C26   H20   S    
O6    Zn2   S    
C20   H10   S    
C15   C17   A    
C8    C14   A    
C3    C5    A    
C19   H1    S    
C20   H9    S    
C6    C7    A    
C17   N2    A    
N2    Zn1   S    
C32   C33   A    
C2    C3    A    
C32   H29   S    
C11   C13   A    
C30   C31   A    
O1    Zn1   S    
C9    H5    S    
C1    O2    A    
C19   C24   S    
C11   H7    S    
C17   H8    S    
C10   C11   A    
C21   C24   S    
C12   C18   S    
O5    Zn1   S    
O2    Zn2   S    
