data_mof_unit_62203.cif
_audit_creation_date              2012-12-11T17:40:33-0500
_audit_creation_method            fapswitch 2.2
_symmetry_space_group_name_H-M    P1
_symmetry_Int_Tables_number       1
_space_group_crystal_system       triclinic
_cell_length_a                    27.407555
_cell_length_b                    7.228335
_cell_length_c                    24.923607
_cell_angle_alpha                 90.124905
_cell_angle_beta                  95.079286
_cell_angle_gamma                 89.935042
_cell_volume                      4918.23712143

loop_
_atom_site_label
_atom_site_type_symbol
_atom_type_description
_atom_site_fract_x
_atom_site_fract_y
_atom_site_fract_z
_atom_type_partial_charge
O1    O     O_R   0.698190 0.392130 0.199050 -0.535834
O2    O     O_R   0.301810 0.607870 0.800950 -0.543820
O3    O     O_R   0.801810 0.892130 0.300950 -0.537507
O4    O     O_R   0.198190 0.107870 0.699050 -0.529604
O5    O     O_R   0.796980 0.720470 0.196820 -0.532968
O6    O     O_R   0.203020 0.279530 0.803180 -0.534553
O7    O     O_R   0.703020 0.220470 0.303180 -0.533649
O8    O     O_R   0.296980 0.779530 0.696820 -0.534087
C1    C     C_R   0.811974 0.552279 0.183538 0.716242
C2    C     C_R   0.186487 0.447512 0.814735 0.719478
C3    C     C_R   0.688182 0.052786 0.316564 0.721696
C4    C     C_R   0.311817 0.947215 0.683434 0.718088
O9    O     O_R   0.698260 0.721750 0.192650 -0.539606
O10   O     O_R   0.301740 0.278250 0.807350 -0.543817
O11   O     O_R   0.801740 0.221750 0.307350 -0.536626
O12   O     O_R   0.198260 0.778250 0.692650 -0.530121
O13   O     O_R   0.702390 0.893450 0.296740 -0.517379
O14   O     O_R   0.297610 0.106550 0.703260 -0.516447
O15   O     O_R   0.797610 0.393450 0.203260 -0.516724
O16   O     O_R   0.202390 0.606550 0.796740 -0.512994
C5    C     C_R   0.681353 0.552968 0.179025 0.704766
C6    C     C_R   0.318670 0.447021 0.820948 0.682719
C7    C     C_R   0.818417 0.053092 0.321237 0.707296
C8    C     C_R   0.181548 0.946897 0.678812 0.760954
O17   O     O_3   0.751470 0.559080 0.284160 -0.357106
O18   O     O_3   0.248530 0.440920 0.715840 -0.352899
O19   O     O_3   0.748530 0.059080 0.215840 -0.355670
O20   O     O_3   0.251470 0.940920 0.784160 -0.373158
V1    V     V_3+5 0.749730 0.833390 0.243660 1.521099
V2    V     V_3+5 0.250270 0.166610 0.756340 1.511526
V3    V     V_3+5 0.750270 0.333390 0.256340 1.526233
V4    V     V_3+5 0.249730 0.666610 0.743660 1.527505
C9    C     C_R   0.067504 0.821098 0.587168 -0.104671
C10   C     C_R   0.932127 0.178887 0.413446 -0.109558
C11   C     C_R   0.413421 0.322393 0.936840 -0.111487
C12   C     C_R   0.586760 0.677536 0.062983 -0.106051
H1    H     H_    0.042804 0.704715 0.580771 0.185228
H2    H     H_    0.956794 0.295309 0.419984 0.181845
H3    H     H_    0.422106 0.206091 0.963322 0.183162
H4    H     H_    0.578101 0.793842 0.036495 0.186728
C13   C     C_R   0.107691 0.807407 0.625976 -0.105103
C14   C     C_R   0.892048 0.192667 0.374505 -0.134568
C15   C     C_R   0.373744 0.308904 0.897367 -0.144184
C16   C     C_R   0.626389 0.691041 0.102514 -0.130655
H5    H     H_    0.113049 0.680342 0.648695 0.153227
H6    H     H_    0.886721 0.319903 0.351865 0.140061
H7    H     H_    0.352761 0.181888 0.894272 0.144369
H8    H     H_    0.647368 0.818067 0.105644 0.156510
C17   C     C_R   0.139809 0.957673 0.636204 -0.108321
C18   C     C_R   0.860015 0.042272 0.364032 -0.105208
C19   C     C_R   0.361000 0.458647 0.862895 -0.101964
C20   C     C_R   0.639087 0.541310 0.137007 -0.103859
C21   C     C_R   0.131087 0.120682 0.605942 -0.163588
C22   C     C_R   0.868661 0.879162 0.394274 -0.165124
C23   C     C_R   0.389385 0.621210 0.868683 -0.181486
C24   C     C_R   0.610726 0.378705 0.131159 -0.171326
H9    H     H_    0.155379 0.238194 0.612568 0.171498
H10   H     H_    0.844409 0.761596 0.387505 0.172689
H11   H     H_    0.380893 0.738455 0.842513 0.152098
H12   H     H_    0.619194 0.261445 0.157330 0.151837
C25   C     C_R   0.091424 0.133501 0.566397 0.294868
C26   C     C_R   0.908197 0.866304 0.433980 0.291606
C27   C     C_R   0.429511 0.633994 0.907575 0.290405
C28   C     C_R   0.570646 0.365908 0.092209 0.291291
C29   C     C_R   0.059067 0.983523 0.557047 0.034424
C30   C     C_R   0.940516 0.016310 0.443502 0.036340
C31   C     C_R   0.441667 0.484213 0.942139 0.039642
C32   C     C_R   0.558519 0.515707 0.057643 0.038024
C33   C     C_1   0.017217 0.994802 0.517016 0.091287
C34   C     C_1   0.982317 0.004882 0.483593 0.088049
C35   C     C_1   0.482878 0.495018 0.982903 0.087957
C36   C     C_1   0.517326 0.504934 0.016856 0.090632
C37   C     C_R   0.351713 0.109453 0.607687 0.257421
C38   C     C_R   0.648286 0.890555 0.392314 0.257879
C39   C     C_R   0.117513 0.620008 0.856854 0.258789
C40   C     C_R   0.856468 0.379496 0.112532 0.255946
C41   C     C_R   0.388876 0.117381 0.572502 -0.140079
C42   C     C_R   0.611124 0.882630 0.427498 -0.139074
C43   C     C_R   0.082777 0.627434 0.894802 -0.140397
C44   C     C_R   0.894610 0.371033 0.078661 -0.143876
H13   H     H_    0.390049 0.235242 0.545903 0.174914
H14   H     H_    0.609952 0.764774 0.454100 0.175707
H15   H     H_    0.060594 0.750912 0.896976 0.174120
H16   H     H_    0.898960 0.246605 0.055246 0.172779
C45   C     C_R   0.423898 0.975729 0.571071 -0.039292
C46   C     C_R   0.576100 0.024278 0.428926 -0.039082
C47   C     C_R   0.075253 0.476915 0.928457 -0.035683
C48   C     C_R   0.926023 0.521789 0.073533 -0.034749
C49   C     C_R   0.420471 0.823009 0.605407 -0.106500
C50   C     C_R   0.579525 0.176992 0.394588 -0.107350
C51   C     C_R   0.103485 0.316483 0.923558 -0.111472
C52   C     C_R   0.918415 0.683560 0.103009 -0.112142
H17   H     H_    0.446566 0.710479 0.605266 0.156667
H18   H     H_    0.553429 0.289519 0.394727 0.155455
H19   H     H_    0.098460 0.197536 0.948828 0.153249
H20   H     H_    0.941884 0.802743 0.099819 0.153228
C53   C     C_R   0.383584 0.814019 0.640869 -0.158114
C54   C     C_R   0.616412 0.185979 0.359127 -0.159604
C55   C     C_R   0.139233 0.308705 0.886678 -0.161266
C56   C     C_R   0.881119 0.692238 0.137960 -0.161451
H21   H     H_    0.382643 0.695468 0.667271 0.150193
H22   H     H_    0.617353 0.304525 0.332723 0.148514
H23   H     H_    0.160907 0.183831 0.884981 0.166038
H24   H     H_    0.877316 0.817669 0.161068 0.161581
C57   C     C_R   0.349081 0.957551 0.643282 -0.098927
C58   C     C_R   0.650917 0.042451 0.356716 -0.100212
C59   C     C_R   0.147322 0.459881 0.852927 -0.106635
C60   C     C_R   0.849822 0.540538 0.143922 -0.104158
N1    N     N_R   0.497354 0.850869 0.531769 -0.269502
N2    N     N_R   0.502644 0.149139 0.468228 -0.271098
N3    N     N_R   0.017634 0.332294 0.987132 -0.264139
N4    N     N_R   0.985994 0.665711 0.017717 -0.264768
N5    N     N_R   0.532895 0.862620 0.498658 -0.271886
N6    N     N_R   0.467103 0.137388 0.501340 -0.273470
N7    N     N_R   0.982542 0.343220 0.020845 -0.274176
N8    N     N_R   0.020800 0.654787 0.983686 -0.274236
C61   C     C_R   0.536405 0.012019 0.466124 0.543833
C62   C     C_R   0.463593 0.987988 0.533874 0.543854
C63   C     C_R   0.965895 0.510119 0.036826 0.535525
C64   C     C_R   0.037363 0.487954 0.967586 0.535139
Br1   Br    Br    0.082894 0.357939 0.525732 -0.531075
Br2   Br    Br    0.916609 0.641800 0.474628 -0.520282
Br3   Br    Br    0.467143 0.857988 0.911791 -0.546140
Br4   Br    Br    0.533027 0.141887 0.087931 -0.553894
Br5   Br    Br    0.304370 0.306537 0.602045 -0.512645
Br6   Br    Br    0.695631 0.693477 0.397958 -0.505087
Br7   Br    Br    0.118683 0.831556 0.810144 -0.557698
Br8   Br    Br    0.813453 0.169064 0.110146 -0.530332

loop_
_geom_bond_atom_site_label_1
_geom_bond_atom_site_label_2
_ccdc_geom_bond_type
O17   V3    S    
C55   H23   S    
O1    C5    A    
C23   H11   S    
O19   V1    S    
O13   V1    S    
O3    C7    A    
C10   C14   A    
O1    V3    S    
C44   H16   S    
O15   V3    S    
C10   C30   A    
C43   C47   A    
C9    C29   A    
C30   C34   S    
C1    C60   S    
O7    C3    A    
C18   C22   A    
C28   C32   A    
O9    V1    S    
C47   C51   A    
O16   V4    S    
C4    C57   S    
O4    C8    A    
C29   C33   S    
C56   H24   S    
O2    V4    S    
C14   H6    S    
O3    V1    S    
C37   C41   A    
C21   C25   A    
C1    O15   A    
C48   C52   A    
C2    O16   A    
C23   C27   A    
O2    C6    A    
C24   C28   A    
O14   V2    S    
C41   H13   S    
C26   Br2   S    
C11   C15   A    
N2    N6    A    
C31   C35   S    
N1    N5    A    
C53   C57   A    
C16   C20   A    
O11   C7    A    
C41   C45   A    
O12   C8    A    
C2    C59   S    
C33   C34   T    
O10   V2    S    
N2    C61   A    
C13   C17   A    
N1    C62   A    
C50   H18   S    
O5    V1    S    
C52   H20   S    
C27   C31   A    
C56   C60   A    
O7    V3    S    
C26   C30   A    
O8    V4    S    
C39   C59   A    
C12   H4    S    
C46   C50   A    
C45   C49   A    
O18   V4    S    
C7    C18   S    
C22   C26   A    
C54   H22   S    
C9    H1    S    
N8    C64   A    
C49   C53   A    
C32   C36   S    
C11   H3    S    
O5    C1    A    
C38   C58   A    
C42   H14   S    
C37   C57   A    
C37   Br5   S    
C11   C31   A    
O8    C4    A    
C3    C58   S    
O9    C5    A    
C48   C63   S    
N6    C62   A    
C14   C18   A    
N5    C61   A    
O6    V2    S    
N7    C63   A    
C40   Br8   S    
C12   C16   A    
N4    N8    A    
C52   C56   A    
C22   H10   S    
C8    C17   S    
C3    O13   A    
C21   H9    S    
C10   H2    S    
C40   C44   A    
C25   Br1   S    
O6    C2    A    
N4    C63   A    
C27   Br3   S    
C12   C32   A    
O11   V3    S    
O12   V4    S    
C55   C59   A    
C54   C58   A    
C9    C13   A    
O10   C6    A    
O20   V2    S    
C35   C36   T    
C44   C48   A    
C16   H8    S    
C28   Br4   S    
C43   H15   S    
C15   C19   A    
C38   Br6   S    
C15   H7    S    
C17   C21   A    
C46   C61   S    
C19   C23   A    
C49   H17   S    
C45   C62   S    
O4    V2    S    
C51   H19   S    
C25   C29   A    
C47   C64   S    
C24   H12   S    
C40   C60   A    
C42   C46   A    
C38   C42   A    
C4    O14   A    
C13   H5    S    
N3    C64   A    
N3    N7    A    
C51   C55   A    
C39   C43   A    
C50   C54   A    
C5    C20   S    
C53   H21   S    
C20   C24   A    
C6    C19   S    
C39   Br7   S    
