data_mof_unit_7728.cif
_audit_creation_date              2013-03-05T15:44:18-0500
_audit_creation_method            fapswitch 2.2
_symmetry_space_group_name_H-M    P1
_symmetry_Int_Tables_number       1
_space_group_crystal_system       triclinic
_cell_length_a                    20.808774
_cell_length_b                    7.109341
_cell_length_c                    16.351358
_cell_angle_alpha                 90.000169
_cell_angle_beta                  92.612156
_cell_angle_gamma                 89.999746
_cell_volume                      2416.45196367

loop_
_atom_site_label
_atom_site_type_symbol
_atom_site_description
_atom_site_fract_x
_atom_site_fract_y
_atom_site_fract_z
_atom_type_partial_charge
O1    O     O_R   0.564840 0.505290 0.579830 -0.557097
O2    O     O_R   0.435160 0.005290 0.420170 -0.557096
O3    O     O_R   0.556720 0.179930 0.409350 -0.556384
O4    O     O_R   0.443280 0.679930 0.590650 -0.556388
C1    C     C_R   0.570314 0.344709 0.380952 0.827896
C2    C     C_R   0.429686 0.844710 0.619048 0.827901
O5    O     O_R   0.572280 0.175810 0.578530 -0.556783
O6    O     O_R   0.427720 0.675810 0.421470 -0.556782
O7    O     O_R   0.450830 0.001920 0.590540 -0.548896
O8    O     O_R   0.549170 0.501920 0.409460 -0.548895
C3    C     C_R   0.590099 0.343379 0.604822 0.815635
C4    C     C_R   0.409901 0.843379 0.395178 0.815637
O9    O     O_3   0.460130 0.338030 0.503750 -0.270232
O10   O     O_3   0.539870 0.838030 0.496250 -0.270230
V1    V     V_3+5 0.507400 0.064560 0.499310 1.165409
V2    V     V_3+5 0.492600 0.564560 0.500690 1.165406
C5    C     C_R   0.142834 0.920750 0.169260 -0.149001
C6    C     C_R   0.857163 0.420754 0.830744 -0.148913
C7    C     C_R   0.356285 0.844507 0.332021 -0.100025
C8    C     C_R   0.643714 0.344508 0.667980 -0.100030
C9    C     C_R   0.302583 0.695213 0.212945 -0.063258
C10   C     C_R   0.697414 0.195221 0.787059 -0.063261
C11   C     C_R   0.354920 0.708250 0.269533 -0.094326
C12   C     C_R   0.645078 0.208256 0.730469 -0.094328
C13   C     C_R   0.303848 0.967934 0.337184 -0.087052
C14   C     C_R   0.696151 0.467933 0.662816 -0.087064
C15   C     C_R   0.250069 0.951959 0.281760 0.019405
C16   C     C_R   0.749929 0.451960 0.718242 0.019454
C17   C     C_R   0.249544 0.815259 0.218768 0.077908
C18   C     C_R   0.750454 0.315265 0.781235 0.077913
C19   C     C_R   0.196165 0.801133 0.162692 -0.190293
C20   C     C_R   0.803832 0.301140 0.837313 -0.190340
C21   C     C_R   0.142238 0.049584 0.235155 0.399155
C22   C     C_R   0.857760 0.549583 0.764849 0.399187
C23   C     C_R   0.196159 0.067489 0.289424 -0.101034
C24   C     C_R   0.803839 0.567487 0.710577 -0.101193
H1    H     H_    0.196761 0.700649 0.112844 0.092452
H2    H     H_    0.803236 0.200658 0.887162 0.092445
H3    H     H_    0.303204 0.589211 0.165368 0.062314
H4    H     H_    0.696792 0.089224 0.834638 0.062316
H5    H     H_    0.195206 0.170155 0.338366 0.125141
H6    H     H_    0.804793 0.670152 0.661635 0.125087
H7    H     H_    0.394610 0.610855 0.264637 0.073205
H8    H     H_    0.605387 0.110863 0.735367 0.073205
H9    H     H_    0.303824 0.070886 0.386110 0.115753
H10   H     H_    0.696176 0.570880 0.613889 0.115756
C25   C     C_R   0.380389 0.849490 0.837419 -0.071997
C26   C     C_R   0.619613 0.349417 0.162580 -0.071993
H11   H     H_    0.469874 0.833636 0.777720 0.054808
H12   H     H_    0.530127 0.333561 0.222279 0.054809
H13   H     H_    0.299516 0.840983 0.957811 0.063040
H14   H     H_    0.700487 0.340873 0.042190 0.063038
H15   H     H_    0.403807 0.836790 0.897745 0.062020
H16   H     H_    0.596195 0.336680 0.102254 0.062018
C27   C     C_R   0.389228 0.853553 0.690580 -0.089827
C28   C     C_R   0.610773 0.353545 0.309420 -0.089824
C29   C     C_R   0.078559 0.952942 0.732929 -0.177603
C30   C     C_R   0.921439 0.452991 0.267069 -0.177639
C31   C     C_R   0.113572 0.984799 0.664081 -0.093755
C32   C     C_R   0.886423 0.484874 0.335914 -0.093751
C33   C     C_R   0.180920 0.979978 0.668304 0.353684
C34   C     C_R   0.819076 0.480036 0.331689 0.353673
C35   C     C_R   0.214454 0.921262 0.742295 -0.029140
C36   C     C_R   0.785545 0.421276 0.257702 -0.029138
C37   C     C_R   0.177782 0.899659 0.814025 -0.018956
C38   C     C_R   0.822218 0.399646 0.185975 -0.018947
C39   C     C_R   0.282812 0.889114 0.749079 0.064245
C40   C     C_R   0.717187 0.389108 0.250920 0.064248
C41   C     C_R   0.313237 0.867584 0.828167 0.063154
C42   C     C_R   0.686764 0.367534 0.171832 0.063157
C43   C     C_R   0.276551 0.860021 0.897522 -0.092925
C44   C     C_R   0.723450 0.359946 0.102479 -0.092924
C45   C     C_R   0.209919 0.869933 0.890409 -0.065815
C46   C     C_R   0.790083 0.369877 0.109592 -0.065821
C47   C     C_R   0.321996 0.868779 0.680568 -0.035861
C48   C     C_R   0.678004 0.368796 0.319432 -0.035848
C49   C     C_R   0.418108 0.846265 0.769215 -0.101445
C50   C     C_R   0.581892 0.346212 0.230785 -0.101443
C51   C     C_R   0.109628 0.915171 0.808461 -0.088502
C52   C     C_R   0.890372 0.415178 0.191540 -0.088524
H17   H     H_    0.301507 0.857822 0.619010 0.111755
H18   H     H_    0.698494 0.357871 0.380992 0.111746
H19   H     H_    0.026750 0.969758 0.728273 0.102551
H20   H     H_    0.973247 0.469822 0.271726 0.102554
H21   H     H_    0.087955 0.027901 0.608041 0.115907
H22   H     H_    0.912039 0.528009 0.391952 0.115893
H23   H     H_    0.183716 0.857116 0.945859 0.041663
H24   H     H_    0.816287 0.357038 0.054143 0.041669
O11   O     O_R   0.950790 0.256670 0.090520 -0.547427
O12   O     O_R   0.049210 0.756670 0.909480 -0.547395
O13   O     O_R   0.927720 0.590370 0.921470 -0.527616
O14   O     O_R   0.072280 0.090370 0.078530 -0.527635
C53   C     C_R   0.910287 0.422309 0.894745 0.837593
C54   C     C_R   0.089713 0.922308 0.105254 0.837481
O15   O     O_R   0.943270 0.586180 0.090640 -0.562789
O16   O     O_R   0.056730 0.086180 0.909360 -0.562776
O17   O     O_R   0.064850 0.759970 0.079840 -0.560771
O18   O     O_R   0.935150 0.259970 0.920160 -0.560774
C55   C     C_R   0.930241 0.418194 0.118938 0.832785
C56   C     C_R   0.069759 0.918192 0.881062 0.832811
O19   O     O_3   0.039850 0.428050 0.996240 -0.278809
O20   O     O_3   0.960150 0.928050 0.003760 -0.278820
V3    V     V_3+5 0.992610 0.701540 0.000700 1.161463
V4    V     V_3+5 0.007390 0.201540 0.999300 1.161458
N1    N     N_R   0.213146 0.063549 0.601566 0.061806
O21   O     O_R   0.253839 0.200018 0.615777 -0.374744
O22   O     O_R   0.193401 0.028778 0.526412 -0.396418
N2    N     N_R   0.786846 0.563638 0.398419 0.061805
O23   O     O_R   0.746147 0.700088 0.384192 -0.374745
O24   O     O_R   0.806594 0.528921 0.473578 -0.396471
O25   O     O_3   0.088905 0.160586 0.246617 -0.635338
C57   C     C_3   0.048188 0.062269 0.298486 0.172710
H25   H     H_    0.072134 0.037638 0.359866 0.060934
H26   H     H_    0.031730 0.926479 0.270716 0.018213
H27   H     H_    0.004786 0.148352 0.307679 0.071655
O26   O     O_3   0.911100 0.660561 0.753397 -0.635334
C58   C     C_3   0.951730 0.562440 0.701341 0.172461
H28   H     H_    0.927744 0.538500 0.639923 0.061151
H29   H     H_    0.968097 0.426284 0.728872 0.018226
H30   H     H_    0.995196 0.648349 0.692283 0.071681

loop_
_geom_bond_atom_site_label_1
_geom_bond_atom_site_label_2
_geom_bond_distance
_ccdc_geom_bond_type
C35   C37   1.436351 A    
C37   C51   1.421267 A    
C15   C17   1.415792 A    
C29   C51   1.393778 A    
C1    C28   1.473277 S    
C24   H6    1.083978 S    
O25   C57   1.411116 S    
O1    C3    1.322372 A    
C2    C27   1.473277 S    
O2    C4    1.322375 A    
C2    O7    1.295661 A    
C57   H26   1.114123 S    
C37   C45   1.405603 A    
O26   C58   1.411204 S    
C26   H16   1.083896 S    
N1    O22   1.301554 A    
H13   C43   1.084228 S    
O11   C55   1.317391 A    
C28   C48   1.405306 A    
C36   C40   1.439983 A    
C58   H29   1.114297 S    
C27   C49   1.395223 A    
O15   C55   1.313517 A    
C29   C31   1.387172 A    
C34   N2    1.435372 S    
C22   O26   1.381490 S    
C38   C46   1.405618 A    
C28   C50   1.395246 A    
N2    O23   1.301693 A    
C32   C34   1.400387 A    
C26   C50   1.392895 A    
C33   C35   1.431075 A    
C25   C41   1.404549 A    
C34   C36   1.431087 A    
C45   H23   1.082920 S    
C8    C12   1.407312 A    
N2    O24   1.301569 A    
C29   H19   1.083904 S    
C21   O25   1.381491 S    
C20   H2    1.084327 S    
C33   N1    1.435360 S    
O13   V3    1.991688 S    
C30   C52   1.393792 A    
C25   H15   1.083880 S    
C27   C47   1.405298 A    
O5    V1    1.991679 S    
O6    V2    1.991676 S    
C17   C19   1.411298 A    
C5    C21   1.414646 A    
C7    C13   1.405739 A    
H12   C50   1.083551 S    
O12   C56   1.317388 A    
C57   H25   1.113854 S    
O15   V3    2.006780 S    
O5    C3    1.314148 A    
C35   C39   1.439981 A    
C3    C8    1.485343 S    
C31   C33   1.400386 A    
C41   C43   1.396633 A    
C51   C56   1.479118 S    
C44   C46   1.387915 A    
C58   H30   1.106900 S    
C48   H18   1.077922 S    
C43   C45   1.387909 A    
C32   H22   1.083155 S    
C47   H17   1.077906 S    
C54   O17   1.323922 A    
C15   C23   1.400550 A    
C9    C17   1.401832 A    
C19   H1    1.084325 S    
C39   C41   1.421962 A    
C36   C38   1.436357 A    
O4    V2    2.006824 S    
C7    C11   1.407310 A    
C31   H21   1.083146 S    
H14   C44   1.084241 S    
C30   H20   1.083906 S    
O13   C53   1.317447 A    
C9    H3    1.083608 S    
O6    C4    1.314149 A    
C10   H4    1.083610 S    
O14   C54   1.317447 A    
O1    V2    1.983555 S    
O20   V4    2.181423 S    
O2    V1    1.983554 S    
C6    C22   1.414619 A    
O17   V3    1.982296 S    
O4    C2    1.296135 A    
O19   V4    1.747861 S    
C9    C11   1.399633 A    
O11   V4    1.981332 S    
C13   C15   1.412121 A    
C12   H8    1.083513 S    
C10   C12   1.399631 A    
C6    C20   1.406094 A    
C25   C49   1.392888 A    
C13   H9    1.084316 S    
O3    V1    2.006829 S    
C6    C53   1.487234 S    
C10   C18   1.401835 A    
C11   H7    1.083514 S    
C26   C42   1.404555 A    
O3    C1    1.296132 A    
C40   C48   1.422654 A    
C38   C52   1.421271 A    
N1    O21   1.301681 A    
C14   C16   1.412119 A    
O16   V4    2.006773 S    
O7    V1    1.992323 S    
C1    O8    1.295664 A    
C52   C55   1.479120 S    
O8    V2    1.992315 S    
C58   H28   1.113988 S    
C18   C20   1.411301 A    
C8    C14   1.405738 A    
C5    C19   1.406096 A    
O16   C56   1.313520 A    
C4    C7    1.485346 S    
C16   C18   1.415796 A    
C21   C23   1.404222 A    
H11   C49   1.083545 S    
C22   C24   1.404243 A    
O20   V3    1.747855 S    
C23   H5    1.083976 S    
O12   V3    1.981336 S    
O14   V4    1.991686 S    
C39   C47   1.422651 A    
C16   C24   1.400550 A    
O19   V3    2.181415 S    
O9    V2    1.748073 S    
C40   C42   1.421980 A    
O10   V1    1.748067 S    
C42   C44   1.396636 A    
C5    C54   1.487235 S    
C46   H24   1.082924 S    
C14   H10   1.084317 S    
C30   C32   1.387178 A    
C53   O18   1.323922 A    
O18   V4    1.982295 S    
C57   H27   1.106876 S    
