data_mof_unit_40073.cif
_audit_creation_date              2012-12-11T14:08:18-0500
_audit_creation_method            fapswitch 2.2
_symmetry_space_group_name_H-M    P1
_symmetry_Int_Tables_number       1
_space_group_crystal_system       triclinic
_cell_length_a                    10.93183
_cell_length_b                    10.954135
_cell_length_c                    18.685199
_cell_angle_alpha                 90.583184
_cell_angle_beta                  90.074544
_cell_angle_gamma                 60.542299
_cell_volume                      1948.14050414

loop_
_atom_site_label
_atom_site_type_symbol
_atom_type_description
_atom_site_fract_x
_atom_site_fract_y
_atom_site_fract_z
_atom_type_partial_charge
C1    C     C_R   0.237743 0.645070 0.609141 0.541380
C2    C     C_3   0.580138 0.644226 0.801597 -0.268441
C3    C     C_3   0.705750 0.669508 0.812273 0.082242
C4    C     C_3   0.673495 0.642815 0.676857 0.022821
C5    C     C_3   0.827499 0.537354 0.699801 -0.196697
C6    C     C_3   0.569624 0.615179 0.721938 -0.234244
C7    C     C_2   0.672294 0.164639 0.672547 -0.109908
C8    C     C_2   0.682429 0.177123 0.830728 -0.067760
C9    C     C_2   0.791711 0.142723 0.786761 -0.061533
C10   C     C_2   0.770721 0.176628 0.710259 -0.133359
C11   C     C_2   0.185502 0.661215 0.682367 -0.098672
C12   C     C_R   0.653885 0.620507 0.601718 0.542302
C13   C     C_2   0.197964 0.661282 0.840422 -0.093264
C14   C     C_2   0.198120 0.558713 0.800651 -0.148361
C15   C     C_2   0.226042 0.547350 0.723426 -0.165302
C16   C     C_2   0.652219 0.647517 0.318366 -0.051491
C17   C     C_2   0.629986 0.661387 0.157061 0.153975
C18   C     C_2   0.712136 0.549968 0.197104 -0.147272
C19   C     C_2   0.686417 0.540376 0.272329 -0.134067
C20   C     C_2   0.639876 0.173930 0.324393 0.186496
C21   C     C_2   0.632670 0.221179 0.155711 -0.075360
C22   C     C_2   0.542608 0.230921 0.205408 -0.117931
C23   C     C_R   0.627184 0.229819 0.602558 0.543442
C24   C     C_2   0.563979 0.271558 0.275901 -0.116909
C25   C     C_2   0.129835 0.679038 0.341009 -0.117466
C26   C     C_2   0.022473 0.740593 0.195417 -0.056625
C27   C     C_2   0.022417 0.838419 0.240277 0.193060
C28   C     C_2   0.060116 0.809223 0.315717 -0.071547
C29   C     C_R   0.701629 0.105199 0.898676 0.578320
C30   C     C_R   0.725112 0.687442 0.888341 0.588787
C31   C     C_R   0.120254 0.705689 0.907888 0.586633
C32   C     C_R   0.671961 0.118049 0.099141 0.569183
C33   C     C_R   0.691982 0.688316 0.094382 0.562216
C34   C     C_R   0.217998 0.650052 0.403126 0.556745
C35   C     C_R   0.018354 0.752677 0.118000 0.586978
C36   C     C_R   0.642023 0.621574 0.393208 0.559425
C37   C     C_R   0.618617 0.224545 0.396658 0.581051
C38   C     C_3   0.677246 0.805116 0.770546 -0.012676
C39   C     C_3   0.643812 0.793241 0.691482 -0.231962
C40   C     C_3   0.842446 0.542750 0.780075 0.044543
Cr1   Cr    Cr6+3 0.393010 0.398050 0.501480 1.043181
Cr2   Cr    Cr6+3 0.398820 0.707980 0.501630 1.052319
Cr3   Cr    Cr6+3 0.708140 0.393940 0.496850 1.035083
Cr4   Cr    Cr6+3 0.937950 0.938450 0.008940 1.107136
Cr5   Cr    Cr6+3 0.626180 0.937030 0.994750 1.072329
Cr6   Cr    Cr6+3 0.937790 0.625760 0.001410 1.071399
H1    H     H_    0.594394 0.504316 0.714551 0.144186
H2    H     H_    0.858838 0.427622 0.684319 0.178850
H3    H     H_    0.836597 0.212640 0.685188 0.167679
H4    H     H_    0.575800 0.238649 0.810846 0.093736
H5    H     H_    0.610803 0.123150 0.697531 0.128835
H6    H     H_    0.169650 0.485667 0.823919 0.167058
H7    H     H_    0.234416 0.728751 0.817711 0.104385
H8    H     H_    0.586258 0.899846 0.794215 0.161870
H9    H     H_    0.130150 0.766123 0.705462 0.148384
H10   H     H_    0.812610 0.467567 0.177070 0.155881
H11   H     H_    0.715020 0.436534 0.291740 0.156217
H12   H     H_    0.625762 0.751560 0.300740 0.186982
H13   H     H_    0.484433 0.174409 0.200248 0.204525
H14   H     H_    0.516481 0.382977 0.288436 0.114458
H15   H     H_    0.699857 0.267232 0.165087 0.138976
H16   H     H_    0.531297 0.869005 0.680873 0.121109
H17   H     H_    0.027261 0.646069 0.215635 0.073765
H18   H     H_    0.140622 0.588532 0.311700 0.103530
H19   H     H_    0.707195 0.819794 0.654805 0.162766
H20   H     H_    0.901866 0.563815 0.672456 0.137211
H21   H     H_    0.592182 0.554346 0.833996 0.163887
H22   H     H_    0.481433 0.738439 0.819464 0.111335
H23   H     H_    0.459333 0.683140 0.704226 0.138219
O1    O     O_R   0.507110 0.256280 0.580300 -0.517972
O2    O     O_R   0.524640 0.695370 0.425100 -0.472940
O3    O     O_R   0.735890 0.504390 0.415980 -0.509910
O4    O     O_R   0.690560 0.277820 0.422350 -0.505930
O5    O     O_3   0.499990 0.499990 0.499980 -0.269371
O6    O     O_R   0.089190 0.825870 0.932320 -0.495719
O7    O     O_R   0.819070 0.053960 0.931440 -0.476305
O8    O     O_R   0.607070 0.076440 0.916460 -0.514398
O9    O     O_R   0.647110 0.806550 0.917690 -0.508038
O10   O     O_R   0.837080 0.593860 0.915300 -0.463869
O11   O     O_R   0.064770 0.636080 0.932550 -0.483770
O12   O     O_R   0.280830 0.527190 0.577940 -0.500261
O13   O     O_R   0.068250 0.829200 0.092940 -0.435460
O14   O     O_R   0.799650 0.057040 0.080330 -0.486465
O15   O     O_R   0.586130 0.079760 0.077080 -0.499042
O16   O     O_R   0.627700 0.809630 0.066580 -0.458381
O17   O     O_R   0.816140 0.597180 0.075920 -0.539674
O18   O     O_R   0.045360 0.639170 0.081440 -0.507808
O19   O     O_3   0.833980 0.833750 0.001700 -0.294000
O20   O     O_R   0.261360 0.738990 0.584270 -0.517289
O21   O     O_R   0.532590 0.694780 0.574370 -0.505060
O22   O     O_R   0.744470 0.503750 0.577000 -0.530957
O23   O     O_R   0.698520 0.277230 0.571620 -0.499411
O24   O     O_R   0.498530 0.256920 0.419280 -0.494427
O25   O     O_R   0.272880 0.527780 0.428680 -0.497511
O26   O     O_R   0.252780 0.739630 0.423250 -0.496758
Br1   Br    Br    0.839037 0.834583 0.775230 -0.636708
Br2   Br    Br    0.895022 0.360835 0.822415 -0.602399
H24   H     H_    0.898888 0.081846 0.805903 0.202505
H25   H     H_    0.279639 0.442549 0.700103 0.156818
Br3   Br    Br    0.439415 0.795772 0.183839 -0.433376
Br4   Br    Br    0.700347 0.978825 0.309212 -0.563187
Br5   Br    Br    0.992073 0.019966 0.211492 -0.439445
H26   H     H_    0.052160 0.895851 0.348145 0.190730
H27   H     H_    0.934881 0.556285 0.790632 0.191749

loop_
_geom_bond_atom_site_label_1
_geom_bond_atom_site_label_2
_ccdc_geom_bond_type
Cr3   O4    S    
C7    C10   D    
C32   O14   A    
Cr3   O3    S    
C6    H23   S    
C12   O22   A    
C1    C11   S    
C33   O17   A    
Cr4   O14   S    
C31   O11   A    
C29   O7    A    
C19   H11   S    
C25   C28   D    
C26   C27   D    
C9    H24   S    
C8    C29   S    
C12   O21   A    
C2    H22   S    
Cr6   O10   S    
C1    O12   A    
C18   C19   S    
Cr4   O7    S    
C33   O16   A    
Cr1   O5    S    
C11   C15   D    
C14   H6    S    
C20   C24   D    
Cr4   O6    S    
C8    C9    D    
Cr5   O9    S    
C13   C14   D    
C4    C12   S    
C9    C10   S    
Cr6   O19   S    
C36   O2    A    
C18   H10   S    
C25   C34   S    
Cr3   O5    S    
C21   C22   D    
C39   H19   S    
C23   O1    A    
C2    C6    S    
C17   C33   S    
C5    H2    S    
C35   O13   A    
C13   H7    S    
C32   O15   A    
C21   C32   S    
Cr1   O24   S    
Cr2   O5    S    
C6    H1    S    
Cr2   O26   S    
Cr5   O19   S    
C34   O26   A    
C3    C38   S    
C4    C6    S    
C2    H21   S    
C22   H13   S    
C5    H20   S    
C20   Br4   S    
Cr3   O22   S    
Cr2   O21   S    
C25   H18   S    
C3    C30   S    
Cr5   O16   S    
C26   H17   S    
C40   H27   S    
C31   O6    A    
Cr1   O25   S    
C38   H8    S    
C4    C39   S    
C24   H14   S    
Cr1   O12   S    
C17   C18   D    
C37   O24   A    
C16   H12   S    
C30   O10   A    
C3    C40   S    
C22   C24   S    
Cr5   O15   S    
C8    H4    S    
C40   Br2   S    
C11   H9    S    
Cr6   O18   S    
C35   O18   A    
C39   H16   S    
C37   O4    A    
C1    O20   A    
C23   O23   A    
C21   H15   S    
C13   C31   S    
C34   O25   A    
C15   H25   S    
C4    C5    S    
C27   Br5   S    
Cr4   O13   S    
Cr3   O23   S    
Cr2   O20   S    
C2    C3    S    
C7    H5    S    
C16   C36   S    
Cr6   O11   S    
C20   C37   S    
C28   H26   S    
C38   C39   S    
C16   C19   D    
C7    C23   S    
Cr2   O2    S    
C17   Br3   S    
C30   O9    A    
C26   C35   S    
C29   O8    A    
C5    C40   S    
C38   Br1   S    
C27   C28   S    
C14   C15   S    
Cr5   O8    S    
Cr4   O19   S    
C10   H3    S    
C36   O3    A    
Cr1   O1    S    
Cr6   O17   S    
