data_mof_unit_8582.cif
_audit_creation_date              2012-12-10T17:25:37-0500
_audit_creation_method            fapswitch 2.2
_symmetry_space_group_name_H-M    P1
_symmetry_Int_Tables_number       1
_space_group_crystal_system       triclinic
_cell_length_a                    10.43345
_cell_length_b                    10.422919
_cell_length_c                    23.025181
_cell_angle_alpha                 93.206256
_cell_angle_beta                  80.374629
_cell_angle_gamma                 95.125044
_cell_volume                      2456.65657169

loop_
_atom_site_label
_atom_site_type_symbol
_atom_type_description
_atom_site_fract_x
_atom_site_fract_y
_atom_site_fract_z
_atom_type_partial_charge
C1    C     C_R   0.553974 0.734166 0.493755 0.824688
C2    C     C_R   0.396302 0.394756 0.307050 0.051253
C3    C     C_R   0.412985 0.648136 0.763645 0.407925
C4    C     C_R   0.354289 0.418977 0.254631 0.455625
C5    C     C_R   0.434396 0.546094 0.797679 0.083300
C6    C     C_R   0.439488 0.491134 0.211785 -0.018048
C7    C     C_2   0.578992 0.870880 0.480330 0.186530
C8    C     C_2   0.419386 0.126429 0.492102 0.183540
C9    C     C_2   0.496531 0.923411 0.450681 0.359157
C10   C     C_2   0.499847 0.064133 0.450013 0.362869
C11   C     C_2   0.928944 0.514838 0.504110 0.318364
C12   C     C_R   0.445863 0.265518 0.501044 0.823692
C13   C     C_2   0.070464 0.483955 0.496794 0.334162
C14   C     C_R   0.499385 0.504822 0.610740 0.913863
C15   C     C_R   0.500922 0.495374 0.389004 0.926994
C16   C     C_R   0.356924 0.410377 0.122667 0.534547
C17   C     C_R   0.462396 0.651532 0.891811 0.562445
C18   C     C_R   0.415397 0.635101 0.135556 0.565128
C19   C     C_R   0.313900 0.464828 0.888923 0.608712
C20   C     C_R   0.404656 0.654529 0.076480 -0.152007
C21   C     C_R   0.303654 0.453800 0.950056 -0.138483
C22   C     C_R   0.356259 0.548927 0.043198 -0.089519
C23   C     C_R   0.489089 0.434653 0.770641 0.446535
C24   C     C_R   0.359126 0.557551 0.982419 -0.090311
C25   C     C_R   0.312629 0.431307 0.069982 -0.112876
C26   C     C_R   0.425406 0.666199 0.953370 -0.121776
C27   C     C_R   0.445648 0.773072 0.048992 0.442455
C28   C     C_R   0.239454 0.344432 0.979837 0.436507
C29   C     C_R   0.456844 0.779859 0.987242 0.116862
C30   C     C_R   0.237217 0.336576 0.040795 0.118795
C31   C     C_3   0.491140 0.912132 0.960622 -0.296091
C32   C     C_3   0.383685 0.003282 0.980558 -0.839953
C33   C     C_3   0.146497 0.232190 0.073805 -0.335160
C34   C     C_R   0.564252 0.540209 0.223995 0.451170
C35   C     C_3   0.003361 0.251992 0.072805 -0.775544
C36   C     C_3   0.575528 0.300187 0.678770 -0.389601
C37   C     C_3   0.468261 0.204180 0.660852 -0.811558
C38   C     C_3   0.713101 0.617335 0.297150 -0.317709
C39   C     C_3   0.685057 0.749753 0.325422 -0.791879
C40   C     C_3   0.446968 0.759420 0.667145 -0.317922
C41   C     C_3   0.584124 0.823369 0.649448 -0.871838
C42   C     C_3   0.339587 0.274689 0.339574 -0.372790
C43   C     C_3   0.385278 0.153675 0.304582 -0.724951
C44   C     C_3   0.115009 0.372287 0.455814 -0.403626
C45   C     C_R   0.519274 0.421746 0.708474 -0.012671
C46   C     C_3   0.062511 0.241556 0.481151 -0.761166
C47   C     C_3   0.884598 0.627147 0.545456 -0.391557
C48   C     C_3   0.941942 0.757178 0.520629 -0.777195
C49   C     C_R   0.589505 0.543407 0.282346 0.055088
C50   C     C_R   0.495487 0.523741 0.674546 -0.210219
C51   C     C_R   0.498711 0.476214 0.325315 -0.244407
C52   C     C_R   0.450613 0.640315 0.702305 0.065681
H1    H     H_    0.408069 0.898736 0.111820 0.364390
H2    H     H_    0.980293 0.349108 0.091936 0.251215
H3    H     H_    0.980717 0.242048 0.027312 0.306024
H4    H     H_    0.939829 0.178367 0.099574 0.253823
H5    H     H_    0.169042 0.135640 0.053978 0.230091
H6    H     H_    0.155158 0.232201 0.120982 0.251398
H7    H     H_    0.490056 0.254956 0.788324 0.349967
H8    H     H_    0.643944 0.552712 0.141708 0.344176
H9    H     H_    0.411032 0.249292 0.632175 0.249393
H10   H     H_    0.512662 0.120629 0.635984 0.259733
H11   H     H_    0.401302 0.169150 0.700481 0.266025
H12   H     H_    0.252377 0.213562 0.917631 0.365789
H13   H     H_    0.649514 0.323285 0.639614 0.237406
H14   H     H_    0.630886 0.253153 0.707636 0.225045
H15   H     H_    0.613906 0.739805 0.366551 0.255775
H16   H     H_    0.776500 0.801226 0.336220 0.243606
H17   H     H_    0.644995 0.807838 0.294683 0.283783
H18   H     H_    0.760493 0.561887 0.326095 0.224663
H19   H     H_    0.787795 0.631731 0.257171 0.252392
H20   H     H_    0.627214 0.855403 0.689334 0.292990
H21   H     H_    0.647535 0.755541 0.622197 0.239611
H22   H     H_    0.579923 0.908583 0.623341 0.254506
H23   H     H_    0.198977 0.648270 0.588890 0.380006
H24   H     H_    0.401426 0.736295 0.627403 0.202313
H25   H     H_    0.386753 0.832380 0.692718 0.264324
H26   H     H_    0.350948 0.145253 0.261288 0.298822
H27   H     H_    0.493475 0.156506 0.297260 0.263583
H28   H     H_    0.345082 0.067106 0.329626 0.226721
H29   H     H_    0.371092 0.273111 0.383101 0.188442
H30   H     H_    0.231721 0.268785 0.346156 0.241120
H31   H     H_    0.303378 0.736252 0.827988 0.340476
H32   H     H_    0.197281 0.426666 0.220593 0.335348
H33   H     H_    0.640735 0.067905 0.383416 0.340035
H34   H     H_    0.800451 0.349722 0.411754 0.403526
H35   H     H_    0.351599 0.904736 0.407156 0.334073
H36   H     H_    0.276930 0.119446 0.557968 0.335533
H37   H     H_    0.719607 0.895161 0.525745 0.330838
H38   H     H_    0.095601 0.232057 0.523985 0.254480
H39   H     H_    0.954510 0.229246 0.488492 0.293745
H40   H     H_    0.100355 0.162931 0.450205 0.250625
H41   H     H_    0.096307 0.382902 0.410656 0.242778
H42   H     H_    0.219050 0.372622 0.447522 0.239574
H43   H     H_    0.049706 0.763025 0.509455 0.297651
H44   H     H_    0.902889 0.772978 0.479823 0.258323
H45   H     H_    0.289573 0.959975 0.968943 0.263481
H46   H     H_    0.914873 0.835796 0.553749 0.247282
H47   H     H_    0.780335 0.630277 0.553595 0.240049
H48   H     H_    0.901664 0.616069 0.590971 0.244097
H49   H     H_    0.371380 0.026069 0.028615 0.286979
H50   H     H_    0.410106 0.095490 0.957898 0.256637
H51   H     H_    0.584352 0.955427 0.973225 0.246766
H52   H     H_    0.504024 0.909443 0.912167 0.256771
N1    N     N_R   0.401501 0.512644 0.155817 -0.348035
N2    N     N_R   0.401721 0.555402 0.860871 -0.326410
N3    N     N_2   0.842710 0.448880 0.476480 0.017021
N4    N     N_2   0.157290 0.551120 0.523520 0.023774
O1    O     O_R   0.431060 0.692470 0.504730 -0.547746
O2    O     O_2   0.562887 0.726076 0.863267 -0.542332
O3    O     O_2   0.446125 0.735271 0.171716 -0.507971
O4    O     O_2   0.239652 0.385611 0.857277 -0.520930
O5    O     O_3   0.483403 0.881665 0.080780 -0.709748
O6    O     O_3   0.184442 0.240627 0.950312 -0.731043
O7    O     O_3   0.117862 0.611320 0.575422 -0.713851
O8    O     O_3   0.881836 0.384919 0.425543 -0.716057
O9    O     O_3   0.511157 0.340443 0.806845 -0.746294
O10   O     O_3   0.660062 0.590766 0.180476 -0.733700
O11   O     O_3   0.355654 0.756781 0.789184 -0.748186
O12   O     O_R   0.568940 0.307530 0.495270 -0.538166
O13   O     O_3   0.230607 0.369988 0.246782 -0.737705
O14   O     O_3   0.591489 0.131387 0.409888 -0.785003
O15   O     O_3   0.402938 0.847390 0.425494 -0.765737
O16   O     O_3   0.320463 0.058058 0.528258 -0.785497
O17   O     O_3   0.678166 0.947817 0.500839 -0.788679
O18   O     O_R   0.651120 0.659650 0.489640 -0.640827
O19   O     O_R   0.348880 0.340350 0.510360 -0.649084
O20   O     O_R   0.389950 0.516450 0.591390 -0.615224
O21   O     O_R   0.610050 0.483550 0.408610 -0.604378
O22   O     O_R   0.610020 0.483630 0.576300 -0.650170
O23   O     O_R   0.389980 0.516370 0.423700 -0.618616
O24   O     O_2   0.364412 0.289011 0.138600 -0.547008
Zn1   Zn    Zn3+2 0.353060 0.521920 0.510080 0.975198
Zn2   Zn    Zn3+2 0.646940 0.478080 0.489920 0.969173

loop_
_geom_bond_atom_site_label_1
_geom_bond_atom_site_label_2
_ccdc_geom_bond_type
C34   O10   S    
C38   H18   S    
C33   H6    S    
C23   C45   A    
C48   H43   S    
C27   C29   A    
C39   H16   S    
C11   C47   S    
C42   H30   S    
H36   O16   S    
C17   O2    S    
C37   H10   S    
C14   O20   A    
C38   C49   S    
H37   O17   S    
C19   O4    S    
C43   H26   S    
C17   C26   A    
N4    O7    S    
C36   C37   S    
C19   C21   A    
C24   C26   A    
N3    Zn2   S    
C38   C39   S    
C33   C35   S    
C36   H14   S    
C46   H40   S    
C43   H27   S    
C25   C30   A    
C47   H47   S    
C32   H45   S    
H34   O8    S    
H31   O11   S    
C44   H41   S    
C1    O1    A    
C41   H22   S    
C12   O12   A    
C47   C48   S    
C44   C46   S    
C49   C51   A    
C22   C25   A    
C15   O21   A    
C32   H49   S    
C50   C52   A    
H8    O10   S    
C15   C51   S    
C9    C10   S    
C18   C20   A    
C22   C24   A    
H7    O9    S    
C35   H2    S    
O22   Zn2   S    
C42   H29   S    
C13   N4    D    
C37   H11   S    
H1    O5    S    
C5    N2    S    
H12   O6    S    
O1    Zn1   S    
H33   O14   S    
C18   O3    S    
C4    C6    A    
C12   O19   A    
C36   H13   S    
C8    O16   S    
C46   H39   S    
C10   O14   S    
H32   O13   S    
C40   C52   S    
C35   H3    S    
C7    O17   S    
C47   H48   S    
C40   H24   S    
C31   H51   S    
C2    C4    A    
C31   C32   S    
C5    C23   A    
C8    C12   S    
C39   H17   S    
C36   C45   S    
C1    O18   A    
C3    O11   S    
C16   N1    A    
C41   H20   S    
C27   O5    S    
C40   C41   S    
C21   C28   A    
C20   C22   A    
C11   N3    D    
C32   H50   S    
H23   O7    S    
C42   C43   S    
C3    C5    A    
C14   O22   A    
C16   C25   A    
C7    C9    D    
C38   H19   S    
C34   C49   A    
C33   H5    S    
C48   H44   S    
C30   C33   S    
C35   H4    S    
C1    C7    S    
C39   H15   S    
O19   Zn1   S    
O23   Zn1   S    
C23   O9    S    
C37   H9    S    
C3    C52   A    
C46   H38   S    
C20   C27   A    
C48   H46   S    
C31   H52   S    
C28   C30   A    
C43   H28   S    
C18   N1    A    
N4    Zn1   S    
C29   C31   S    
C17   N2    A    
H35   O15   S    
C11   C13   S    
C14   C50   S    
C45   C50   A    
C2    C42   S    
C28   O6    S    
C9    O15   S    
C6    N1    S    
C4    O13   S    
O12   Zn2   S    
C16   O24   S    
N3    O8    S    
C44   H42   S    
C2    C51   A    
C41   H21   S    
O21   Zn2   S    
C19   N2    A    
C6    C34   A    
C15   O23   A    
O18   Zn2   S    
C26   C29   A    
C8    C10   D    
C21   C24   A    
C40   H25   S    
O20   Zn1   S    
C13   C44   S    
