data_mof_unit_47470.cif
_audit_creation_date              2013-03-05T15:44:28-0500
_audit_creation_method            fapswitch 2.2
_symmetry_space_group_name_H-M    P1
_symmetry_Int_Tables_number       1
_space_group_crystal_system       triclinic
_cell_length_a                    19.947863
_cell_length_b                    7.219087
_cell_length_c                    19.694329
_cell_angle_alpha                 88.841438
_cell_angle_beta                  98.578165
_cell_angle_gamma                 89.211906
_cell_volume                      2803.38568156

loop_
_atom_site_label
_atom_site_type_symbol
_atom_site_description
_atom_site_fract_x
_atom_site_fract_y
_atom_site_fract_z
_atom_type_partial_charge
O1    O     O_R   0.673210 0.377390 0.686390 -0.559513
O2    O     O_R   0.326790 0.622610 0.313610 -0.559513
O3    O     O_R   0.826790 0.877390 0.813610 -0.515397
O4    O     O_R   0.173210 0.122610 0.186390 -0.515397
O5    O     O_R   0.810750 0.706450 0.681250 -0.500290
O6    O     O_R   0.189250 0.293550 0.318750 -0.500290
O7    O     O_R   0.689250 0.206450 0.818750 -0.548839
O8    O     O_R   0.310750 0.793550 0.181250 -0.548839
C1    C     C_R   0.830395 0.538991 0.664562 0.877345
C2    C     C_R   0.169605 0.461009 0.335438 0.877345
C3    C     C_R   0.669898 0.037643 0.835574 0.879924
C4    C     C_R   0.330102 0.962357 0.164426 0.879924
O9    O     O_R   0.672750 0.707060 0.678240 -0.512574
O10   O     O_R   0.327250 0.292940 0.321760 -0.512574
O11   O     O_R   0.827250 0.207060 0.821760 -0.561482
O12   O     O_R   0.172750 0.792940 0.178240 -0.561483
O13   O     O_R   0.687800 0.877990 0.810580 -0.505845
O14   O     O_R   0.312200 0.122010 0.189420 -0.505846
O15   O     O_R   0.812200 0.377990 0.689420 -0.563112
O16   O     O_R   0.187800 0.622010 0.310580 -0.563112
C5    C     C_R   0.647745 0.541589 0.661677 0.860489
C6    C     C_R   0.352255 0.458410 0.338323 0.860489
C7    C     C_R   0.852070 0.035956 0.837997 0.866444
C8    C     C_R   0.147930 0.964044 0.162003 0.866444
O17   O     O_3   0.755100 0.544060 0.793420 -0.249442
O18   O     O_3   0.244900 0.455940 0.206580 -0.249442
O19   O     O_3   0.744900 0.044060 0.706580 -0.260269
O20   O     O_3   0.255100 0.955940 0.293420 -0.260269
V1    V     V_3+5 0.749050 0.818670 0.741950 1.326862
V2    V     V_3+5 0.250950 0.181330 0.258050 1.326862
V3    V     V_3+5 0.750950 0.318670 0.758050 1.250454
V4    V     V_3+5 0.249050 0.681330 0.241950 1.250454
C9    C     C_R   0.085553 0.985229 0.110384 -0.120680
C10   C     C_R   0.914447 0.014770 0.889616 -0.120680
C11   C     C_R   0.414006 0.455356 0.391643 -0.125582
C12   C     C_R   0.585994 0.544644 0.608357 -0.125582
C13   C     C_R   0.023862 0.861278 0.928965 -0.050688
C14   C     C_R   0.976138 0.138721 0.071035 -0.050689
C15   C     C_R   0.480021 0.694378 0.553863 -0.050703
C16   C     C_R   0.519979 0.305622 0.446137 -0.050703
C17   C     C_R   0.968562 0.897310 0.877300 0.358739
C18   C     C_R   0.031438 0.102690 0.122700 0.358739
C19   C     C_R   0.534578 0.682639 0.607765 0.362229
C20   C     C_R   0.465422 0.317361 0.392235 0.362229
C21   C     C_R   0.917985 0.097659 0.954064 -0.128501
C22   C     C_R   0.082015 0.902341 0.045936 -0.128501
C23   C     C_R   0.579901 0.417122 0.554686 -0.118287
C24   C     C_R   0.420099 0.582878 0.445314 -0.118287
C25   C     C_R   0.973407 0.060006 0.006238 0.018053
C26   C     C_R   0.026593 0.939994 0.993762 0.018053
C27   C     C_R   0.525060 0.429813 0.500340 0.019923
C28   C     C_R   0.474940 0.570186 0.499660 0.019923
H1    H     H_    0.123462 0.813494 0.035714 0.109039
H2    H     H_    0.876538 0.186506 0.964286 0.109039
H3    H     H_    0.381091 0.688733 0.445802 0.117573
H4    H     H_    0.618909 0.311267 0.554198 0.117573
H5    H     H_    0.064703 0.770820 0.918405 0.123429
H6    H     H_    0.935297 0.229180 0.081595 0.123429
H7    H     H_    0.441392 0.801169 0.554473 0.125643
H8    H     H_    0.558608 0.198831 0.445527 0.125643
C29   C     C_R   0.574248 0.169734 0.888640 -0.092800
C30   C     C_R   0.425752 0.830267 0.111360 -0.092801
C31   C     C_R   0.923953 0.377929 0.617080 -0.074837
C32   C     C_R   0.076047 0.622071 0.382920 -0.074837
C33   C     C_R   0.622076 0.025953 0.886844 -0.159480
C34   C     C_R   0.377924 0.974047 0.113156 -0.159481
C35   C     C_R   0.878927 0.530446 0.613937 -0.159747
C36   C     C_R   0.121073 0.469554 0.386063 -0.159747
C37   C     C_R   0.621887 0.870006 0.931999 0.311946
C38   C     C_R   0.378113 0.129994 0.068001 0.311947
C39   C     C_R   0.882050 0.673174 0.563839 0.319415
C40   C     C_R   0.117950 0.326826 0.436161 0.319415
C41   C     C_R   0.572523 0.858242 0.976810 -0.026052
C42   C     C_R   0.427477 0.141758 0.023190 -0.026051
C43   C     C_R   0.931110 0.662481 0.518730 -0.026297
C44   C     C_R   0.068890 0.337519 0.481269 -0.026296
C45   C     C_R   0.524616 0.004524 0.977474 0.018496
C46   C     C_R   0.475384 0.995476 0.022527 0.018496
C47   C     C_R   0.975723 0.507000 0.522768 0.015910
C48   C     C_R   0.024277 0.493000 0.477232 0.015910
C49   C     C_R   0.525971 0.160458 0.933454 0.044494
C50   C     C_R   0.474029 0.839542 0.066547 0.044494
C51   C     C_R   0.971708 0.364757 0.571965 0.053710
C52   C     C_R   0.028292 0.635242 0.428035 0.053710
C53   C     C_R   0.570464 0.704974 0.021919 -0.060697
C54   C     C_R   0.429536 0.295026 0.978081 -0.060697
C55   C     C_R   0.935908 0.801960 0.468654 -0.062928
C56   C     C_R   0.064092 0.198040 0.531346 -0.062928
C57   C     C_R   0.521632 0.695463 0.065766 -0.080638
C58   C     C_R   0.478368 0.304537 0.934235 -0.080637
C59   C     C_R   0.984076 0.788783 0.424251 -0.064681
C60   C     C_R   0.015924 0.211217 0.575748 -0.064680
H9    H     H_    0.573628 0.288150 0.853781 0.139967
H10   H     H_    0.426372 0.711850 0.146219 0.139967
H11   H     H_    0.922433 0.269154 0.655589 0.141426
H12   H     H_    0.077567 0.730845 0.344411 0.141426
H13   H     H_    0.606524 0.591050 0.023944 0.143122
H14   H     H_    0.393477 0.408951 0.976056 0.143122
H15   H     H_    0.902492 0.922309 0.463131 0.145202
H16   H     H_    0.097508 0.077691 0.536868 0.145202
H17   H     H_    0.521305 0.574912 0.099424 0.100247
H18   H     H_    0.478695 0.425088 0.900577 0.100247
H19   H     H_    0.986582 0.899157 0.386618 0.115943
H20   H     H_    0.013418 0.100843 0.613382 0.115943
Cl1   Cl    Cl    0.030071 0.204473 0.203145 -0.682435
Cl2   Cl    Cl    0.969929 0.795527 0.796855 -0.682435
Cl3   Cl    Cl    0.465296 0.159354 0.325063 -0.670631
Cl4   Cl    Cl    0.534704 0.840646 0.674937 -0.670631
N1    N     N_R   0.673253 0.727902 0.934243 0.083220
O21   O     O_R   0.736848 0.768263 0.951131 -0.369026
O22   O     O_R   0.656982 0.561554 0.914429 -0.374764
N2    N     N_R   0.326747 0.272098 0.065757 0.083220
O23   O     O_R   0.263152 0.231736 0.048868 -0.369026
O24   O     O_R   0.343018 0.438445 0.085571 -0.374763
N3    N     N_R   0.833739 0.823968 0.556722 0.085629
O25   O     O_R   0.769567 0.792614 0.538505 -0.361438
O26   O     O_R   0.853329 0.991001 0.572158 -0.377218
N4    N     N_R   0.166261 0.176031 0.443278 0.085629
O27   O     O_R   0.230434 0.207386 0.461495 -0.361438
O28   O     O_R   0.146671 0.008999 0.427842 -0.377218

loop_
_geom_bond_atom_site_label_1
_geom_bond_atom_site_label_2
_geom_bond_distance
_ccdc_geom_bond_type
O17   V3    1.780986 S    
C24   H3    1.084308 S    
C39   C43   1.418795 A    
O1    C5    1.336553 A    
C16   H8    1.084000 S    
C55   C59   1.395889 A    
O19   V1    1.752951 S    
O13   V1    2.001183 S    
O3    C7    1.327094 A    
C40   C44   1.418794 A    
O15   V3    1.996677 S    
N2    O24   1.300623 A    
C5    C12   1.494318 S    
C45   C46   1.419627 A    
O7    C3    1.333657 A    
C6    C11   1.494318 S    
C50   C57   1.400578 A    
C9    C18   1.415757 A    
C32   C36   1.405797 A    
O9    V1    2.011217 S    
C14   C18   1.402286 A    
N1    O22   1.300623 A    
O4    C8    1.327095 A    
C29   H9    1.084304 S    
N3    O25   1.301098 A    
C31   H11   1.084504 S    
O1    V3    1.970049 S    
C12   C23   1.408416 A    
O2    V4    1.970052 S    
O3    V1    1.991397 S    
C38   C42   1.419242 A    
C32   C52   1.399775 A    
N4    O27   1.301098 A    
C37   N1    1.435268 S    
C1    O15   1.328113 A    
C58   H18   1.083942 S    
C56   C60   1.395889 A    
C2    O16   1.328114 A    
N3    O26   1.300569 A    
O2    C6    1.336552 A    
C37   C41   1.419242 A    
O14   V2    2.001183 S    
C52   C59   1.400806 A    
C45   C49   1.409924 A    
C44   C56   1.409373 A    
C16   C20   1.402743 A    
C55   H15   1.081476 S    
C48   C52   1.408842 A    
O11   C7    1.339075 A    
C15   C28   1.400898 A    
C30   C50   1.401340 A    
O12   C8    1.339075 A    
C14   H6    1.083895 S    
C9    C22   1.406838 A    
C10   C17   1.415757 A    
O10   V2    2.011215 S    
C11   C24   1.408416 A    
N2    O23   1.301165 A    
O5    V1    2.012681 S    
C31   C35   1.405797 A    
O7    V3    2.006841 S    
C17   Cl2   1.763554 S    
C30   C34   1.404701 A    
C39   N3    1.434605 S    
C27   C28   1.412181 A    
O8    V4    2.006840 S    
C32   H12   1.084506 S    
C54   C58   1.396294 A    
C14   C25   1.401376 A    
C53   C57   1.396294 A    
O18   V4    1.780986 S    
C15   C19   1.402743 A    
C4    C34   1.490898 S    
O4    V2    1.991397 S    
C31   C51   1.399777 A    
C36   C40   1.420559 A    
C1    C35   1.491282 S    
O5    C1    1.328337 A    
C51   C60   1.400806 A    
C46   C50   1.409924 A    
C21   C25   1.411914 A    
O8    C4    1.333656 A    
C7    C10   1.488707 S    
C15   H7    1.084000 S    
O9    C5    1.328816 A    
C10   C21   1.406838 A    
C42   C54   1.409807 A    
C11   C20   1.418565 A    
C41   C53   1.409807 A    
C56   H16   1.081476 S    
C38   N2    1.435267 S    
C49   C58   1.400578 A    
C43   C55   1.409372 A    
O6    V2    2.012680 S    
C21   H2    1.084325 S    
C30   H10   1.084304 S    
C40   N4    1.434606 S    
O16   V4    1.996677 S    
C20   Cl3   1.763893 S    
C3    O13   1.327498 A    
C57   H17   1.083940 S    
C44   C48   1.416325 A    
C59   H19   1.083970 S    
O6    C2    1.328337 A    
C23   C27   1.412333 A    
O11   V3    1.973767 S    
C2    C36   1.491282 S    
O12   V4    1.973767 S    
C16   C27   1.400898 A    
C22   C26   1.411914 A    
C8    C9    1.488707 S    
O10   C6    1.328817 A    
O20   V2    1.752949 S    
C29   C49   1.401340 A    
N1    O21   1.301167 A    
C47   C51   1.408841 A    
C13   C26   1.401376 A    
C34   C38   1.420883 A    
C33   C37   1.420883 A    
C22   H1    1.084325 S    
C35   C39   1.420559 A    
C19   Cl4   1.763893 S    
C13   C17   1.402286 A    
C54   H14   1.081308 S    
C18   Cl1   1.763554 S    
N4    O28   1.300569 A    
C53   H13   1.081309 S    
C60   H20   1.083970 S    
C47   C48   1.418652 A    
C29   C33   1.404701 A    
C24   C28   1.412333 A    
C25   C26   1.413398 A    
C42   C46   1.416028 A    
C4    O14   1.327498 A    
C41   C45   1.416028 A    
C12   C19   1.418565 A    
C43   C47   1.416324 A    
C13   H5    1.083895 S    
C3    C33   1.490898 S    
C23   H4    1.084308 S    
