data_mof_unit_53678.cif
_audit_creation_date              2013-03-05T16:13:54-0500
_audit_creation_method            fapswitch 2.2
_symmetry_space_group_name_H-M    P1
_symmetry_Int_Tables_number       1
_space_group_crystal_system       triclinic
_cell_length_a                    20.265369
_cell_length_b                    22.844775
_cell_length_c                    6.92947
_cell_angle_alpha                 90.168419
_cell_angle_beta                  87.020204
_cell_angle_gamma                 90.125435
_cell_volume                      3203.69413204

loop_
_atom_site_label
_atom_site_type_symbol
_atom_site_description
_atom_site_fract_x
_atom_site_fract_y
_atom_site_fract_z
_atom_type_partial_charge
O1    O     O_R   0.751270 0.447300 0.600030 -0.610400
O2    O     O_R   0.248730 0.947300 0.399970 -0.610180
O3    O     O_R   0.613530 0.440160 0.952150 -0.598858
O4    O     O_R   0.386470 0.940160 0.047850 -0.599012
O5    O     O_R   0.613050 0.552700 0.122560 -0.584373
O6    O     O_R   0.386950 0.052700 0.877440 -0.584918
C1    C     C_R   0.591833 0.425485 0.786113 0.913984
C2    C     C_R   0.407440 0.925063 0.213148 0.915765
O7    O     O_R   0.750780 0.440350 0.929820 -0.564451
O8    O     O_R   0.249220 0.940350 0.070180 -0.560907
O9    O     O_R   0.751280 0.552900 0.100070 -0.581792
O10   O     O_R   0.248720 0.052900 0.899930 -0.606796
C3    C     C_R   0.773319 0.425387 0.757588 0.940050
C4    C     C_R   0.226746 0.925345 0.242130 0.940198
O11   O     O_R   0.613040 0.447100 0.622520 -0.599216
O12   O     O_R   0.386960 0.947100 0.377480 -0.599619
O13   O     O_3   0.682160 0.536920 0.777780 -0.245745
O14   O     O_3   0.317840 0.036920 0.222220 -0.232536
V1    V     V_3+5 0.682160 0.493150 0.052630 1.203704
V2    V     V_3+5 0.317840 0.993150 0.947370 1.198941
O15   O     O_R   0.750790 0.559840 0.429870 -0.584841
O16   O     O_R   0.249210 0.059840 0.570130 -0.574467
C5    C     C_R   0.776253 0.571583 0.258049 1.032698
C6    C     C_R   0.225218 0.073261 0.742487 0.972224
O17   O     O_R   0.613540 0.559650 0.452200 -0.573035
O18   O     O_R   0.386460 0.059650 0.547800 -0.547994
C7    C     C_R   0.593188 0.575938 0.286471 0.999276
C8    C     C_R   0.406103 0.076620 0.714256 0.960218
V3    V     V_3+5 0.682160 0.506850 0.552630 1.203604
V4    V     V_3+5 0.317840 0.006850 0.447370 1.221522
O19   O     O_3   0.682150 0.463080 0.277610 -0.290395
O20   O     O_3   0.317850 0.963080 0.722390 -0.286335
C9    C     C_R   0.576951 0.862888 0.143193 -0.125641
C10   C     C_R   0.423417 0.365478 0.712078 -0.128909
H1    H     H_    0.534372 0.948117 0.125463 0.107105
H2    H     H_    0.465110 0.451038 0.739096 0.106354
H3    H     H_    0.668671 0.782987 0.136489 0.175455
H4    H     H_    0.338879 0.286414 0.609131 0.178874
H5    H     H_    0.626081 0.879118 0.103368 0.117585
H6    H     H_    0.375466 0.382918 0.680498 0.116297
C11   C     C_R   0.461539 0.882890 0.210118 -0.086547
C12   C     C_R   0.537119 0.383501 0.780588 -0.088963
C13   C     C_R   0.475691 0.598629 0.331411 -0.157683
C14   C     C_R   0.521695 0.096961 0.770843 -0.139870
C15   C     C_R   0.421608 0.635810 0.339660 -0.088489
C16   C     C_R   0.573818 0.133732 0.810283 -0.094776
C17   C     C_R   0.429620 0.695446 0.306381 -0.146121
C18   C     C_R   0.566289 0.194118 0.804392 -0.140670
C19   C     C_R   0.492799 0.720041 0.263880 0.079095
C20   C     C_R   0.506387 0.219773 0.751752 0.082864
C21   C     C_R   0.549088 0.681608 0.254228 -0.079344
C22   C     C_R   0.453382 0.181753 0.699630 -0.063678
C23   C     C_R   0.501671 0.781722 0.231096 0.093225
C24   C     C_R   0.497490 0.282072 0.751455 0.094134
C25   C     C_R   0.565885 0.803277 0.180359 0.108644
C26   C     C_R   0.434833 0.304926 0.709973 0.118995
C27   C     C_R   0.619464 0.765739 0.170008 -0.288979
C28   C     C_R   0.384799 0.267825 0.654311 -0.297258
C29   C     C_R   0.612336 0.706552 0.210948 0.334215
C30   C     C_R   0.394539 0.207660 0.636669 0.295250
C31   C     C_R   0.449476 0.823252 0.247064 -0.238655
C32   C     C_R   0.548716 0.322911 0.786469 -0.230944
C33   C     C_R   0.525042 0.902291 0.156732 -0.170310
C34   C     C_R   0.474261 0.404385 0.745987 -0.172860
C35   C     C_R   0.539437 0.620031 0.288349 -0.169915
C36   C     C_R   0.461086 0.119555 0.718297 -0.149408
H7    H     H_    0.399193 0.811007 0.286477 0.092442
H8    H     H_    0.598646 0.309433 0.809117 0.089440
H9    H     H_    0.467676 0.552379 0.358646 0.098153
H10   H     H_    0.528199 0.050136 0.786223 0.099802
H11   H     H_    0.385039 0.721083 0.313863 0.098330
H12   H     H_    0.608150 0.219516 0.845476 0.097110
H13   H     H_    0.372679 0.618154 0.372257 0.107936
H14   H     H_    0.620063 0.115207 0.852185 0.108769
C37   C     C_R   0.172717 0.880575 0.259496 -0.306448
C38   C     C_R   0.827544 0.380766 0.739962 -0.306875
C39   C     C_R   0.156173 0.844679 0.101504 0.535039
C40   C     C_R   0.844300 0.345272 0.898032 0.537116
C41   C     C_R   0.102723 0.805254 0.121526 -0.319045
C42   C     C_R   0.898010 0.306199 0.878369 -0.319614
C43   C     C_R   0.066576 0.798726 0.299948 0.181569
C44   C     C_R   0.934240 0.299464 0.700131 0.181196
C45   C     C_R   0.084950 0.832668 0.457036 -0.155909
C46   C     C_R   0.915570 0.332867 0.542758 -0.155408
C47   C     C_R   0.136782 0.873205 0.437267 -0.206726
C48   C     C_R   0.863550 0.373167 0.562287 -0.210011
C49   C     C_R   0.910651 0.679921 0.389551 -0.157334
C50   C     C_R   0.087614 0.177987 0.611269 -0.160512
C51   C     C_R   0.857614 0.640333 0.406104 -0.119694
C52   C     C_R   0.140285 0.138107 0.594679 -0.085193
C53   C     C_R   0.940732 0.693501 0.206539 0.224642
C54   C     C_R   0.061830 0.196334 0.794894 0.222633
N1    N     N_2   0.012215 0.758876 0.328616 -0.094595
N2    N     N_2   0.988573 0.259603 0.671590 -0.094351
N3    N     N_2   0.995113 0.733329 0.179236 -0.100391
N4    N     N_2   0.007638 0.236344 0.822219 -0.100613
C55   C     C_R   0.833015 0.613467 0.241086 -0.093638
C56   C     C_R   0.169001 0.115712 0.760155 -0.104588
H15   H     H_    0.835712 0.630992 0.548578 0.145990
H16   H     H_    0.158596 0.124895 0.451614 0.135280
H17   H     H_    0.927933 0.699608 0.519982 0.118576
H18   H     H_    0.067063 0.194004 0.480429 0.113637
H19   H     H_    0.058306 0.828187 0.595832 0.135528
H20   H     H_    0.942152 0.328183 0.403895 0.134402
H21   H     H_    0.148332 0.899260 0.561932 0.195186
H22   H     H_    0.851879 0.398840 0.437489 0.193869
C57   C     C_R   0.863374 0.626967 0.059306 -0.109341
C58   C     C_R   0.142983 0.134031 0.942698 -0.156720
C59   C     C_R   0.916438 0.666360 0.042875 -0.172466
C60   C     C_R   0.090119 0.173582 0.959241 -0.159896
H23   H     H_    0.846165 0.607073 0.929043 0.130882
H24   H     H_    0.163400 0.117770 0.073483 0.138870
H25   H     H_    0.090348 0.779538 0.996908 0.145030
H26   H     H_    0.910385 0.280740 0.002961 0.145042
H27   H     H_    0.938783 0.675920 0.901050 0.109219
H28   H     H_    0.071099 0.186749 0.101695 0.110215
O21   O     O_3   0.190192 0.849144 0.923926 -0.628382
C61   C     C_3   0.239409 0.805392 0.911755 0.296554
H29   H     H_    0.217833 0.760944 0.936638 0.072192
H30   H     H_    0.277357 0.813853 0.019275 0.068006
C62   C     C_3   0.273329 0.805937 0.710570 -0.885086
H31   H     H_    0.295626 0.849506 0.679610 0.275352
H32   H     H_    0.312987 0.772420 0.700993 0.200011
H33   H     H_    0.236983 0.795890 0.600563 0.244404
O22   O     O_3   0.810001 0.349592 0.075234 -0.629204
C63   C     C_3   0.760847 0.305600 0.085711 0.289251
H34   H     H_    0.782595 0.261244 0.061087 0.073796
H35   H     H_    0.723237 0.313719 0.977185 0.065588
C64   C     C_3   0.726291 0.306193 0.285993 -0.875286
H36   H     H_    0.703773 0.349662 0.316554 0.275441
H37   H     H_    0.686724 0.272446 0.294150 0.200615
H38   H     H_    0.762284 0.296510 0.397022 0.244820
N5    N     N_R   0.671730 0.674222 0.220694 0.200757
O23   O     O_R   0.709582 0.669314 0.063999 -0.417242
O24   O     O_R   0.698083 0.671482 0.387604 -0.426219
N6    N     N_R   0.348167 0.175946 0.527955 0.222725
O25   O     O_R   0.367392 0.157261 0.356621 -0.377758
O26   O     O_R   0.285403 0.184586 0.565080 -0.442254

loop_
_geom_bond_atom_site_label_1
_geom_bond_atom_site_label_2
_geom_bond_distance
_ccdc_geom_bond_type
C9    C25   1.402074 A    
C10   C26   1.402925 A    
C63   H34   1.114997 S    
C44   N2    1.435759 S    
C49   C53   1.413233 A    
O13   V3    1.702856 S    
C14   C36   1.399303 A    
C11   C31   1.405570 A    
O4    C2    1.290397 A    
V1    O19   1.705464 S    
C17   C19   1.414333 A    
O9    V1    1.992528 S    
C9    H5    1.084141 S    
C45   H19   1.083238 S    
C51   H15   1.082827 S    
C6    C56   1.497666 S    
C38   C40   1.420441 A    
C60   H28   1.082899 S    
O3    C1    1.295824 A    
C40   C42   1.410041 A    
C27   C29   1.388062 A    
C28   C30   1.393098 A    
C54   N4    1.434971 S    
C56   C58   1.407730 A    
C15   H13   1.082775 S    
C21   C35   1.438389 A    
C1    C12   1.466398 S    
O7    C3    1.300570 A    
C61   H29   1.114998 S    
C62   H33   1.110374 S    
C22   C30   1.421729 A    
O5    C7    1.297606 A    
C23   C31   1.422254 A    
O7    V1    1.997803 S    
O6    C8    1.298068 A    
C50   C54   1.412964 A    
O8    V2    1.997146 S    
C19   C21   1.439670 A    
C20   C22   1.439824 A    
O3    V1    1.993219 S    
O14   V4    1.706553 S    
C30   N6    1.429322 S    
C9    C33   1.385302 A    
C64   H38   1.110393 S    
C18   C20   1.414420 A    
C2    O12   1.292606 A    
C49   H17   1.082416 S    
V3    O19   2.149541 S    
C57   C59   1.401020 A    
C48   H22   1.082881 S    
C15   C17   1.390179 A    
C18   H12   1.076737 S    
C47   H21   1.082923 S    
C52   H16   1.082627 S    
C43   C45   1.400263 A    
C14   C16   1.385954 A    
O11   V3    1.996189 S    
C16   C18   1.389189 A    
C23   C25   1.417803 A    
O15   C5    1.301245 A    
O17   V3    1.996482 S    
C24   C26   1.417474 A    
C2    C11   1.460374 S    
C42   C44   1.411842 A    
O8    C4    1.299982 A    
C41   C43   1.412058 A    
C1    O11   1.290473 A    
C24   C32   1.423951 A    
C63   C64   1.521710 S    
O15   V3    1.999768 S    
C29   N5    1.418262 S    
C58   H24   1.082655 S    
C51   C55   1.409456 A    
C61   C62   1.522054 S    
O4    V2    1.999395 S    
C8    C36   1.484156 S    
C7    C35   1.484785 S    
C43   N1    1.433788 S    
C31   H7    1.077712 S    
C39   O21   1.382777 S    
C3    C38   1.500587 S    
C13   C35   1.398193 A    
O10   V2    1.998046 S    
C10   C34   1.388112 A    
C39   C41   1.408740 A    
C20   C24   1.434998 A    
N2    N4    1.251852 D    
C37   C39   1.419556 A    
C17   H11   1.076672 S    
C62   H31   1.109072 S    
C10   H6    1.084066 S    
N6    O26   1.299898 A    
C45   C47   1.400426 A    
C42   H26   1.082881 S    
O18   V4    1.990322 S    
C44   C46   1.401324 A    
C25   C27   1.383876 A    
N5    O23   1.301172 A    
C46   H20   1.083204 S    
O16   C6    1.301916 A    
O1    C3    1.302761 A    
C11   C33   1.392247 A    
C12   C34   1.393864 A    
C16   H14   1.082802 S    
C22   C36   1.436724 A    
C14   H10   1.084309 S    
C37   C47   1.408392 A    
C64   H36   1.109020 S    
V2    O20   1.701769 S    
C12   C32   1.405538 A    
C63   H35   1.114412 S    
O16   V4    2.000427 S    
C5    C55   1.494761 S    
C57   H23   1.082863 S    
C50   C52   1.404778 A    
N6    O25   1.301239 A    
C50   H18   1.082233 S    
C58   C60   1.402883 A    
O5    V1    1.995228 S    
O17   C7    1.296090 A    
O6    V2    1.992992 S    
O10   C6    1.300559 A    
O18   C8    1.297549 A    
C32   H8    1.077702 S    
O2    V4    1.989209 S    
C4    C37   1.497160 S    
C53   C59   1.402001 A    
C41   H25   1.082873 S    
C13   C15   1.386822 A    
H2    C34   1.083815 S    
O21   C61   1.412819 S    
V4    O20   2.154747 S    
C54   C60   1.403011 A    
O1    V3    1.994717 S    
O22   C63   1.412816 S    
C19   C23   1.437360 A    
O9    C5    1.300229 A    
O13   V1    2.153695 S    
C26   C28   1.389316 A    
O14   V2    2.148490 S    
O2    C4    1.301065 A    
C61   H30   1.114431 S    
C62   H32   1.110605 S    
C59   H27   1.083121 S    
C53   N3    1.432859 S    
C55   C57   1.407546 A    
C21   C29   1.419630 A    
N1    N3    1.251036 D    
C38   C48   1.408646 A    
N5    O24   1.300634 A    
C49   C51   1.403509 A    
C46   C48   1.402118 A    
H1    C33   1.083926 S    
C13   H9    1.084233 S    
C40   O22   1.382566 S    
O12   V4    1.998436 S    
H4    C28   1.084954 S    
C52   C56   1.410457 A    
H3    C27   1.085517 S    
C64   H37   1.110555 S    
