data_mof_unit_60319.cif
_audit_creation_date              2012-10-26T19:16:46-0400
_audit_creation_method            fapswitch 2.2
_symmetry_space_group_name_H-M    P1
_symmetry_Int_Tables_number       1
_space_group_crystal_system       triclinic
_cell_length_a                    13.903027
_cell_length_b                    14.768806
_cell_length_c                    16.003239
_cell_angle_alpha                 90.040542
_cell_angle_beta                  89.983013
_cell_angle_gamma                 84.862569
_cell_volume                      3272.76133211

loop_
_atom_site_label
_atom_site_type_symbol
_atom_type_description
_atom_site_fract_x
_atom_site_fract_y
_atom_site_fract_z
_atom_type_partial_charge
C1    C     C_R   0.499968 0.500046 0.659138 0.550758
C2    C     C_R   0.478787 0.953837 0.426887 -0.099089
C3    C     C_1   0.500026 0.197284 0.499987 0.139489
C4    C     C_1   0.499974 0.802716 0.500013 0.139489
C5    C     C_R   0.683476 0.485457 0.499975 0.548183
C6    C     C_R   0.316524 0.514543 0.500025 0.548184
C7    C     C_1   0.213506 0.523449 0.500029 -0.000360
C8    C     C_1   0.786494 0.476551 0.499971 -0.000360
C9    C     C_2   0.023290 0.537540 0.500023 -0.111573
C10   C     C_2   0.976710 0.462460 0.499977 -0.111573
C11   C     C_1   0.873221 0.469486 0.499972 -0.034609
C12   C     C_R   0.500032 0.499954 0.340861 0.550758
C13   C     C_1   0.126779 0.530514 0.500028 -0.034609
C14   C     C_R   0.501281 0.418346 0.044304 -0.103248
C15   C     C_R   0.498719 0.581654 0.955696 -0.103248
C16   C     C_R   0.499996 0.501000 0.087296 0.021284
C17   C     C_R   0.500004 0.499000 0.912704 0.021284
C18   C     C_R   0.498707 0.583133 0.042926 0.108606
C19   C     C_R   0.501293 0.416867 0.957074 0.108606
C20   C     C_1   0.500017 0.500336 0.176790 -0.009629
C21   C     C_1   0.499983 0.499664 0.823210 -0.009629
C22   C     C_1   0.499971 0.500036 0.748198 0.008696
C23   C     C_1   0.500029 0.499964 0.251802 0.008696
C24   C     C_R   0.478797 0.049616 0.426883 -0.103290
C25   C     C_R   0.521203 0.950384 0.573117 -0.103290
C26   C     C_R   0.500014 0.097137 0.499994 0.001555
C27   C     C_R   0.499986 0.902863 0.500006 0.001555
C28   C     C_R   0.521213 0.046163 0.573113 -0.099089
Cu1   Cu    Cu3+1 0.499970 0.410780 0.500000 1.019355
Cu2   Cu    Cu3+1 0.500030 0.589220 0.500000 1.019355
H1    H     H_    0.015987 0.395444 0.499943 0.144512
H2    H     H_    0.984013 0.604556 0.500057 0.144512
H3    H     H_    0.502274 0.354991 0.078546 0.144584
H4    H     H_    0.497726 0.645009 0.921454 0.144584
H5    H     H_    0.462146 0.919521 0.369525 0.133614
H6    H     H_    0.537853 0.080479 0.630475 0.133614
H7    H     H_    0.462160 0.086641 0.369519 0.123284
H8    H     H_    0.537840 0.913359 0.630481 0.123284
I1    I     I_    0.503282 0.289218 0.895872 -0.346490
I2    I     I_    0.496718 0.710782 0.104128 -0.346490
N1    N     N_1   0.499970 0.723290 0.500020 -0.184712
N2    N     N_1   0.500030 0.276710 0.499980 -0.184712
O1    O     O_R   0.499950 0.424680 0.619690 -0.477136
O2    O     O_R   0.500050 0.575320 0.380310 -0.477136
O3    O     O_R   0.500000 0.575360 0.619690 -0.496176
O4    O     O_R   0.500000 0.424640 0.380310 -0.496176
O5    O     O_R   0.637820 0.414010 0.499980 -0.488448
O6    O     O_R   0.362180 0.585990 0.500020 -0.488448
O7    O     O_R   0.637870 0.564690 0.499980 -0.489161
O8    O     O_R   0.362130 0.435310 0.500020 -0.489161

loop_
_geom_bond_atom_site_label_1
_geom_bond_atom_site_label_2
_ccdc_geom_bond_type
C2    H5    S    
C15   C18   A    
Cu2   N1    S    
C2    C27   A    
C25   H8    S    
C25   C27   A    
C9    C10   D    
C15   H4    S    
C26   C28   A    
C20   C23   T    
Cu1   O4    S    
C16   C20   S    
C1    O3    A    
C14   H3    S    
C24   H7    S    
C1    C22   S    
C3    N2    T    
C21   C22   T    
Cu1   O1    S    
C25   C28   A    
C5    O5    A    
C12   C23   S    
C5    O7    A    
Cu1   Cu2   S    
C19   I1    S    
Cu1   O5    S    
C8    C11   T    
C10   H1    S    
Cu2   O6    S    
C17   C19   A    
Cu2   O7    S    
C24   C26   A    
C6    C7    S    
Cu2   O2    S    
Cu1   O8    S    
C2    C24   A    
Cu1   N2    S    
C14   C16   A    
C5    C8    S    
C10   C11   S    
C6    O8    A    
C7    C13   T    
C4    C27   S    
C28   H6    S    
C16   C18   A    
C4    N1    T    
C15   C17   A    
C18   I2    S    
C12   O2    A    
C9    C13   S    
Cu2   O3    S    
C9    H2    S    
C14   C19   A    
C1    O1    A    
C3    C26   S    
C17   C21   S    
C12   O4    A    
C6    O6    A    
