data_mof_unit_25431.cif
_audit_creation_date              2012-12-11T15:23:50-0500
_audit_creation_method            fapswitch 2.2
_symmetry_space_group_name_H-M    P1
_symmetry_Int_Tables_number       1
_space_group_crystal_system       triclinic
_cell_length_a                    17.255778
_cell_length_b                    24.433388
_cell_length_c                    14.89187
_cell_angle_alpha                 90.303221
_cell_angle_beta                  125.560229
_cell_angle_gamma                 89.351365
_cell_volume                      5107.39124731

loop_
_atom_site_label
_atom_site_type_symbol
_atom_type_description
_atom_site_fract_x
_atom_site_fract_y
_atom_site_fract_z
_atom_type_partial_charge
C1    C     C_R   0.312297 0.374165 0.908261 -0.122664
C2    C     C_R   0.550286 0.498016 0.724092 0.019649
C3    C     C_3   0.508208 0.040486 0.185658 -0.307701
C4    C     C_3   0.484743 0.061709 0.076122 -0.983579
C5    C     C_3   0.502038 0.033368 0.607226 0.180634
C6    C     C_3   0.405682 0.060328 0.562940 -0.259503
C7    C     C_3   0.384400 0.060381 0.649092 -1.015992
C8    C     C_3   0.487471 0.697136 0.205091 0.172016
C9    C     C_3   0.595863 0.689828 0.278669 -0.303584
C10   C     C_3   0.645867 0.741222 0.279885 -1.025160
C11   C     C_3   0.462734 0.712289 0.818117 0.181222
C12   C     C_3   0.382185 0.732419 0.703074 -0.252825
C13   C     C_R   0.065122 0.998467 0.367694 0.011870
C14   C     C_3   0.324863 0.778494 0.709075 -1.046609
C15   C     C_3   0.018209 0.182595 0.221099 0.154517
C16   C     C_3   0.053360 0.212977 0.328131 -0.250355
C17   C     C_3   0.136179 0.250477 0.361296 -1.049933
C18   C     C_3   0.919691 0.208090 0.813330 0.164857
C19   C     C_3   0.820814 0.209274 0.704015 -0.238976
C20   C     C_3   0.753278 0.247814 0.709259 -1.056279
C21   C     C_R   0.052789 0.998583 0.727190 0.018569
C22   C     C_R   0.185187 0.499392 0.646274 -0.105930
C23   C     C_R   0.822815 0.497212 0.263540 -0.062916
C24   C     C_R   0.681535 0.998173 0.652596 -0.112464
C25   C     C_R   0.322832 0.998171 0.263532 -0.063349
C26   C     C_2   0.977807 0.454137 0.364851 -0.268443
C27   C     C_2   0.074813 0.462323 0.463000 -0.199114
C28   C     C_2   0.477947 0.955089 0.366345 -0.281595
C29   C     C_R   0.645437 0.346737 0.089496 -0.143219
C30   C     C_2   0.573429 0.962275 0.468064 -0.200691
C31   C     C_2   0.923121 0.496723 0.303262 0.598782
C32   C     C_2   0.092208 0.499544 0.539664 0.571945
C33   C     C_2   0.424098 0.998351 0.306562 0.621200
C34   C     C_2   0.588246 0.997649 0.546291 0.576697
C35   C     C_R   0.156232 0.688780 0.893752 -0.168933
C36   C     C_R   0.808211 0.713409 0.104448 -0.162650
C37   C     C_R   0.656472 0.188462 0.894382 -0.184612
C38   C     C_R   0.204888 0.268567 0.094651 -0.161311
C39   C     C_R   0.607721 0.233656 0.894192 -0.172009
C40   C     C_R   0.854236 0.847668 0.910258 -0.122927
C41   C     C_R   0.253585 0.313495 0.094703 -0.179985
C42   C     C_R   0.106938 0.733654 0.893699 -0.177762
C43   C     C_R   0.874997 0.743959 0.105744 -0.177847
C44   C     C_R   0.635874 0.257421 0.994699 0.149232
C45   C     C_R   0.242099 0.328590 0.996794 0.156900
C46   C     C_R   0.134948 0.757255 0.994292 0.149890
C47   C     C_R   0.855453 0.762336 0.005692 0.154434
C48   C     C_R   0.697344 0.228441 0.093202 -0.207615
C49   C     C_R   0.171403 0.304084 0.897084 -0.187615
C50   C     C_R   0.196308 0.728137 0.092616 -0.213193
C51   C     C_R   0.145422 0.846709 0.089457 -0.144447
C52   C     C_R   0.783038 0.738327 0.906379 -0.189842
C53   C     C_R   0.244640 0.682528 0.092275 -0.157096
C54   C     C_R   0.717092 0.706461 0.905035 -0.193742
C55   C     C_R   0.745294 0.182619 0.093019 -0.134966
C56   C     C_R   0.127763 0.257947 0.898099 -0.203849
C57   C     C_R   0.401249 0.626140 0.090104 0.547117
C58   C     C_R   0.573892 0.644787 0.909795 0.491994
C59   C     C_R   0.901790 0.126732 0.090347 0.524883
C60   C     C_R   0.052441 0.151783 0.908687 0.511145
C61   C     C_R   0.233663 0.667599 0.994403 0.165884
C62   C     C_R   0.309672 0.638175 0.997722 -0.108669
C63   C     C_R   0.725116 0.698195 0.003275 0.166446
C64   C     C_R   0.733864 0.167285 0.995098 0.163966
C65   C     C_R   0.146686 0.238400 0.997245 0.157357
C66   C     C_R   0.610159 0.546748 0.630452 -0.163420
C67   C     C_R   0.613167 0.546979 0.539538 -0.166928
C68   C     C_R   0.108920 0.047516 0.630035 -0.163413
C69   C     C_R   0.109762 0.047552 0.537652 -0.167944
C70   C     C_R   0.602178 0.497758 0.484639 0.146608
C71   C     C_R   0.594845 0.497381 0.665341 0.143106
C72   C     C_R   0.099627 0.998109 0.483658 0.147000
C73   C     C_R   0.652525 0.668751 0.001827 -0.102270
C74   C     C_R   0.096627 0.998117 0.667578 0.141456
C75   C     C_R   0.608742 0.447938 0.535169 -0.168664
C76   C     C_R   0.605328 0.447760 0.625706 -0.170004
C77   C     C_R   0.108635 0.948468 0.535963 -0.166103
C78   C     C_R   0.107624 0.948488 0.628266 -0.165733
C79   C     C_R   0.549921 0.453446 0.303666 -0.137062
C80   C     C_R   0.519607 0.452745 0.750940 -0.117038
C81   C     C_R   0.047204 0.953280 0.302442 -0.120814
C82   C     C_R   0.020797 0.953077 0.752137 -0.121282
C83   C     C_R   0.237908 0.544990 0.702790 -0.089236
C84   C     C_R   0.809653 0.137632 0.998420 -0.082728
C85   C     C_R   0.768599 0.543587 0.245015 -0.102349
C86   C     C_R   0.735532 0.044244 0.704994 -0.084472
C87   C     C_R   0.267471 0.044395 0.242861 -0.096516
C88   C     C_R   0.550801 0.544176 0.305017 -0.068022
C89   C     C_R   0.519171 0.544242 0.749640 -0.138767
C90   C     C_R   0.050103 0.044131 0.304688 -0.071352
C91   C     C_R   0.022042 0.044771 0.753619 -0.120706
C92   C     C_R   0.239519 0.453820 0.703406 -0.173282
C93   C     C_R   0.766100 0.452386 0.241394 -0.174448
C94   C     C_R   0.736942 0.952819 0.709614 -0.164002
C95   C     C_R   0.116831 0.183272 0.999607 -0.115281
C96   C     C_R   0.266514 0.952888 0.241778 -0.171955
C97   C     C_R   0.308664 0.624114 0.906451 -0.249259
C98   C     C_R   0.665693 0.644359 0.093015 -0.264928
C99   C     C_R   0.808207 0.123266 0.906996 -0.258549
C100  C     C_R   0.148811 0.151308 0.091655 -0.273289
C101  C     C_R   0.403498 0.374053 0.092777 -0.127102
C102  C     C_R   0.554291 0.347559 0.906702 -0.144452
C103  C     C_R   0.946390 0.848318 0.093920 -0.123649
C104  C     C_R   0.054156 0.847557 0.906640 -0.144405
C105  C     C_R   0.314248 0.360414 0.999757 0.036954
C106  C     C_R   0.567683 0.498513 0.368765 0.014054
C107  C     C_R   0.614212 0.315014 0.997328 0.052832
C108  C     C_R   0.886798 0.816297 0.003025 0.044509
C109  C     C_R   0.113823 0.814934 0.997202 0.051943
C110  C     C_3   0.937601 0.556204 0.197104 0.150482
C111  C     C_3   0.993951 0.605026 0.200836 -0.239816
C112  C     C_3   0.968327 0.618445 0.086451 -0.994497
C113  C     C_3   0.005893 0.536555 0.599427 0.181121
C114  C     C_3   0.909537 0.563843 0.553949 -0.261768
C115  C     C_3   0.888035 0.565333 0.639900 -1.021423
C116  C     C_3   0.440329 0.064824 0.210483 0.154528
H1    H     H_    0.255591 0.368526 0.822632 0.089839
H2    H     H_    0.304926 0.333411 0.172301 0.112102
H3    H     H_    0.826593 0.222974 0.637073 0.198977
H4    H     H_    0.791039 0.167418 0.684046 0.194936
H5    H     H_    0.745760 0.234621 0.775075 0.272793
H6    H     H_    0.681945 0.247268 0.629009 0.273020
H7    H     H_    0.780548 0.290322 0.726207 0.272144
H8    H     H_    0.225216 0.412083 0.674004 0.091829
H9    H     H_    0.785310 0.409885 0.245236 0.104293
H10   H     H_    0.720984 0.910420 0.684788 0.095358
H11   H     H_    0.286321 0.910422 0.246597 0.103113
H12   H     H_    0.430852 0.368076 0.178195 0.094904
H13   H     H_    0.054968 0.752773 0.815182 0.107961
H14   H     H_    0.506149 0.334523 0.821982 0.087220
H15   H     H_    0.992577 0.836011 0.179458 0.082479
H16   H     H_    0.005854 0.834571 0.821913 0.084523
H17   H     H_    0.934894 0.758368 0.184793 0.106918
H18   H     H_    0.715158 0.243432 0.171471 0.113816
H19   H     H_    0.156912 0.315618 0.818827 0.109971
H20   H     H_    0.213878 0.742961 0.170887 0.114003
H21   H     H_    0.770807 0.748696 0.828554 0.113023
H22   H     H_    0.296131 0.662684 0.170031 0.170063
H23   H     H_    0.658437 0.690697 0.826563 0.160615
H24   H     H_    0.796670 0.162814 0.170867 0.171106
H25   H     H_    0.682990 0.332614 0.173757 0.087925
H26   H     H_    0.085500 0.235733 0.821475 0.165815
H27   H     H_    0.609977 0.585708 0.665026 0.109807
H28   H     H_    0.614603 0.586102 0.507060 0.105818
H29   H     H_    0.107573 0.086566 0.663532 0.110221
H30   H     H_    0.109002 0.086671 0.503691 0.104004
H31   H     H_    0.606498 0.408942 0.499254 0.108957
H32   H     H_    0.600711 0.408704 0.655940 0.111351
H33   H     H_    0.107104 0.909418 0.500613 0.107197
H34   H     H_    0.105245 0.909473 0.660390 0.110199
H35   H     H_    0.568533 0.411383 0.330370 0.088560
H36   H     H_    0.813509 0.834390 0.825280 0.083816
H37   H     H_    0.529873 0.410133 0.741044 0.093589
H38   H     H_    0.063316 0.910982 0.328221 0.086367
H39   H     H_    0.030883 0.910521 0.741587 0.094300
H40   H     H_    0.222197 0.586474 0.671578 0.105112
H41   H     H_    0.793864 0.584871 0.258852 0.124628
H42   H     H_    0.717821 0.085272 0.671884 0.101063
H43   H     H_    0.289309 0.086384 0.250674 0.124478
H44   H     H_    0.571785 0.585268 0.335192 0.125048
H45   H     H_    0.527532 0.586025 0.735354 0.152956
H46   H     H_    0.072595 0.084997 0.335612 0.119123
H47   H     H_    0.182987 0.832570 0.173712 0.085510
H48   H     H_    0.033649 0.087095 0.745007 0.134016
H49   H     H_    0.251133 0.629680 0.820941 0.131135
H50   H     H_    0.711690 0.657449 0.177735 0.137000
H51   H     H_    0.750233 0.128561 0.821700 0.137588
H52   H     H_    0.190040 0.164783 0.176541 0.125595
H53   H     H_    0.946829 0.415001 0.360642 0.092267
H54   H     H_    0.128080 0.431635 0.480981 0.094680
H55   H     H_    0.446707 0.915340 0.356761 0.091323
H56   H     H_    0.628007 0.932594 0.485807 0.092627
H57   H     H_    0.860206 0.566546 0.141838 0.103772
H58   H     H_    0.139528 0.675203 0.815248 0.112000
H59   H     H_    0.952871 0.520376 0.162665 0.093014
H60   H     H_    0.978729 0.641278 0.233777 0.201777
H61   H     H_    0.071464 0.595603 0.257184 0.203222
H62   H     H_    0.987642 0.583598 0.054626 0.265609
H63   H     H_    0.008123 0.655109 0.091429 0.273149
H64   H     H_    0.890823 0.627146 0.028023 0.278179
H65   H     H_    0.062430 0.559534 0.673496 0.108141
H66   H     H_    0.003774 0.493691 0.623504 0.084022
H67   H     H_    0.909440 0.606374 0.527718 0.202078
H68   H     H_    0.852465 0.540758 0.480673 0.206306
H69   H     H_    0.820793 0.704175 0.182787 0.115263
H70   H     H_    0.885701 0.523118 0.665520 0.273308
H71   H     H_    0.817669 0.585348 0.603963 0.269039
H72   H     H_    0.943316 0.588992 0.713455 0.271191
H73   H     H_    0.445626 0.110144 0.212293 0.140198
H74   H     H_    0.365027 0.055013 0.142460 0.080671
H75   H     H_    0.582690 0.051486 0.253020 0.217359
H76   H     H_    0.502697 0.995142 0.181825 0.190153
H77   H     H_    0.410968 0.050418 0.007326 0.266907
H78   H     H_    0.534922 0.043271 0.060415 0.271585
H79   H     H_    0.491746 0.106934 0.078721 0.267767
H80   H     H_    0.639395 0.174624 0.815863 0.117525
H81   H     H_    0.558874 0.056465 0.680899 0.108254
H82   H     H_    0.500703 0.990421 0.631498 0.085489
H83   H     H_    0.405577 0.103231 0.538374 0.202426
H84   H     H_    0.348512 0.037792 0.488675 0.206904
H85   H     H_    0.381580 0.017774 0.672655 0.273012
H86   H     H_    0.314320 0.080514 0.614278 0.271295
H87   H     H_    0.440051 0.083252 0.723753 0.271146
H88   H     H_    0.467506 0.726914 0.245222 0.122495
H89   H     H_    0.463906 0.716024 0.124482 0.089356
H90   H     H_    0.620158 0.680463 0.364366 0.189723
H91   H     H_    0.218730 0.255310 0.171964 0.114849
H92   H     H_    0.616226 0.654906 0.248260 0.198859
H93   H     H_    0.625051 0.750396 0.195499 0.270176
H94   H     H_    0.724215 0.734654 0.335023 0.266131
H95   H     H_    0.627011 0.776690 0.310878 0.268118
H96   H     H_    0.511976 0.746851 0.864762 0.108801
H97   H     H_    0.430909 0.698420 0.861265 0.104448
H98   H     H_    0.412573 0.747461 0.659427 0.199063
H99   H     H_    0.333826 0.697851 0.655086 0.200059
H100  H     H_    0.292099 0.763917 0.750327 0.269509
H101  H     H_    0.267196 0.792300 0.624321 0.269576
H102  H     H_    0.555845 0.252751 0.815605 0.111172
H103  H     H_    0.371539 0.813825 0.755560 0.272045
H104  H     H_    0.993850 0.213519 0.154495 0.102159
H105  H     H_    0.078490 0.158279 0.233016 0.100524
H106  H     H_    0.993961 0.237893 0.316847 0.200405
H107  H     H_    0.077065 0.182940 0.395463 0.189875
H108  H     H_    0.197023 0.226199 0.374939 0.264779
H109  H     H_    0.159990 0.272051 0.439067 0.271292
H110  H     H_    0.113663 0.281477 0.295891 0.270840
H111  H     H_    0.949290 0.249933 0.829592 0.114049
H112  H     H_    0.912492 0.197326 0.880646 0.106678
N1    N     N_R   0.395440 0.396300 0.944370 -0.038600
N2    N     N_R   0.474910 0.470990 0.794360 -0.040415
N3    N     N_R   0.025090 0.970990 0.205640 -0.042679
N4    N     N_R   0.974910 0.970990 0.794360 -0.042379
N5    N     N_R   0.320240 0.527820 0.794510 -0.031970
N6    N     N_R   0.679760 0.527820 0.205490 -0.045959
N7    N     N_R   0.820240 0.027820 0.794510 -0.031846
N8    N     N_R   0.179760 0.027820 0.205490 -0.045817
N9    N     N_R   0.524580 0.527810 0.205160 -0.048028
N10   N     N_R   0.475420 0.527810 0.794840 -0.036700
N11   N     N_R   0.024580 0.027810 0.205160 -0.049377
N12   N     N_R   0.604560 0.396300 0.055630 -0.036991
N13   N     N_R   0.975420 0.027810 0.794840 -0.035064
N14   N     N_R   0.320750 0.470990 0.794990 -0.027245
N15   N     N_R   0.679250 0.470990 0.205010 -0.029465
N16   N     N_R   0.820750 0.970990 0.794990 -0.028846
N17   N     N_R   0.179250 0.970990 0.205010 -0.030731
N18   N     N_R   0.393580 0.602500 0.942610 -0.069570
N19   N     N_R   0.606420 0.602500 0.057390 -0.064836
N20   N     N_R   0.893580 0.102500 0.942610 -0.066761
N21   N     N_R   0.106420 0.102500 0.057390 -0.066394
N22   N     N_R   0.451750 0.396300 0.057540 -0.038870
N23   N     N_R   0.895440 0.896300 0.944370 -0.037914
N24   N     N_R   0.548250 0.396300 0.942460 -0.038570
N25   N     N_R   0.951750 0.896300 0.057540 -0.037912
N26   N     N_R   0.048250 0.896300 0.942460 -0.036888
N27   N     N_R   0.104560 0.896300 0.055630 -0.035231
N28   N     N_R   0.449890 0.602500 0.055780 -0.096458
N29   N     N_R   0.550110 0.602500 0.944220 -0.082104
N30   N     N_R   0.949890 0.102500 0.055780 -0.106420
N31   N     N_R   0.050110 0.102500 0.944220 -0.079486
N32   N     N_R   0.525090 0.470990 0.205640 -0.041954
Ni1   Ni    Ni4+2 0.435420 0.434250 0.870220 0.211301
Ni2   Ni    Ni4+2 0.564580 0.434250 0.129780 0.206383
Ni3   Ni    Ni4+2 0.935420 0.934250 0.870220 0.208644
Ni4   Ni    Ni4+2 0.064580 0.934250 0.129780 0.203911
Ni5   Ni    Ni4+2 0.563400 0.564580 0.128670 0.196991
Ni6   Ni    Ni4+2 0.436600 0.564580 0.871330 0.223822
Ni7   Ni    Ni4+2 0.063400 0.064580 0.128670 0.189407
Ni8   Ni    Ni4+2 0.936600 0.064580 0.871330 0.232786
O1    O     O_3   0.965458 0.545036 0.305059 -0.617271
O2    O     O_3   0.022765 0.537923 0.517255 -0.626225
O3    O     O_3   0.467503 0.047642 0.315778 -0.618333
O4    O     O_3   0.517438 0.034929 0.523913 -0.625159
O5    O     O_3   0.443211 0.646697 0.195068 -0.704156
O6    O     O_3   0.512126 0.669123 0.807731 -0.705077
O7    O     O_3   0.942952 0.147718 0.194960 -0.698273
O8    O     O_3   0.978495 0.170549 0.804971 -0.699013

loop_
_geom_bond_atom_site_label_1
_geom_bond_atom_site_label_2
_ccdc_geom_bond_type
C4    H79   S    
C44   C48   A    
N3    Ni4   S    
C58   O6    S    
C75   C76   A    
N4    Ni3   S    
C13   C90   A    
C69   C72   A    
C39   H102  S    
C16   H106  S    
C111  C112  S    
C12   H98   S    
N28   Ni5   S    
C51   N27   A    
C101  N22   A    
C114  C115  S    
C57   C62   A    
C77   C78   A    
C4    H78   S    
C76   H32   S    
C26   C27   S    
N26   N27   A    
C22   C32   S    
C90   N11   A    
C90   H46   S    
C102  N24   A    
C79   N32   A    
C60   N31   A    
C48   H18   S    
C36   H69   S    
C7    H86   S    
C3    H75   S    
C3    C116  S    
C92   H8    S    
C28   C33   D    
C5    C6    S    
C97   H49   S    
N23   N25   A    
C16   C17   S    
C54   C63   A    
C67   H28   S    
C68   C74   A    
C114  H67   S    
C13   C81   A    
C25   C87   A    
C101  H12   S    
C104  N26   A    
C40   H36   S    
N9    Ni5   S    
C18   C19   S    
C42   C46   A    
C43   H17   S    
C35   C42   A    
C94   N16   A    
C110  C111  S    
N22   Ni2   S    
C20   H7    S    
C7    H87   S    
N31   Ni8   S    
C28   H55   S    
N5    Ni6   S    
C53   C61   A    
C10   H94   S    
C64   C84   S    
C83   N5    A    
C26   H53   S    
C52   C54   A    
C68   C69   A    
C59   O7    S    
C31   O1    S    
N8    Ni7   S    
C59   N30   A    
C51   H47   S    
C103  C108  A    
N15   Ni2   S    
C45   C49   A    
C41   H2    S    
C36   C63   A    
C43   C47   A    
C9    C10   S    
C29   N12   A    
C20   H6    S    
N1    N22   A    
C65   C95   S    
C115  H71   S    
N6    N15   A    
C112  H64   S    
C56   H26   S    
C66   C67   A    
C49   H19   S    
N2    Ni1   S    
C19   H3    S    
C26   C31   D    
C51   C109  A    
C33   O3    S    
C69   H30   S    
C35   H58   S    
C34   O4    S    
C73   C98   A    
C85   H41   S    
N21   N31   A    
C1    N1    A    
N30   Ni7   S    
N8    N17   A    
C89   H45   S    
N19   N29   A    
C45   C105  S    
C6    C7    S    
C99   H51   S    
C94   H10   S    
C101  C105  A    
C4    H77   S    
C113  H65   S    
C81   H38   S    
C50   C53   A    
C80   H37   S    
C38   H91   S    
C30   C34   D    
C58   N29   A    
C14   H100  S    
C111  H60   S    
C37   H80   S    
C91   N13   A    
N10   Ni6   S    
C113  O2    S    
C38   C41   A    
N32   Ni2   S    
C100  N21   A    
C93   N15   A    
C80   N2    A    
C97   N18   A    
C115  H70   S    
C95   C100  A    
C8    C9    S    
N6    Ni5   S    
C5    H81   S    
C83   H40   S    
C63   C73   S    
C14   H101  S    
C75   H31   S    
C110  H59   S    
C5    H82   S    
C21   C74   S    
C32   O2    S    
C24   C34   S    
C87   N8    A    
C85   N6    A    
C79   C106  A    
C23   C31   S    
C15   H105  S    
C2    C89   A    
C92   N14   A    
C11   O6    S    
C72   C77   A    
C24   C94   A    
C11   H96   S    
C62   C97   A    
C88   C106  A    
C17   H110  S    
C10   H95   S    
C10   H93   S    
C54   H23   S    
C38   C65   A    
C8    H88   S    
C29   H25   S    
C55   C64   A    
C44   C107  S    
N9    N32   A    
C52   H21   S    
C3    C4    S    
N13   Ni8   S    
N11   Ni7   S    
C102  C107  A    
C35   C61   A    
N16   Ni3   S    
C1    H1    S    
C59   C84   A    
C15   O7    S    
C86   H42   S    
C27   H54   S    
C30   H56   S    
C20   H5    S    
C98   H50   S    
C18   H112  S    
C66   C71   A    
C11   H97   S    
C112  H63   S    
N20   N30   A    
C82   H39   S    
N24   Ni1   S    
N25   Ni4   S    
C116  H74   S    
C13   C72   S    
C12   C14   S    
N26   Ni3   S    
N12   N24   A    
C57   O5    S    
C53   H22   S    
C8    H89   S    
C81   N3    A    
C103  N25   A    
C14   H103  S    
N2    N10   A    
C39   C44   A    
C17   H109  S    
C2    C71   S    
C116  O3    S    
C113  H66   S    
C96   N17   A    
C37   C64   A    
C78   H34   S    
C116  H73   S    
C79   H35   S    
C113  C114  S    
C21   C91   A    
C110  H57   S    
N7    Ni8   S    
C40   N23   A    
C82   N4    A    
C5    O4    S    
C41   C45   A    
C60   O8    S    
C48   C55   A    
C27   C32   D    
C84   C99   A    
C89   N10   A    
C18   O8    S    
N29   Ni6   S    
C8    O5    S    
N12   Ni2   S    
N3    N11   A    
C16   H107  S    
C9    H92   S    
C71   C76   A    
C19   H4    S    
C110  O1    S    
C11   C12   S    
C77   H33   S    
C47   C52   A    
N20   Ni8   S    
C56   C65   A    
N1    Ni1   S    
C24   C86   A    
C49   C56   A    
C46   C50   A    
C86   N7    A    
C1    C105  A    
C40   C108  A    
C100  H52   S    
C67   C70   A    
C22   C83   A    
N21   Ni7   S    
C19   C20   S    
C28   C30   S    
C9    H90   S    
C99   N20   A    
C23   C85   A    
N4    N13   A    
C7    H85   S    
C17   H108  S    
C50   H20   S    
C3    H76   S    
C6    H84   S    
C115  H72   S    
N17   Ni4   S    
C6    H83   S    
N18   N28   A    
C57   N28   A    
C114  H68   S    
C88   N9    A    
C74   C78   A    
N14   Ni1   S    
C87   H43   S    
C21   C82   A    
C42   H13   S    
C88   H44   S    
C61   C62   S    
C91   H48   S    
C93   H9    S    
N7    N16   A    
C70   C106  S    
C2    C80   A    
C18   H111  S    
C55   H24   S    
N19   Ni5   S    
C60   C95   A    
C23   C93   A    
N5    N14   A    
C98   N19   A    
N27   Ni4   S    
C96   H11   S    
C25   C96   A    
C37   C39   A    
C47   C108  S    
C104  H16   S    
C46   C109  S    
N23   Ni3   S    
C70   C75   A    
C111  H61   S    
C22   C92   A    
C104  C109  A    
C29   C107  A    
C36   C43   A    
C12   H99   S    
C15   H104  S    
N18   Ni6   S    
C112  H62   S    
C103  H15   S    
C66   H27   S    
C68   H29   S    
C15   C16   S    
C58   C73   A    
C25   C33   S    
C102  H14   S    
