data_mof_unit_28634.cif
_audit_creation_date              2012-12-10T18:12:32-0500
_audit_creation_method            fapswitch 2.2
_symmetry_space_group_name_H-M    P1
_symmetry_Int_Tables_number       1
_space_group_crystal_system       triclinic
_cell_length_a                    12.612746
_cell_length_b                    13.239818
_cell_length_c                    15.709835
_cell_angle_alpha                 91.369588
_cell_angle_beta                  102.36075
_cell_angle_gamma                 83.930053
_cell_volume                      2548.21097918

loop_
_atom_site_label
_atom_site_type_symbol
_atom_type_description
_atom_site_fract_x
_atom_site_fract_y
_atom_site_fract_z
_atom_type_partial_charge
C1    C     C_R   0.440572 0.691360 0.487291 0.855176
C2    C     C_R   0.597925 0.203072 0.539885 -0.171109
C3    C     C_R   0.311393 0.831992 0.521193 0.019989
C4    C     C_R   0.501037 0.499577 0.661930 0.898196
C5    C     C_R   0.315750 0.907162 0.585430 -0.208329
C6    C     C_R   0.402583 0.965843 0.604226 -0.209502
C7    C     C_R   0.481743 0.956517 0.553060 0.105448
C8    C     C_R   0.491248 0.867822 0.502880 0.087449
C9    C     C_R   0.554825 0.030101 0.552197 0.007792
C10   C     C_R   0.658023 0.996819 0.533762 0.056010
C11   C     C_R   0.673339 0.903437 0.492779 -0.209446
C12   C     C_3   0.502872 0.486794 0.916955 0.124857
C13   C     C_R   0.585591 0.846385 0.467817 -0.189526
C14   C     C_R   0.524625 0.135991 0.556936 -0.153130
C15   C     C_R   0.708775 0.167617 0.545802 0.387715
C16   C     C_R   0.559987 0.309688 0.516678 0.897732
C17   C     C_R   0.408828 0.800720 0.493053 -0.196167
C18   C     C_R   0.085043 0.350513 0.373093 0.335554
C19   C     C_R   0.804663 0.614664 0.614524 -0.094481
C20   C     C_R   0.913918 0.617882 0.656373 -0.151778
C21   C     C_R   0.996682 0.563872 0.619116 0.376162
C22   C     C_R   0.966893 0.513931 0.537427 -0.020932
C23   C     C_3   0.396572 0.478913 0.008740 -0.287877
C24   C     C_R   0.854541 0.502286 0.506380 0.156007
C25   C     C_R   0.043794 0.467499 0.488994 -0.030044
C26   C     C_R   0.009191 0.398327 0.420097 0.024508
C27   C     C_R   0.899368 0.380995 0.397862 -0.283062
C28   C     C_R   0.499175 0.499274 0.338021 0.881018
C29   C     C_R   0.824240 0.432012 0.440136 -0.107055
C30   C     C_R   0.152633 0.491189 0.502703 0.008071
C31   C     C_R   0.191011 0.377141 0.391689 -0.009917
C32   C     C_3   0.532779 0.576501 0.035405 -0.221913
C33   C     C_3   0.602794 0.496874 0.991069 -0.246733
C34   C     C_3   0.497505 0.489192 0.082224 0.133103
C35   C     C_1   0.503859 0.495105 0.751165 -0.171997
C36   C     C_1   0.497732 0.495659 0.248692 -0.189265
C37   C     C_3   0.434100 0.564117 0.961090 0.492638
C38   C     C_R   0.416056 0.177837 0.573010 0.152713
C39   C     C_R   0.410463 0.236775 0.647845 -0.138944
C40   C     C_R   0.309345 0.275216 0.664566 -0.071007
C41   C     C_R   0.213137 0.254063 0.607444 -0.113472
C42   C     C_R   0.217992 0.196956 0.532197 -0.178318
C43   C     C_R   0.318891 0.161042 0.513676 -0.101231
C44   C     C_R   0.206123 0.790014 0.482618 0.136790
C45   C     C_3   0.467901 0.400590 0.964596 -0.002066
C46   C     C_R   0.126568 0.781776 0.531908 -0.143435
C47   C     C_R   0.023853 0.753329 0.492408 -0.138061
C48   C     C_R   0.000701 0.728218 0.404098 -0.136701
C49   C     C_R   0.079554 0.733726 0.354621 -0.140302
C50   C     C_R   0.181018 0.765788 0.393155 -0.110138
C51   C     C_R   0.938236 0.673886 0.740427 0.103872
C52   C     C_R   0.881278 0.658776 0.806222 -0.152514
C53   C     C_R   0.904634 0.710527 0.885576 -0.134237
C54   C     C_R   0.985151 0.777494 0.900235 -0.124656
C55   C     C_R   0.042099 0.793116 0.835424 -0.125676
C56   C     C_3   0.567998 0.409524 0.039963 -0.171795
C57   C     C_R   0.018170 0.742335 0.755673 -0.116254
C58   C     C_R   0.436661 0.301386 0.922914 0.129932
C59   C     C_R   0.330613 0.273317 0.915020 -0.148385
C60   C     C_R   0.303016 0.180815 0.876113 -0.146716
C61   C     C_R   0.381009 0.115632 0.845226 -0.107349
C62   C     C_R   0.486686 0.142971 0.852966 -0.146633
C63   C     C_R   0.514385 0.235687 0.891297 -0.177805
C64   C     C_R   0.853591 0.025181 0.584984 0.125436
C65   C     C_R   0.885808 0.020332 0.676185 -0.087303
C66   C     C_R   0.995836 0.017311 0.716518 -0.141126
C67   C     C_1   0.504226 0.490622 0.826369 -0.017539
C68   C     C_R   0.074086 0.018600 0.666085 -0.140140
C69   C     C_R   0.042833 0.017513 0.574950 -0.137618
C70   C     C_R   0.932818 0.019499 0.534252 -0.199183
C71   C     C_1   0.496983 0.492220 0.173146 -0.045524
C72   C     C_R   0.739493 0.062628 0.547351 -0.134440
H1    H     H_    0.686671 0.503723 0.982049 0.154106
H2    H     H_    0.742878 0.412080 0.421049 0.214238
H3    H     H_    0.622826 0.345427 0.074715 0.145048
H4    H     H_    0.312470 0.474716 0.018290 0.142385
H5    H     H_    0.748377 0.880575 0.471139 0.148169
H6    H     H_    0.484521 0.252912 0.692982 0.117621
H7    H     H_    0.305623 0.320973 0.722052 0.158713
H8    H     H_    0.134832 0.282862 0.620921 0.156615
H9    H     H_    0.143407 0.181502 0.487609 0.139278
H10   H     H_    0.321472 0.117849 0.454611 0.135587
H11   H     H_    0.143170 0.798708 0.600619 0.130364
H12   H     H_    0.404363 0.021280 0.656004 0.152777
H13   H     H_    0.961960 0.751076 0.530274 0.138863
H14   H     H_    0.921544 0.704917 0.374000 0.132937
H15   H     H_    0.061418 0.714863 0.285974 0.131239
H16   H     H_    0.239481 0.772922 0.352783 0.112786
H17   H     H_    0.009340 0.234602 0.327768 0.323056
H18   H     H_    0.106203 0.557964 0.728192 0.354253
H19   H     H_    0.819719 0.606003 0.796610 0.135397
H20   H     H_    0.860696 0.698225 0.935907 0.129656
H21   H     H_    0.003560 0.817107 0.961855 0.123992
H22   H     H_    0.104872 0.844605 0.846963 0.129515
H23   H     H_    0.251676 0.922345 0.620164 0.138212
H24   H     H_    0.062426 0.755768 0.706193 0.143603
H25   H     H_    0.269006 0.322769 0.938349 0.130339
H26   H     H_    0.221045 0.159753 0.869696 0.130665
H27   H     H_    0.359404 0.044248 0.814925 0.121830
H28   H     H_    0.546855 0.092755 0.828500 0.132199
H29   H     H_    0.596360 0.256297 0.896393 0.130967
H30   H     H_    0.329605 0.680201 0.961411 0.321134
H31   H     H_    0.851589 0.205258 0.535049 0.338352
H32   H     H_    0.825175 0.026388 0.716092 0.121617
H33   H     H_    0.019971 0.018475 0.786882 0.122329
H34   H     H_    0.593875 0.784005 0.423165 0.164099
H35   H     H_    0.158386 0.022304 0.698262 0.120932
H36   H     H_    0.103053 0.018436 0.535442 0.143241
H37   H     H_    0.908948 0.025112 0.463941 0.130774
H38   H     H_    0.250232 0.341835 0.356568 0.160888
H39   H     H_    0.868567 0.330506 0.345393 0.161051
H40   H     H_    0.183030 0.549563 0.547398 0.215729
H41   H     H_    0.740256 0.653473 0.642541 0.170022
H42   H     H_    0.557542 0.649395 0.065614 0.141156
N1    N     N_R   0.222180 0.444680 0.455580 -0.153700
N2    N     N_R   0.776980 0.554790 0.543960 -0.134548
O1    O     O_R   0.366730 0.627160 0.478790 -0.605717
O2    O     O_3   0.103535 0.549131 0.665097 -0.803223
O3    O     O_3   0.364922 0.644518 0.916944 -0.766504
O4    O     O_3   0.785255 0.236826 0.552970 -0.749405
O5    O     O_R   0.544830 0.662520 0.507160 -0.616860
O6    O     O_R   0.410960 0.482330 0.609040 -0.597626
O7    O     O_R   0.589060 0.517690 0.637410 -0.620099
O8    O     O_R   0.455170 0.337480 0.492840 -0.618295
O9    O     O_R   0.633270 0.372840 0.521210 -0.564085
O10   O     O_R   0.410940 0.482310 0.362590 -0.614357
O11   O     O_R   0.589040 0.517670 0.390960 -0.646446
O12   O     O_3   0.059960 0.277844 0.309687 -0.782467
Zn1   Zn    Zn3+2 0.381080 0.476390 0.481050 0.961907
Zn2   Zn    Zn3+2 0.618920 0.523610 0.518950 0.950353

loop_
_geom_bond_atom_site_label_1
_geom_bond_atom_site_label_2
_ccdc_geom_bond_type
C66   C68   A    
C34   C56   S    
C8    C13   A    
C23   C45   S    
C27   C29   A    
C41   C42   A    
C49   H15   S    
H31   O4    S    
C18   C26   A    
O5    Zn2   S    
C63   H29   S    
C41   H8    S    
C7    C8    A    
C53   C54   A    
C15   C72   A    
C26   C27   A    
C21   O2    S    
C47   H13   S    
C20   C51   S    
C60   H26   S    
N1    Zn1   S    
C38   C39   A    
C19   H41   S    
C25   C30   A    
C15   O4    S    
C12   C37   S    
C49   C50   A    
C24   C29   A    
C54   H21   S    
C11   H5    S    
C18   O12   S    
C46   C47   A    
O9    Zn2   S    
C19   C20   A    
C45   C56   S    
C44   C46   A    
C68   C69   A    
C57   H24   S    
C51   C57   A    
C68   H35   S    
C64   C70   A    
O1    Zn1   S    
C9    C10   A    
C23   H4    S    
O6    Zn1   S    
C61   C62   A    
C36   C71   T    
C50   H16   S    
C33   C56   S    
C4    C35   S    
C27   H39   S    
C59   C60   A    
C56   H3    S    
C21   C22   A    
C61   H27   S    
C42   H9    S    
C55   H22   S    
C31   N1    A    
C5    H23   S    
C69   H36   S    
C28   O10   A    
C30   N1    A    
C3    C44   S    
C12   C67   S    
C45   C58   S    
C6    H12   S    
C51   C52   A    
C39   H6    S    
C39   C40   A    
C12   C45   S    
C29   H2    S    
O10   Zn1   S    
C25   C26   A    
C23   C37   S    
C22   C25   A    
C4    O7    A    
C30   H40   S    
C60   C61   A    
C32   C34   S    
C9    C14   A    
C62   C63   A    
C70   H37   S    
C14   C38   S    
C47   C48   A    
C37   O3    S    
C35   C67   T    
C23   C34   S    
C53   H20   S    
C40   H7    S    
C4    O6    A    
C1    O1    A    
C32   C37   S    
C2    C15   A    
C62   H28   S    
C33   H1    S    
C48   C49   A    
C24   N2    A    
C55   C57   A    
O7    Zn2   S    
C59   H25   S    
C48   H14   S    
C42   C43   A    
C66   H33   S    
H18   O2    S    
C2    C16   S    
C52   C53   A    
C16   O9    A    
C44   C50   A    
C58   C63   A    
C7    C9    A    
C54   C55   A    
C40   C41   A    
C13   H34   S    
C3    C5    A    
C28   O11   A    
C6    C7    A    
C1    C17   S    
C8    C17   A    
C64   C65   A    
C58   C59   A    
O11   Zn2   S    
C38   C43   A    
C32   C33   S    
C11   C13   A    
C5    C6    A    
C19   N2    A    
C31   H38   S    
O8    Zn1   S    
C3    C17   A    
C22   C24   A    
C64   C72   S    
C16   O8    A    
C69   C70   A    
C2    C14   A    
C1    O5    A    
C10   C11   A    
C46   H11   S    
N2    Zn2   S    
C20   C21   A    
C28   C36   S    
C65   C66   A    
C43   H10   S    
C52   H19   S    
C18   C31   A    
C65   H32   S    
C32   H42   S    
C12   C33   S    
C34   C71   S    
H30   O3    S    
H17   O12   S    
C10   C72   A    
