data_mof_unit_21569.cif
_audit_creation_date              2012-10-26T19:04:40-0400
_audit_creation_method            fapswitch 2.2
_symmetry_space_group_name_H-M    P1
_symmetry_Int_Tables_number       1
_space_group_crystal_system       triclinic
_cell_length_a                    9.690448
_cell_length_b                    10.765322
_cell_length_c                    13.355241
_cell_angle_alpha                 92.936373
_cell_angle_beta                  72.979289
_cell_angle_gamma                 90.543123
_cell_volume                      1330.43317775

loop_
_atom_site_label
_atom_site_type_symbol
_atom_type_description
_atom_site_fract_x
_atom_site_fract_y
_atom_site_fract_z
_atom_type_partial_charge
C1    C     C_R   0.498795 0.737156 0.504149 0.544315
C2    C     C_R   0.382766 0.449544 0.809293 -0.008517
C3    C     C_R   0.284722 0.879364 0.670147 -0.110875
C4    C     C_R   0.423640 0.485145 0.698337 0.523449
C5    C     C_R   0.180932 0.948312 0.746764 -0.124987
C6    C     C_R   0.179826 0.077417 0.746030 -0.119433
C7    C     C_R   0.282320 0.138385 0.668565 -0.102451
C8    C     C_R   0.387238 0.070378 0.588899 0.028366
C9    C     C_R   0.388382 0.939016 0.589689 0.026034
C10   C     C_R   0.496592 0.871555 0.511934 -0.003062
C11   C     C_R   0.605031 0.932850 0.438849 -0.153920
C12   C     C_R   0.445002 0.427912 0.972539 0.029145
C13   C     C_R   0.604015 0.060886 0.438091 -0.153169
C14   C     C_R   0.494614 0.129647 0.510455 0.004961
C15   C     C_R   0.911153 0.334257 0.360900 -0.090782
C16   C     C_R   0.498227 0.263162 0.503107 0.520533
C17   C     C_R   0.009154 0.252321 0.293338 -0.176313
C18   C     C_R   0.151055 0.251053 0.294320 -0.177528
C19   C     C_R   0.196296 0.332298 0.362348 -0.089883
C20   C     C_R   0.100551 0.417529 0.432628 0.149794
C21   C     C_R   0.951725 0.417864 0.432374 0.144810
C22   C     C_R   0.904019 0.580838 0.563779 0.095821
C23   C     C_R   0.487583 0.426574 0.861875 0.013350
C24   C     C_R   0.051140 0.578651 0.563426 0.011472
C25   C     C_R   0.577623 0.498644 0.300019 0.538065
C26   C     C_R   0.804122 0.479209 0.016997 -0.137740
C27   C     C_R   0.621472 0.487708 0.184998 -0.005325
C28   C     C_R   0.236673 0.440004 0.865234 -0.148104
C29   C     C_R   0.195469 0.414161 0.970929 -0.144388
C30   C     C_R   0.297123 0.413571 0.025420 -0.117024
C31   C     C_3   0.810980 0.680281 0.635055 -0.337069
C32   C     C_3   0.894923 0.398930 0.792395 -0.407486
C33   C     C_R   0.552157 0.444012 0.025132 0.015339
C34   C     C_R   0.700098 0.446815 0.965989 0.065032
C35   C     C_R   0.740042 0.415352 0.857527 -0.017950
C36   C     C_R   0.632841 0.399841 0.808099 -0.108533
C37   C     C_R   0.515739 0.465221 0.134244 -0.139457
C38   C     C_R   0.765951 0.496951 0.125691 -0.148235
Cu1   Cu    Cu3+1 0.359340 0.500010 0.500010 0.904805
Cu2   Cu    Cu3+1 0.640660 0.499990 0.499990 0.900685
H1    H     H_    0.849194 0.518385 0.163056 0.131503
H2    H     H_    0.307773 0.325016 0.355920 0.183979
H3    H     H_    0.088958 0.642819 0.614580 0.117502
H4    H     H_    0.914623 0.493405 0.972532 0.107225
H5    H     H_    0.404792 0.466679 0.181444 0.126064
H6    H     H_    0.155014 0.450796 0.826588 0.119398
H7    H     H_    0.257031 0.397939 0.107921 0.110700
H8    H     H_    0.084236 0.397481 0.012712 0.111777
H9    H     H_    0.664796 0.364577 0.727486 0.162809
H10   H     H_    0.688871 0.881005 0.380282 0.129588
H11   H     H_    0.870426 0.731476 0.683721 0.065368
H12   H     H_    0.284403 0.779639 0.676295 0.128976
H13   H     H_    0.780413 0.751713 0.588876 0.162946
H14   H     H_    0.716538 0.641413 0.692017 0.174031
H15   H     H_    0.904914 0.363347 0.710993 0.140428
H16   H     H_    0.949269 0.490491 0.787426 0.123363
H17   H     H_    0.949249 0.330957 0.828174 0.121760
H18   H     H_    0.102289 0.901397 0.807844 0.109475
H19   H     H_    0.100445 0.130680 0.806612 0.110038
H20   H     H_    0.279561 0.238779 0.673373 0.140593
H21   H     H_    0.687413 0.106558 0.379102 0.113166
H22   H     H_    0.805250 0.328758 0.353274 0.180651
H23   H     H_    0.974549 0.189562 0.239505 0.116377
H24   H     H_    0.227345 0.187345 0.241202 0.122934
N1    N     N_R   0.852480 0.498790 0.499000 -0.236839
N2    N     N_R   0.148360 0.498710 0.498970 -0.255534
O1    O     O_R   0.381190 0.680360 0.500010 -0.493403
O2    O     O_R   0.618760 0.680340 0.500000 -0.502748
O3    O     O_R   0.323240 0.499990 0.650990 -0.516061
O4    O     O_R   0.560820 0.499960 0.650980 -0.519194
O5    O     O_R   0.381240 0.319660 0.500000 -0.525046
O6    O     O_R   0.618810 0.319640 0.499990 -0.522409
O7    O     O_R   0.439180 0.500040 0.349020 -0.516466
O8    O     O_R   0.676760 0.500010 0.349010 -0.516697

loop_
_geom_bond_atom_site_label_1
_geom_bond_atom_site_label_2
_ccdc_geom_bond_type
C35   C36   A    
C16   O6    A    
C4    O4    A    
C26   H4    S    
C7    C8    A    
C12   C23   A    
C28   H6    S    
Cu2   O4    S    
C5    H18   S    
C20   N2    A    
C28   C29   A    
C25   O8    A    
C5    C6    A    
C27   C38   A    
C1    O2    A    
C34   C35   A    
C26   C34   A    
C19   C20   A    
C8    C9    A    
C9    C10   A    
C32   H15   S    
C25   O7    A    
C19   H2    S    
C24   N2    A    
C21   N1    A    
C13   C14   A    
C16   O5    A    
C32   H17   S    
C4    O3    A    
C33   C34   A    
C22   C31   S    
C29   H8    S    
C32   C35   S    
C30   H7    S    
C38   H1    S    
Cu1   Cu2   S    
C18   C19   A    
C33   C37   A    
C2    C4    S    
C22   N1    A    
C29   C30   A    
C3    C9    A    
C17   C18   A    
Cu1   O3    S    
C31   H13   S    
Cu2   N1    S    
Cu1   N2    S    
C22   C24   A    
C37   H5    S    
C7    H20   S    
C15   C17   A    
C8    C14   A    
Cu2   O6    S    
C12   C30   A    
Cu1   O1    S    
C6    H19   S    
C26   C38   A    
C1    C10   S    
C31   H11   S    
C3    C5    A    
C3    H12   S    
C6    C7    A    
C25   C27   S    
C11   H10   S    
C17   H23   S    
C11   C13   A    
C18   H24   S    
C27   C37   A    
C1    O1    A    
C15   H22   S    
Cu2   O8    S    
C14   C16   S    
Cu1   O7    S    
C31   H14   S    
C10   C11   A    
C15   C21   A    
C13   H21   S    
C20   C21   A    
C23   C36   A    
Cu2   O2    S    
C2    C23   A    
C24   H3    S    
Cu1   O5    S    
C2    C28   A    
C12   C33   A    
C32   H16   S    
C36   H9    S    
