data_mof_unit_5258.cif
_audit_creation_date              2012-12-10T16:57:02-0500
_audit_creation_method            fapswitch 2.2
_symmetry_space_group_name_H-M    P1
_symmetry_Int_Tables_number       1
_space_group_crystal_system       triclinic
_cell_length_a                    7.818787
_cell_length_b                    8.559438
_cell_length_c                    16.76637
_cell_angle_alpha                 92.563632
_cell_angle_beta                  79.926989
_cell_angle_gamma                 93.632083
_cell_volume                      1101.91780806

loop_
_atom_site_label
_atom_site_type_symbol
_atom_type_description
_atom_site_fract_x
_atom_site_fract_y
_atom_site_fract_z
_atom_type_partial_charge
Br1   Br    Br    0.673827 0.715458 0.942067 -0.373808
Br2   Br    Br    0.325821 0.283130 0.057834 -0.373660
Br3   Br    Br    0.153158 0.654116 0.949136 -0.358965
Br4   Br    Br    0.846134 0.344141 0.050994 -0.358826
C1    C     C_R   0.545911 0.794583 0.498005 0.951737
C2    C     C_R   0.437743 0.628107 0.232274 -0.169527
C3    C     C_R   0.545557 0.349246 0.849814 -0.122613
C4    C     C_R   0.454265 0.649778 0.150007 -0.122329
C5    C     C_R   0.425155 0.432568 0.904010 0.070552
C6    C     C_R   0.574475 0.566085 0.095894 0.070537
C7    C     C_R   0.312776 0.531003 0.876203 0.342797
C8    C     C_R   0.686767 0.467704 0.123801 0.342899
C9    C     C_R   0.327011 0.549753 0.793489 -0.206232
C10   C     C_R   0.672687 0.449425 0.206545 -0.206293
C11   C     C_2   0.446147 0.442144 0.987785 0.195864
C12   C     C_R   0.454089 0.205416 0.501996 0.951682
C13   C     C_2   0.553586 0.556378 0.012108 0.195763
C14   C     C_2   0.570137 0.958072 0.496772 -0.362125
C15   C     C_2   0.429863 0.041928 0.503230 -0.362098
C16   C     C_R   0.475620 0.497958 0.653776 0.872680
C17   C     C_R   0.524373 0.502003 0.346224 0.872666
C18   C     C_R   0.455811 0.474465 0.739593 -0.080559
C19   C     C_R   0.544114 0.525128 0.260375 -0.080601
C20   C     C_R   0.562226 0.371394 0.767583 -0.169518
H1    H     H_    0.659390 0.309769 0.725992 0.172145
H2    H     H_    0.048551 0.702976 0.599364 0.338829
H3    H     H_    0.340741 0.690035 0.273812 0.172105
H4    H     H_    0.756069 0.370875 0.228505 0.184165
H5    H     H_    0.243568 0.628354 0.771615 0.184236
H6    H     H_    0.365934 0.723616 0.128151 0.199401
H7    H     H_    0.633965 0.275390 0.871592 0.199348
H8    H     H_    0.702720 0.008870 0.490542 0.192298
H9    H     H_    0.297280 0.991130 0.509460 0.192300
H10   H     H_    0.951449 0.297025 0.400635 0.338827
N1    N     N_2   0.953500 0.457650 0.478520 0.177543
N2    N     N_2   0.046500 0.542350 0.521480 0.177544
O1    O     O_R   0.388470 0.738640 0.505270 -0.638875
O2    O     O_3   0.959302 0.647397 0.571664 -0.649686
O3    O     O_R   0.611530 0.261360 0.494730 -0.638903
O4    O     O_R   0.679650 0.711510 0.491500 -0.574499
O5    O     O_R   0.320350 0.288490 0.508500 -0.574513
O6    O     O_R   0.337210 0.515200 0.623500 -0.635816
O7    O     O_R   0.662790 0.484800 0.376500 -0.635790
O8    O     O_R   0.628380 0.488060 0.609730 -0.572313
O9    O     O_R   0.371620 0.511940 0.390270 -0.572291
O10   O     O_3   0.040698 0.352604 0.428336 -0.649685
Zn1   Zn    Zn3+2 0.305580 0.518120 0.509190 1.046808
Zn2   Zn    Zn3+2 0.694420 0.481880 0.490810 1.046799

loop_
_geom_bond_atom_site_label_1
_geom_bond_atom_site_label_2
_ccdc_geom_bond_type
C10   C19   A    
C16   O6    A    
H10   O10   S    
C1    O1    A    
O1    Zn1   S    
C7    C9    A    
O7    Zn2   S    
Br1   C13   S    
N1    N2    D    
C2    H3    S    
C4    H6    S    
N2    O2    S    
C5    C11   S    
Br2   C11   S    
C5    C7    A    
C14   H8    S    
C6    C8    A    
C12   C15   S    
C2    C19   A    
C9    H5    S    
C16   O8    A    
C3    H7    S    
C8    C10   A    
C9    C18   A    
C17   O9    A    
O6    Zn1   S    
O9    Zn1   S    
C17   C19   S    
O5    Zn1   S    
C18   C20   A    
Br4   C8    S    
N1    Zn2   S    
C6    C13   S    
C3    C20   A    
C3    C5    A    
Br3   C7    S    
C20   H1    S    
N2    Zn1   S    
C4    C6    A    
C14   C15   D    
C15   H9    S    
C1    O4    A    
C11   C13   D    
O4    Zn2   S    
H2    O2    S    
C2    C4    A    
C1    C14   S    
C12   O3    A    
C10   H4    S    
C17   O7    A    
N1    O10   S    
C12   O5    A    
O8    Zn2   S    
C16   C18   S    
O3    Zn2   S    
