data_mof_unit_25054.cif
_audit_creation_date              2013-03-05T16:00:37-0500
_audit_creation_method            fapswitch 2.2
_symmetry_space_group_name_H-M    P1
_symmetry_Int_Tables_number       1
_space_group_crystal_system       triclinic
_cell_length_a                    10.756391
_cell_length_b                    14.7282
_cell_length_c                    15.000747
_cell_angle_alpha                 64.396786
_cell_angle_beta                  104.523844
_cell_angle_gamma                 104.026777
_cell_volume                      2050.03146719

loop_
_atom_site_label
_atom_site_type_symbol
_atom_site_description
_atom_site_fract_x
_atom_site_fract_y
_atom_site_fract_z
_atom_type_partial_charge
O1    O     O_R   0.455060 0.022100 0.338110 -0.545794
O2    O     O_R   0.512640 0.160150 0.379180 -0.572393
C1    C     C_R   0.479135 0.120308 0.312638 0.818940
O3    O     O_R   0.288900 0.930980 0.479450 -0.551414
O4    O     O_R   0.346480 0.069030 0.520520 -0.601718
C2    C     C_R   0.259604 0.000304 0.499182 0.771280
Cu1   Cu    Cu3+1 0.465900 0.918260 0.475680 1.020273
Cu2   Cu    Cu3+1 0.534100 0.081740 0.524320 0.952008
O5    O     O_R   0.487360 0.839850 0.620820 -0.520499
O6    O     O_R   0.544940 0.977900 0.661890 -0.597736
O7    O     O_R   0.653520 0.930970 0.479480 -0.602293
O8    O     O_R   0.711100 0.069020 0.520550 -0.594358
C3    C     C_R   0.519142 0.879177 0.687380 0.808202
C4    C     C_R   0.740172 0.000558 0.499840 0.746494
C5    C     C_3   0.030092 0.925852 0.455897 -0.304315
H1    H     H_    0.056449 0.847883 0.498021 0.208962
C6    C     C_3   0.888686 0.921806 0.460897 -0.376832
H2    H     H_    0.829271 0.936901 0.384936 0.184371
H3    H     H_    0.850695 0.843716 0.511698 0.178432
H4    H     H_    0.122311 0.891939 0.655278 0.163951
H5    H     H_    0.912834 0.898718 0.658707 0.165148
C7    C     C_3   0.099517 0.970253 0.607403 -0.375354
C8    C     C_3   0.084392 0.108984 0.433200 -0.359467
C9    C     C_3   0.121567 0.001093 0.499079 0.094753
H6    H     H_    0.145323 0.165153 0.463812 0.177395
H7    H     H_    0.102848 0.134328 0.355571 0.177605
C10   C     C_3   0.878254 0.001348 0.499610 0.136005
C11   C     C_3   0.956978 0.973957 0.607221 -0.370330
C12   C     C_3   0.939482 0.108064 0.430508 -0.373584
H8    H     H_    0.886380 0.127842 0.352217 0.162811
H9    H     H_    0.931330 0.167372 0.455100 0.184267
H10   H     H_    0.165730 0.022580 0.640693 0.174810
H11   H     H_    0.954572 0.031571 0.635961 0.169622
C13   C     C_R   0.453903 0.188960 0.206183 -0.099232
C14   C     C_R   0.514805 0.809656 0.793520 -0.166966
C15   C     C_R   0.350566 0.216559 0.035449 -0.187412
C16   C     C_R   0.395095 0.150884 0.132191 -0.136573
C17   C     C_R   0.477917 0.294339 0.179846 -0.161190
C18   C     C_R   0.426183 0.361724 0.084796 0.113054
C19   C     C_R   0.364233 0.321153 0.011519 0.148591
C20   C     C_R   0.439586 0.468762 0.058425 -0.057334
C21   C     C_R   0.417682 0.533135 0.955141 0.034900
C22   C     C_R   0.342147 0.490085 0.887549 -0.093849
C23   C     C_R   0.316382 0.385549 0.915089 -0.213200
C24   C     C_R   0.470416 0.514733 0.129229 0.335485
C25   C     C_R   0.497684 0.620773 0.096450 -0.215125
C26   C     C_R   0.497795 0.682971 0.995261 0.047506
C27   C     C_R   0.463907 0.639359 0.923384 -0.016971
C28   C     C_R   0.531037 0.788539 0.965436 -0.133250
C29   C     C_R   0.535546 0.851335 0.865244 -0.234149
C30   C     C_R   0.484888 0.702160 0.823627 0.299007
H12   H     H_    0.261527 0.355272 0.860040 0.145933
H13   H     H_    0.558610 0.932924 0.844412 0.176095
H14   H     H_    0.518414 0.654881 0.150852 0.184217
H15   H     H_    0.382445 0.070499 0.148868 0.205046
H16   H     H_    0.538829 0.322408 0.234358 0.197372
H17   H     H_    0.297219 0.536647 0.814203 0.189300
H18   H     H_    0.553036 0.822770 0.019769 0.154252
N1    N     N_R   0.585360 0.204570 0.560800 -0.192304
N2    N     N_R   0.414550 0.795430 0.439160 -0.256989
C31   C     C_R   0.737590 0.294098 0.652777 -0.293522
C32   C     C_R   0.695621 0.209401 0.627852 0.074196
C33   C     C_R   0.511507 0.280536 0.518366 0.065500
C34   C     C_R   0.547386 0.367948 0.542569 0.001167
C35   C     C_R   0.664719 0.374399 0.609309 0.145196
C36   C     C_R   0.473494 0.449946 0.500368 0.095317
C37   C     C_R   0.522496 0.541090 0.519037 0.114927
C38   C     C_R   0.640760 0.543717 0.585713 -0.152983
C39   C     C_R   0.709190 0.461323 0.630895 -0.167592
C40   C     C_R   0.351966 0.443274 0.439638 -0.137425
C41   C     C_R   0.286498 0.525612 0.389604 -0.078597
C42   C     C_R   0.333611 0.616522 0.403643 -0.053952
C43   C     C_R   0.450773 0.625699 0.470270 -0.041329
C44   C     C_R   0.262531 0.697646 0.352977 0.171003
C45   C     C_R   0.301631 0.784990 0.374366 0.435511
C46   C     C_R   0.489659 0.719136 0.484679 0.013643
H19   H     H_    0.799408 0.466557 0.681888 0.152167
H20   H     H_    0.576771 0.731124 0.534931 0.164365
H21   H     H_    0.827191 0.297228 0.704923 0.142696
H22   H     H_    0.427655 0.271898 0.464203 0.154753
H23   H     H_    0.304089 0.374812 0.428638 0.146444
N3    N     N_R   0.502262 0.656135 0.761103 0.106847
O9    O     O_R   0.601584 0.609112 0.786587 -0.374573
O10   O     O_R   0.412251 0.649821 0.686729 -0.392959
H24   H     H_    0.304290 0.185440 0.979485 0.146065
H25   H     H_    0.039298 0.953170 0.375957 0.233269
N4    N     N_R   0.456415 0.457566 0.232151 0.092865
O11   O     O_R   0.350519 0.394097 0.255316 -0.410269
O12   O     O_R   0.542851 0.477306 0.302041 -0.380302
N5    N     N_R   0.212509 0.856327 0.335718 0.146978
O13   O     O_R   0.236481 0.942586 0.261593 -0.369826
O14   O     O_R   0.092074 0.821011 0.347807 -0.362542
H26   H     H_    0.196397 0.515984 0.340394 0.197721
H27   H     H_    0.752380 0.147769 0.661091 0.127264
H28   H     H_    0.683111 0.608662 0.604595 0.154461
N6    N     N_R   0.147745 0.691563 0.280701 0.148045
O15   O     O_R   0.142661 0.757326 0.188206 -0.308709
O16   O     O_R   0.042397 0.631211 0.310261 -0.321278

loop_
_geom_bond_atom_site_label_1
_geom_bond_atom_site_label_2
_geom_bond_distance
_ccdc_geom_bond_type
N4    O11   1.301402 A    
C10   C12   1.552775 S    
C13   C16   1.400145 A    
C20   C21   1.417915 A    
C39   H19   1.084049 S    
Cu1   Cu2   2.694721 S    
C18   C20   1.428982 A    
C36   C40   1.402200 A    
C24   C25   1.397690 A    
Cu1   O7    1.969637 S    
C7    H10   1.112988 S    
C8    C12   1.545978 S    
C15   C16   1.390603 A    
C24   N4    1.430704 S    
C46   H20   1.076090 S    
C3    C14   1.480113 S    
Cu2   N1    2.024088 S    
C17   C18   1.405123 A    
O7    C4    1.295048 A    
C5    H1    1.113178 S    
Cu1   O5    1.957361 S    
C8    H7    1.113170 S    
C40   H23   1.076377 S    
O5    C3    1.296878 A    
C45   N5    1.428991 S    
C27   C30   1.420453 A    
C38   C39   1.394888 A    
N6    O16   1.301498 A    
C8    C9    1.553754 S    
C40   C41   1.375520 A    
C37   C43   1.441627 A    
C4    C10   1.483344 S    
C23   H12   1.084077 S    
C36   C37   1.437407 A    
C13   C17   1.399487 A    
O3    Cu1   1.974619 S    
C33   H22   1.075168 S    
C38   H28   1.077450 S    
C44   C45   1.400533 A    
C37   C38   1.411213 A    
C29   H13   1.083053 S    
C44   N6    1.437664 S    
C15   C19   1.400841 A    
O3    C2    1.301281 A    
C18   C19   1.420062 A    
C1    C13   1.471829 S    
N2    C46   1.371805 A    
C28   H18   1.083988 S    
O1    C1    1.302151 A    
C6    C10   1.551350 S    
C22   C23   1.385200 A    
C12   H8    1.113052 S    
N5    O14   1.300492 A    
C26   C27   1.412786 A    
Cu2   O8    1.974620 S    
C2    C9    1.487250 S    
N6    O15   1.300915 A    
C25   H14   1.084796 S    
C14   C29   1.402930 A    
C6    H2    1.113974 S    
C21   C27   1.421044 A    
C30   N3    1.439749 S    
C5    H25   1.110377 S    
C42   C44   1.398680 A    
C5    C9    1.545295 S    
H5    C11   1.113156 S    
O8    C4    1.297427 A    
C11   H11   1.113101 S    
C28   C29   1.389261 A    
N3    O10   1.301924 A    
C32   H27   1.081719 S    
C14   C30   1.422002 A    
C43   C46   1.431139 A    
C7    C9    1.551184 S    
C21   C22   1.408163 A    
Cu1   N2    2.024429 S    
C5    C6    1.527119 S    
C25   C26   1.393494 A    
N1    C32   1.358678 A    
O1    Cu1   1.961955 S    
O2    Cu2   1.957361 S    
H4    C7    1.113148 S    
C42   C43   1.416972 A    
O6    C3    1.309387 A    
O4    Cu2   1.969637 S    
C41   H26   1.081348 S    
C15   H24   1.083947 S    
C26   C28   1.398222 A    
N2    C45   1.374821 A    
N1    C33   1.360057 A    
C34   C35   1.412269 A    
N4    O12   1.300619 A    
O2    C1    1.301489 A    
C41   C42   1.398284 A    
C12   H9    1.112941 S    
N5    O13   1.296531 A    
O4    C2    1.292956 A    
C31   H21   1.083687 S    
C35   C39   1.398720 A    
C6    H3    1.114165 S    
C8    H6    1.113262 S    
C31   C32   1.394674 A    
C22   H17   1.075277 S    
C33   C34   1.425139 A    
C16   H15   1.079714 S    
C31   C35   1.401729 A    
C19   C23   1.390817 A    
C17   H16   1.077495 S    
Cu2   O6    1.961955 S    
N3    O9    1.300826 A    
C10   C11   1.550078 S    
C20   C24   1.425667 A    
C7    C11   1.546614 S    
C34   C36   1.429400 A    
