data_mof_unit_11194.cif
_audit_creation_date              2012-12-10T19:48:34-0500
_audit_creation_method            fapswitch 2.2
_symmetry_space_group_name_H-M    P1
_symmetry_Int_Tables_number       1
_space_group_crystal_system       triclinic
_cell_length_a                    10.96895
_cell_length_b                    10.620277
_cell_length_c                    9.626315
_cell_angle_alpha                 89.500178
_cell_angle_beta                  91.081089
_cell_angle_gamma                 89.875704
_cell_volume                      1121.15574718

loop_
_atom_site_label
_atom_site_type_symbol
_atom_type_description
_atom_site_fract_x
_atom_site_fract_y
_atom_site_fract_z
_atom_type_partial_charge
C1    C     C_R   0.500064 0.260357 0.500612 0.928841
C2    C     C_3   0.401171 0.042813 0.432710 0.575692
C3    C     C_3   0.499962 0.876466 0.497775 -0.353927
C4    C     C_3   0.500038 0.123534 0.502225 -0.353928
C5    C     C_3   0.400758 0.957757 0.562265 0.583573
C6    C     C_3   0.599242 0.042243 0.437735 0.583573
C7    C     C_3   0.487739 0.612510 0.048405 -0.014006
C8    C     C_3   0.512261 0.387490 0.951595 -0.014006
C9    C     C_3   0.399689 0.545745 0.946875 0.003103
C10   C     C_3   0.600311 0.454255 0.053125 0.003104
C11   C     C_3   0.587943 0.567112 0.950455 -0.054769
C12   C     C_R   0.499936 0.739643 0.499388 0.928842
C13   C     C_3   0.412057 0.432887 0.049544 -0.054767
C14   C     C_R   0.262808 0.493067 0.498506 0.899552
C15   C     C_R   0.737192 0.506933 0.501494 0.899552
C16   C     C_R   0.133074 0.448593 0.006218 -0.247962
C17   C     C_R   0.866927 0.551408 0.993784 -0.247962
C18   C     C_R   0.119852 0.513228 0.129400 0.641273
C19   C     C_R   0.880149 0.486773 0.870603 0.641273
C20   C     C_R   0.094219 0.446118 0.249454 0.014993
C21   C     C_R   0.905779 0.553882 0.750547 0.015000
C22   C     C_R   0.089049 0.313700 0.248069 -0.187223
C23   C     C_R   0.872286 0.512405 0.504515 -0.284489
C24   C     C_R   0.910947 0.686301 0.751931 -0.187219
C25   C     C_R   0.106800 0.249006 0.125092 -0.082626
C26   C     C_R   0.893196 0.750995 0.874907 -0.082632
C27   C     C_R   0.127592 0.316384 0.003311 -0.093341
C28   C     C_R   0.872406 0.683617 0.996690 -0.093347
C29   C     C_R   0.934578 0.537384 0.383780 0.556520
C30   C     C_R   0.065422 0.462618 0.616220 0.556524
C31   C     C_R   0.127713 0.487595 0.495485 -0.284485
C32   C     C_R   0.941037 0.488888 0.625475 -0.039551
C33   C     C_R   0.058963 0.511113 0.374525 -0.039548
C34   C     C_3   0.499621 0.039298 0.634000 -0.413148
C35   C     C_3   0.500379 0.960702 0.366000 -0.413147
C36   C     C_3   0.598829 0.957187 0.567290 0.575692
Cu1   Cu    Cu3+1 0.500030 0.499990 0.643150 1.022971
Cu2   Cu    Cu3+1 0.499970 0.500010 0.356850 1.022971
F1    F     F_    0.126803 0.640850 0.130297 -0.639279
F2    F     F_    0.873201 0.359150 0.869706 -0.639282
F3    F     F_    0.875860 0.598640 0.280428 -0.684146
F4    F     F_    0.124141 0.401367 0.719575 -0.684151
F5    F     F_    0.701815 0.910255 0.634848 -0.632751
F6    F     F_    0.298184 0.089745 0.365152 -0.632749
F7    F     F_    0.297328 0.911430 0.624573 -0.610396
F8    F     F_    0.702672 0.088570 0.375427 -0.610397
H1    H     H_    0.141077 0.264912 0.908667 0.253670
H2    H     H_    0.346513 0.367603 0.097317 0.152086
H3    H     H_    0.146439 0.504277 0.914734 0.221002
H4    H     H_    0.853564 0.495725 0.085269 0.221000
H5    H     H_    0.068312 0.261113 0.341625 0.211259
H6    H     H_    0.931682 0.738888 0.658374 0.211261
H7    H     H_    0.499303 0.072245 0.743130 0.211396
H8    H     H_    0.500697 0.927755 0.256870 0.211396
H9    H     H_    0.858919 0.735088 0.091332 0.253671
H10   H     H_    0.321127 0.596017 0.898533 0.160247
H11   H     H_    0.678874 0.403982 0.101466 0.160246
H12   H     H_    0.477201 0.708628 0.091032 0.148167
H13   H     H_    0.522799 0.291372 0.908968 0.148167
H14   H     H_    0.102646 0.147205 0.123779 0.207783
H15   H     H_    0.897347 0.852796 0.876219 0.207785
H16   H     H_    0.653486 0.632397 0.902683 0.152087
N1    N     N_3   0.500090 0.499970 0.858290 -0.181551
N2    N     N_3   0.499910 0.500030 0.141710 -0.181551
O1    O     O_R   0.500060 0.316850 0.620870 -0.585600
O2    O     O_R   0.499940 0.683150 0.379130 -0.585599
O3    O     O_R   0.500000 0.316860 0.379090 -0.561777
O4    O     O_R   0.500000 0.683140 0.620910 -0.561778
O5    O     O_R   0.319670 0.500010 0.620890 -0.540567
O6    O     O_R   0.680330 0.499990 0.379110 -0.540570
O7    O     O_R   0.319620 0.500010 0.379110 -0.585023
O8    O     O_R   0.680380 0.499990 0.620890 -0.585024

loop_
_geom_bond_atom_site_label_1
_geom_bond_atom_site_label_2
_ccdc_geom_bond_type
C2    C35   S    
C24   H6    S    
Cu2   O6    S    
C8    C13   S    
Cu1   O5    S    
C14   O7    A    
C14   C31   S    
C11   H16   S    
C7    C11   S    
C15   O8    A    
C12   O4    A    
C23   C29   A    
C19   C21   A    
C26   H15   S    
C24   C26   A    
C11   N1    S    
C8    H13   S    
C30   C31   A    
Cu1   O4    S    
C29   C33   A    
C6    C35   S    
C9    C13   S    
C3    C12   S    
C17   C19   A    
Cu2   O2    S    
C2    F6    S    
C22   C25   A    
Cu1   O1    S    
C1    O1    A    
C31   C33   A    
C25   H14   S    
C7    H12   S    
C18   C20   A    
C16   C27   A    
C15   C23   S    
C35   H8    S    
Cu1   N1    S    
C28   H9    S    
Cu2   N2    S    
C21   C32   S    
C4    C34   S    
C10   H11   S    
C16   H3    S    
C4    C6    S    
C19   F2    S    
C5    F7    S    
C2    C4    S    
C18   F1    S    
Cu1   Cu2   S    
C3    C35   S    
C5    C34   S    
C9    H10   S    
C20   C33   S    
C16   C18   A    
C20   C22   A    
C14   O5    A    
Cu1   O8    S    
C2    C5    S    
C27   H1    S    
C7    C9    S    
C15   O6    A    
Cu2   O7    S    
C6    F8    S    
C29   F3    S    
C9    N1    S    
C17   C28   A    
C10   N2    S    
C3    C5    S    
C17   H4    S    
C13   H2    S    
C25   C27   A    
C26   C28   A    
C1    C4    S    
C23   C32   A    
C30   C32   A    
C13   N2    S    
C12   O2    A    
C3    C36   S    
C1    O3    A    
C6    C36   S    
C34   C36   S    
C7    N2    S    
C10   C11   S    
C8    N1    S    
Cu2   O3    S    
C34   H7    S    
C8    C10   S    
C21   C24   A    
C30   F4    S    
C36   F5    S    
C22   H5    S    
