data_mof_unit_45437.cif
_audit_creation_date              2012-12-10T18:58:15-0500
_audit_creation_method            fapswitch 2.2
_symmetry_space_group_name_H-M    P1
_symmetry_Int_Tables_number       1
_space_group_crystal_system       triclinic
_cell_length_a                    11.064994
_cell_length_b                    10.852201
_cell_length_c                    9.558652
_cell_angle_alpha                 90.625459
_cell_angle_beta                  102.159324
_cell_angle_gamma                 90.097758
_cell_volume                      1121.97216488

loop_
_atom_site_label
_atom_site_type_symbol
_atom_type_description
_atom_site_fract_x
_atom_site_fract_y
_atom_site_fract_z
_atom_type_partial_charge
C1    C     C_R   0.494416 0.262371 0.497579 0.874600
C2    C     C_R   0.405916 0.448051 0.050546 0.016144
C3    C     C_R   0.406664 0.446552 0.902121 -0.071279
C4    C     C_R   0.263113 0.499356 0.442472 0.891670
C5    C     C_R   0.586941 0.565760 0.947937 0.254901
C6    C     C_3   0.723067 0.547258 0.973690 -0.491223
C7    C     C_3   0.723311 0.543749 0.131712 -0.510741
C8    C     C_R   0.500244 0.737298 0.500577 0.825658
C9    C     C_R   0.737039 0.499540 0.558025 0.853200
C10   C     C_2   0.128779 0.496424 0.411296 -0.321272
C11   C     C_2   0.068301 0.496137 0.518437 -0.146940
C12   C     C_R   0.493012 0.128450 0.493854 -0.224886
C13   C     C_2   0.871734 0.499606 0.592077 -0.346747
C14   C     C_2   0.934272 0.492252 0.487515 -0.147713
C15   C     C_R   0.549580 0.066023 0.617673 0.027335
C16   C     C_R   0.445946 0.058899 0.366783 0.443369
C17   C     C_R   0.454844 0.930696 0.370702 -0.276455
C18   C     C_R   0.501631 0.870138 0.499156 -0.160128
C19   C     C_R   0.553075 0.939124 0.620628 0.100290
C20   C     C_3   0.529141 0.934311 0.768372 -0.417562
C21   C     C_3   0.525221 0.074088 0.765688 -0.355470
C22   C     C_R   0.587432 0.564985 0.095466 0.257865
Cu1   Cu    Cu3+1 0.499990 0.499980 0.640670 0.948551
Cu2   Cu    Cu3+1 0.500010 0.500020 0.359330 0.996394
H1    H     H_    0.886602 0.483848 0.377132 0.175011
H2    H     H_    0.920056 0.506572 0.703407 0.147292
H3    H     H_    0.078978 0.493845 0.300320 0.147614
H4    H     H_    0.417661 0.877266 0.274911 0.208511
H5    H     H_    0.438522 0.891310 0.771858 0.214359
H6    H     H_    0.609492 0.897559 0.846556 0.193006
H7    H     H_    0.432369 0.112161 0.768007 0.220600
H8    H     H_    0.199657 0.239655 0.157475 0.355556
H9    H     H_    0.603192 0.118003 0.842623 0.207326
H10   H     H_    0.330661 0.404215 0.086677 0.175906
H11   H     H_    0.332875 0.399977 0.828181 0.142898
H12   H     H_    0.749160 0.457478 0.931528 0.222093
H13   H     H_    0.771801 0.629008 0.942845 0.194692
H14   H     H_    0.745919 0.450604 0.176714 0.216257
H15   H     H_    0.774449 0.622100 0.193168 0.199076
H16   H     H_    0.117522 0.499497 0.629656 0.175364
N1    N     N_R   0.500780 0.500930 0.148120 -0.191795
N2    N     N_R   0.500790 0.500890 0.852210 -0.193372
O1    O     O_R   0.500000 0.319640 0.618810 -0.591928
O2    O     O_2   0.288286 0.026234 0.112523 -0.322663
O3    O     O_3   0.264861 0.231789 0.245443 -0.562247
O4    O     O_R   0.500010 0.319680 0.381230 -0.504620
O5    O     O_R   0.320680 0.500000 0.575130 -0.598612
O6    O     O_R   0.320690 0.500040 0.337550 -0.575106
O7    O     O_R   0.499990 0.680320 0.618770 -0.582775
O8    O     O_R   0.500000 0.680360 0.381190 -0.590718
O9    O     O_R   0.679310 0.499960 0.662450 -0.590407
O10   O     O_R   0.679320 0.500000 0.424870 -0.585502
O11   O     O_2   0.451374 0.180931 0.126818 -0.303610
S1    S     S_3+6 0.362090 0.124030 0.206174 -0.021767

loop_
_geom_bond_atom_site_label_1
_geom_bond_atom_site_label_2
_ccdc_geom_bond_type
C10   H3    S    
Cu2   O10   S    
C5    N2    A    
C3    N2    A    
C6    C7    S    
O2    S1    D    
C7    C22   S    
H8    O3    S    
Cu1   O9    S    
C19   C20   S    
C9    O9    A    
C12   C15   A    
C3    H11   S    
Cu1   Cu2   S    
Cu2   O4    S    
C2    H10   S    
C2    C3    A    
C6    H13   S    
Cu1   O1    S    
Cu1   N2    S    
C20   H6    S    
O11   S1    D    
C15   C19   A    
Cu2   N1    S    
C21   H7    S    
C9    O10   A    
C5    C6    S    
C1    C12   S    
C7    H14   S    
C6    H12   S    
O3    S1    S    
C17   C18   A    
C20   H5    S    
C14   H1    S    
Cu2   O8    S    
C11   H16   S    
C13   H2    S    
C11   C14   S    
C16   S1    S    
C1    O4    A    
Cu1   O7    S    
C22   N1    A    
Cu1   O5    S    
C10   C11   D    
C2    N1    A    
C4    C10   S    
Cu2   O6    S    
C8    O8    A    
C15   C21   S    
C21   H9    S    
C20   C21   S    
C18   C19   A    
C4    O6    A    
C7    H15   S    
C9    C13   S    
C13   C14   D    
C17   H4    S    
C8    O7    A    
C1    O1    A    
C8    C18   S    
C5    C22   A    
C12   C16   A    
C16   C17   A    
C4    O5    A    
