data_mof_unit_10462.cif
_audit_creation_date              2012-10-26T19:22:35-0400
_audit_creation_method            fapswitch 2.2
_symmetry_space_group_name_H-M    P1
_symmetry_Int_Tables_number       1
_space_group_crystal_system       triclinic
_cell_length_a                    11.683277
_cell_length_b                    13.113884
_cell_length_c                    13.878008
_cell_angle_alpha                 88.14257
_cell_angle_beta                  91.257897
_cell_angle_gamma                 99.124128
_cell_volume                      2097.98180353

loop_
_atom_site_label
_atom_site_type_symbol
_atom_type_description
_atom_site_fract_x
_atom_site_fract_y
_atom_site_fract_z
_atom_type_partial_charge
C1    C     C_R   0.478952 0.299393 0.497556 0.559987
C2    C     C_R   0.848817 0.462452 0.543599 0.013671
C3    C     C_R   0.029148 0.530333 0.463089 -0.047828
C4    C     C_R   0.970071 0.466601 0.534918 -0.049343
C5    C     C_R   0.518713 0.500207 0.681915 0.547581
C6    C     C_R   0.481033 0.497038 0.318142 0.511244
C7    C     C_1   0.468940 0.490195 0.215946 -0.069192
C8    C     C_1   0.530272 0.497113 0.784381 -0.025207
C9    C     C_2   0.451189 0.477781 0.025595 0.288477
C10   C     C_2   0.549919 0.490379 0.975228 0.281656
C11   C     C_1   0.539995 0.493907 0.870688 -0.021864
C12   C     C_R   0.521020 0.700994 0.497524 0.574646
C13   C     C_1   0.460014 0.484165 0.129848 -0.037954
C14   C     C_R   0.534413 0.814821 0.494573 0.013266
C15   C     C_R   0.466830 0.186554 0.489557 0.006466
C16   C     C_R   0.346358 0.018128 0.481846 -0.119475
C17   C     C_R   0.654029 0.983653 0.503686 -0.139772
C18   C     C_R   0.355799 0.125445 0.484520 0.188486
C19   C     C_R   0.645876 0.875526 0.505677 0.213534
C20   C     C_R   0.566754 0.138929 0.484992 0.209104
C21   C     C_R   0.435652 0.863264 0.478746 0.220071
C22   C     C_3   0.751223 0.498565 0.964611 -0.018782
C23   C     C_R   0.555656 0.031007 0.491040 -0.055235
C24   C     C_3   0.861747 0.504569 0.025507 -0.386608
C25   C     C_3   0.252104 0.418760 0.033349 -0.014533
C26   C     C_3   0.145909 0.387262 0.969403 -0.371019
C27   C     C_3   0.321907 0.799598 0.351317 -0.008094
C28   C     C_3   0.206691 0.828032 0.315407 -0.400210
C29   C     C_3   0.702257 0.202366 0.374759 -0.001241
C30   C     C_3   0.817267 0.272527 0.358606 -0.366814
C31   C     C_3   0.848757 0.879883 0.486865 0.042352
C32   C     C_3   0.848119 0.895797 0.376217 -0.263503
C33   C     C_3   0.939496 0.985411 0.344140 -0.515176
C34   C     C_R   0.445432 0.970538 0.484161 -0.039734
C35   C     C_3   0.190230 0.160507 0.404877 -0.003795
C36   C     C_3   0.212074 0.261219 0.344728 -0.231333
C37   C     C_3   0.136167 0.254847 0.253642 -0.507314
C38   C     C_3   0.793833 0.626966 0.255060 -0.018032
C39   C     C_3   0.717240 0.691514 0.197385 -0.354492
C40   C     C_3   0.164352 0.270023 0.688775 -0.001289
C41   C     C_3   0.252768 0.209191 0.735082 -0.341047
C42   C     C_R   0.033249 0.409181 0.596906 -0.161821
C43   C     C_R   0.965901 0.587811 0.401174 -0.166736
C44   C     C_R   0.155414 0.415518 0.586987 0.436799
C45   C     C_R   0.844247 0.580370 0.410357 0.419458
C46   C     C_R   0.150633 0.536291 0.455745 0.009086
Cu1   Cu    Cu3+1 0.615220 0.507680 0.492970 1.021178
Cu2   Cu    Cu3+1 0.384780 0.492320 0.507030 1.013859
H1    H     H_    0.260645 0.972260 0.481556 0.167751
H2    H     H_    0.935895 0.498998 0.978463 0.096828
H3    H     H_    0.879153 0.579357 0.062440 0.138233
H4    H     H_    0.230908 0.474437 0.086504 0.132237
H5    H     H_    0.273085 0.347718 0.071457 0.124323
H6    H     H_    0.163149 0.327942 0.918706 0.152980
H7    H     H_    0.070869 0.354413 0.014547 0.083706
H8    H     H_    0.124519 0.455477 0.927409 0.167842
H9    H     H_    0.326021 0.718809 0.332114 0.143778
H10   H     H_    0.392564 0.849822 0.311052 0.101622
H11   H     H_    0.210961 0.913147 0.314369 0.122363
H12   H     H_    0.736279 0.032405 0.514626 0.159372
H13   H     H_    0.187524 0.800515 0.241084 0.096041
H14   H     H_    0.135721 0.792785 0.363467 0.163960
H15   H     H_    0.634473 0.234204 0.330580 0.127460
H16   H     H_    0.710349 0.124400 0.348792 0.116057
H17   H     H_    0.842936 0.269060 0.282387 0.079566
H18   H     H_    0.808350 0.353374 0.373133 0.167252
H19   H     H_    0.885796 0.247976 0.406674 0.146305
H20   H     H_    0.916757 0.831815 0.505524 0.157263
H21   H     H_    0.877592 0.952119 0.526024 0.109400
H22   H     H_    0.868173 0.825372 0.342981 0.196113
H23   H     H_    0.802374 0.413127 0.598676 0.138657
H24   H     H_    0.762552 0.910484 0.347724 0.160000
H25   H     H_    0.918706 0.058678 0.371830 0.141828
H26   H     H_    0.940933 0.991504 0.264166 0.143928
H27   H     H_    0.026054 0.972153 0.371358 0.136599
H28   H     H_    0.097868 0.146791 0.425473 0.139766
H29   H     H_    0.204851 0.094954 0.359954 0.105830
H30   H     H_    0.192049 0.325434 0.388275 0.197662
H31   H     H_    0.304640 0.277923 0.324018 0.161989
H32   H     H_    0.161677 0.197492 0.204472 0.142282
H33   H     H_    0.146717 0.331619 0.216064 0.133976
H34   H     H_    0.196573 0.585344 0.400579 0.129297
H35   H     H_    0.043519 0.232083 0.272013 0.142075
H36   H     H_    0.766586 0.544121 0.238004 0.162501
H37   H     H_    0.884129 0.652640 0.231139 0.088588
H38   H     H_    0.749538 0.775037 0.205572 0.115602
H39   H     H_    0.718398 0.674277 0.119748 0.151710
H40   H     H_    0.626720 0.674828 0.222814 0.166019
H41   H     H_    0.115061 0.222248 0.632040 0.150478
H42   H     H_    0.105288 0.285152 0.746468 0.101066
H43   H     H_    0.300453 0.253724 0.794284 0.154569
H44   H     H_    0.207978 0.134296 0.765165 0.089263
H45   H     H_    0.986958 0.361728 0.653094 0.071322
H46   H     H_    0.315974 0.194014 0.680914 0.193083
H47   H     H_    0.011340 0.639163 0.347340 0.072303
H48   H     H_    0.761796 0.565489 0.912349 0.141036
H49   H     H_    0.739429 0.424791 0.925302 0.132669
H50   H     H_    0.853489 0.440195 0.080209 0.149225
N1    N     N_R   0.788370 0.519230 0.482390 -0.217955
N2    N     N_R   0.211630 0.480770 0.517610 -0.224549
O1    O     O_R   0.581500 0.354430 0.495010 -0.477197
O2    O     O_3   0.344943 0.465498 0.975432 -0.572543
O3    O     O_3   0.329734 0.806551 0.453198 -0.546483
O4    O     O_3   0.675591 0.197640 0.473991 -0.550310
O5    O     O_3   0.742337 0.825643 0.522180 -0.527461
O6    O     O_3   0.256454 0.169833 0.491640 -0.560427
O7    O     O_3   0.781861 0.642542 0.354470 -0.522381
O8    O     O_3   0.223309 0.364012 0.649572 -0.497455
O9    O     O_R   0.418500 0.645570 0.504990 -0.476524
O10   O     O_R   0.386890 0.341450 0.506880 -0.440225
O11   O     O_R   0.613110 0.658550 0.493120 -0.408503
O12   O     O_R   0.611060 0.507430 0.631070 -0.522649
O13   O     O_R   0.388940 0.492570 0.368930 -0.545525
O14   O     O_R   0.416450 0.494450 0.642940 -0.432893
O15   O     O_R   0.583550 0.505550 0.357060 -0.472943
O16   O     O_3   0.656411 0.501909 0.025283 -0.601226

loop_
_geom_bond_atom_site_label_1
_geom_bond_atom_site_label_2
_ccdc_geom_bond_type
C15   C18   A    
Cu2   O10   S    
C29   H15   S    
Cu1   O1    S    
C5    O14   A    
C42   H45   S    
C35   C36   S    
C39   H39   S    
C26   H7    S    
C32   H24   S    
Cu1   O15   S    
C3    C43   A    
C17   C23   A    
C24   H50   S    
C14   C21   A    
C36   C37   S    
C25   H5    S    
C38   C39   S    
C25   O2    S    
Cu1   O12   S    
Cu1   N1    S    
C38   O7    S    
C9    C13   S    
C16   C34   A    
C46   H34   S    
C33   H27   S    
C41   H46   S    
C9    O2    S    
C43   H47   S    
C1    C15   S    
C40   H41   S    
C9    C10   D    
C30   H19   S    
C40   O8    S    
C28   H13   S    
C24   H3    S    
C22   O16   S    
Cu2   O9    S    
C29   H16   S    
C22   H49   S    
C31   O5    S    
C37   H33   S    
C15   C20   A    
C42   C44   A    
C39   H40   S    
C26   H6    S    
C12   O9    A    
C44   O8    S    
C24   H2    S    
C31   H20   S    
Cu2   N2    S    
C37   H32   S    
C35   H28   S    
C38   H37   S    
C16   H1    S    
C45   N1    A    
C32   H22   S    
C21   C34   A    
C25   C26   S    
C35   H29   S    
C29   O4    S    
C2    C4    A    
C18   O6    S    
C6    O13   A    
C29   C30   S    
C1    O10   A    
Cu1   Cu2   S    
C20   C23   A    
C31   H21   S    
C23   C34   A    
C2    H23   S    
C43   C45   A    
C30   H18   S    
C19   O5    S    
C33   H25   S    
C40   C41   S    
C41   H43   S    
C12   C14   S    
C2    N1    A    
C27   H9    S    
C22   C24   S    
C3    C4    A    
C1    O1    A    
C10   O16   S    
Cu2   O14   S    
C28   H11   S    
C46   N2    A    
C38   H36   S    
C22   H48   S    
C14   C19   A    
C31   C32   S    
C36   H31   S    
C26   H8    S    
C5    C8    S    
C6    C7    S    
C20   O4    S    
C5    O12   A    
C3    C46   A    
C32   C33   S    
C25   H4    S    
C35   O6    S    
C36   H30   S    
C44   N2    A    
C4    C42   A    
C27   H10   S    
C8    C11   T    
Cu1   O11   S    
C27   O3    S    
C17   C19   A    
C6    O15   A    
C30   H17   S    
C10   C11   S    
C17   H12   S    
C21   O3    S    
C33   H26   S    
C7    C13   T    
C41   H44   S    
C16   C18   A    
C27   C28   S    
C37   H35   S    
C39   H38   S    
C40   H42   S    
C12   O11   A    
C45   O7    S    
Cu2   O13   S    
C28   H14   S    
