data_mof_unit_22770.cif
_audit_creation_date              2012-12-11T16:28:10-0500
_audit_creation_method            fapswitch 2.2
_symmetry_space_group_name_H-M    P1
_symmetry_Int_Tables_number       1
_space_group_crystal_system       triclinic
_cell_length_a                    30.129902
_cell_length_b                    22.671449
_cell_length_c                    18.035406
_cell_angle_alpha                 90.183874
_cell_angle_beta                  122.559104
_cell_angle_gamma                 90.08875
_cell_volume                      10383.4305447

loop_
_atom_site_label
_atom_site_type_symbol
_atom_type_description
_atom_site_fract_x
_atom_site_fract_y
_atom_site_fract_z
_atom_type_partial_charge
C1    C     C_R   0.544047 0.580924 0.742608 -0.144295
C2    C     C_R   0.681469 0.356108 0.418374 -0.204786
C3    C     C_R   0.790324 0.657199 0.978099 -0.216450
C4    C     C_R   0.215502 0.711506 0.856328 -0.212422
C5    C     C_R   0.782486 0.280875 0.137256 -0.211263
C6    C     C_R   0.779832 0.707754 0.163857 -0.211309
C7    C     C_R   0.221099 0.281245 0.850151 -0.216788
C8    C     C_R   0.806044 0.258905 0.927586 -0.214073
C9    C     C_R   0.191956 0.734326 0.065863 -0.210465
C10   C     C_R   0.176430 0.290731 0.036046 -0.212684
C11   C     C_R   0.834811 0.686657 0.993449 -0.212726
C12   C     C_R   0.257238 0.677127 0.868325 -0.211095
C13   C     C_R   0.700674 0.597898 0.438136 -0.161057
C14   C     C_R   0.740819 0.315039 0.125714 -0.216260
C15   C     C_R   0.732917 0.680405 0.143335 -0.221487
C16   C     C_R   0.266021 0.311090 0.866211 -0.199860
C17   C     C_R   0.595311 0.583420 0.426399 -0.129741
C18   C     C_R   0.406012 0.416293 0.575400 -0.138538
C19   C     C_R   0.424445 0.610121 0.573306 -0.131775
C20   C     C_R   0.594018 0.416708 0.424311 -0.142730
C21   C     C_R   0.077834 0.107299 0.425393 -0.139645
C22   C     C_R   0.921362 0.891707 0.572563 -0.136680
C23   C     C_R   0.921876 0.107217 0.574740 -0.134023
C24   C     C_R   0.318253 0.356189 0.581049 -0.201166
C25   C     C_R   0.094742 0.914938 0.426393 -0.138147
C26   C     C_R   0.383329 0.582699 0.259170 -0.153797
C27   C     C_R   0.616161 0.414023 0.737802 -0.142091
C28   C     C_R   0.617490 0.581708 0.741394 -0.129843
C29   C     C_R   0.383218 0.416221 0.260119 -0.134546
C30   C     C_R   0.884274 0.086761 0.261409 -0.157762
C31   C     C_R   0.114685 0.908759 0.734074 -0.142290
C32   C     C_R   0.115317 0.088901 0.737241 -0.154567
C33   C     C_R   0.887499 0.903781 0.269548 -0.146777
C34   C     C_R   0.597178 0.596449 0.792539 0.071491
C35   C     C_R   0.860269 0.211609 0.576331 -0.195920
C36   C     C_R   0.404608 0.399425 0.211345 0.066755
C37   C     C_R   0.405255 0.599593 0.211825 0.067328
C38   C     C_R   0.594055 0.396738 0.784917 0.070526
C39   C     C_R   0.091484 0.109706 0.780222 0.067042
C40   C     C_R   0.914409 0.877253 0.234897 0.064306
C41   C     C_R   0.907654 0.105456 0.216886 0.068782
C42   C     C_R   0.090890 0.888826 0.777563 0.066428
C43   C     C_R   0.643991 0.598991 0.499938 0.082068
C44   C     C_R   0.356687 0.401889 0.503611 0.076256
C45   C     C_R   0.387814 0.642064 0.499111 0.079188
C46   C     C_R   0.202662 0.900373 0.445522 -0.176075
C47   C     C_R   0.643378 0.402762 0.495855 0.078199
C48   C     C_R   0.114820 0.139487 0.498011 0.077245
C49   C     C_R   0.882755 0.861365 0.498105 0.076969
C50   C     C_R   0.885095 0.139295 0.502285 0.076026
C51   C     C_R   0.142390 0.897306 0.499815 0.082685
C52   C     C_R   0.293682 0.769458 0.419798 0.537984
C53   C     C_R   0.784010 0.380672 0.560687 0.512695
C54   C     C_R   0.773740 0.671110 0.577109 0.536816
C55   C     C_R   0.215894 0.380047 0.438477 0.513795
C56   C     C_R   0.825242 0.291065 0.436502 0.512966
C57   C     C_R   0.139944 0.210989 0.424113 -0.197226
C58   C     C_R   0.267847 0.817181 0.573608 0.536733
C59   C     C_R   0.173940 0.292212 0.562565 0.510251
C60   C     C_R   0.785404 0.736540 0.418804 0.530963
C61   C     C_R   0.319866 0.718836 0.419474 -0.345117
C62   C     C_R   0.740244 0.402353 0.560180 -0.365273
C63   C     C_R   0.729577 0.649694 0.574779 -0.356385
C64   C     C_R   0.259794 0.401149 0.438825 -0.362369
C65   C     C_R   0.849263 0.237838 0.437103 -0.358772
C66   C     C_R   0.223029 0.838370 0.569254 -0.356642
C67   C     C_R   0.150149 0.238826 0.562514 -0.361978
C68   C     C_R   0.888296 0.761641 0.559863 -0.161861
C69   C     C_R   0.810089 0.789227 0.421058 -0.360117
C70   C     C_R   0.366729 0.700940 0.495988 0.113423
C71   C     C_R   0.689034 0.387396 0.491307 0.119323
C72   C     C_R   0.691803 0.615793 0.503428 0.107684
C73   C     C_R   0.310906 0.386581 0.507893 0.122143
C74   C     C_R   0.864791 0.197166 0.505235 0.122135
C75   C     C_R   0.189505 0.877923 0.503448 0.111668
C76   C     C_R   0.135134 0.197340 0.495034 0.123445
C77   C     C_R   0.860250 0.803287 0.493491 0.114259
C78   C     C_R   0.365737 0.789307 0.570266 -0.157007
C79   C     C_R   0.724460 0.334531 0.418349 -0.210475
C80   C     C_R   0.745032 0.618140 0.440482 -0.138296
C81   C     C_R   0.457322 0.416087 0.260074 -0.131864
C82   C     C_R   0.275110 0.335219 0.581248 -0.210173
C83   C     C_R   0.835993 0.263571 0.575578 -0.198846
C84   C     C_R   0.247935 0.880767 0.450580 -0.154448
C85   C     C_R   0.164037 0.263026 0.424434 -0.200499
C86   C     C_R   0.864383 0.708561 0.557693 -0.143876
C87   C     C_R   0.315287 0.802482 0.498065 0.035838
C88   C     C_R   0.775606 0.343852 0.491326 0.097730
C89   C     C_R   0.779887 0.657554 0.506802 0.039102
C90   C     C_R   0.224052 0.344162 0.508151 0.099911
C91   C     C_R   0.816228 0.302152 0.504078 0.096303
C92   C     C_R   0.457713 0.583455 0.260282 -0.126136
C93   C     C_R   0.279384 0.837360 0.511833 0.040558
C94   C     C_R   0.183331 0.302468 0.495328 0.098355
C95   C     C_R   0.811856 0.697584 0.490394 0.039093
C96   C     C_R   0.373589 0.623370 0.122809 0.099583
C97   C     C_R   0.625210 0.371285 0.872698 0.109322
C98   C     C_R   0.630236 0.615283 0.886231 0.112920
C99   C     C_R   0.372383 0.376784 0.120417 0.111221
C100  C     C_R   0.884100 0.144960 0.141637 0.096675
C101  C     C_R   0.113961 0.848285 0.851745 0.095655
C102  C     C_R   0.112829 0.154930 0.849096 0.097013
C103  C     C_R   0.542049 0.414872 0.738426 -0.123643
C104  C     C_R   0.895585 0.827561 0.172445 0.097490
C105  C     C_R   0.339708 0.625901 0.966674 -0.245599
C106  C     C_R   0.658845 0.366931 0.028530 -0.262447
C107  C     C_R   0.649358 0.634672 0.033838 -0.263350
C108  C     C_R   0.349213 0.359668 0.970379 -0.258657
C109  C     C_R   0.869516 0.181624 0.004467 -0.250811
C110  C     C_R   0.128812 0.811697 0.989184 -0.249519
C111  C     C_R   0.117985 0.207236 0.970772 -0.248524
C112  C     C_R   0.894913 0.768436 0.059577 -0.247772
C113  C     C_R   0.378214 0.606605 0.051933 0.046992
C114  C     C_R   0.040823 0.087909 0.735606 -0.127687
C115  C     C_R   0.620721 0.387033 0.943939 0.041261
C116  C     C_R   0.614367 0.614444 0.947226 0.037082
C117  C     C_R   0.385253 0.380865 0.055933 0.035745
C118  C     C_R   0.894000 0.141254 0.073784 0.041749
C119  C     C_R   0.104582 0.852279 0.920241 0.040568
C120  C     C_R   0.098470 0.159756 0.911525 0.041435
C121  C     C_R   0.913241 0.817865 0.114986 0.043499
C122  C     C_R   0.331892 0.658336 0.108026 -0.294542
C123  C     C_R   0.666476 0.335967 0.886447 -0.304853
C124  C     C_R   0.680967 0.635034 0.914813 -0.297595
C125  C     C_R   0.963869 0.902787 0.276398 -0.125985
C126  C     C_R   0.324454 0.351791 0.097752 -0.299107
C127  C     C_R   0.851722 0.188869 0.140977 -0.278319
C128  C     C_R   0.145968 0.804002 0.851876 -0.283761
C129  C     C_R   0.146135 0.196694 0.847034 -0.276153
C130  C     C_R   0.859897 0.788211 0.172899 -0.277616
C131  C     C_R   0.290245 0.670626 0.023572 0.086081
C132  C     C_R   0.707963 0.322681 0.970609 0.090069
C133  C     C_R   0.717124 0.651174 0.001800 0.090338
C134  C     C_R   0.286600 0.336100 0.011923 0.089059
C135  C     C_R   0.825933 0.228214 0.071385 0.083967
C136  C     C_R   0.958708 0.085620 0.262744 -0.129033
C137  C     C_R   0.171907 0.764677 0.921715 0.082783
C138  C     C_R   0.167930 0.242468 0.908310 0.083513
C139  C     C_R   0.838925 0.740609 0.114040 0.082154
C140  C     C_R   0.295702 0.657731 0.952286 0.169972
C141  C     C_R   0.702566 0.334985 0.042174 0.176449
C142  C     C_R   0.700023 0.654552 0.060579 0.174418
C143  C     C_R   0.300335 0.336462 0.948569 0.171942
C144  C     C_R   0.834414 0.223478 0.001466 0.173968
C145  C     C_R   0.163586 0.769616 0.991834 0.174875
C146  C     C_R   0.153426 0.247398 0.971029 0.173314
C147  C     C_R   0.040579 0.911383 0.734587 -0.142297
C148  C     C_R   0.856966 0.731220 0.056695 0.173191
C149  C     C_R   0.244476 0.698062 0.009714 0.080601
C150  C     C_R   0.753550 0.295053 0.983980 0.074883
C151  C     C_R   0.768108 0.670473 0.027940 0.078339
C152  C     C_R   0.237440 0.314049 0.991105 0.076160
C153  C     C_R   0.788212 0.268254 0.065727 0.078642
C154  C     C_R   0.209721 0.724554 0.927683 0.074031
C155  C     C_R   0.207637 0.279697 0.914367 0.079497
C156  C     C_R   0.796676 0.705968 0.104115 0.075685
C157  C     C_R   0.643415 0.583659 0.573176 -0.134624
C158  C     C_R   0.391138 0.738280 0.569657 -0.159305
C159  C     C_R   0.356180 0.417259 0.428763 -0.128026
C160  C     C_R   0.374369 0.607915 0.426181 -0.123379
C161  C     C_R   0.643909 0.417937 0.570897 -0.130493
C162  C     C_R   0.127199 0.107709 0.572449 -0.131065
C163  C     C_R   0.870637 0.894758 0.425891 -0.124527
C164  C     C_R   0.872940 0.107486 0.427703 -0.130431
C165  C     C_R   0.142447 0.914136 0.573173 -0.140808
C166  C     C_R   0.765451 0.293547 0.918027 -0.213802
C167  C     C_R   0.232563 0.699707 0.075617 -0.217601
C168  C     C_R   0.218439 0.323332 0.046801 -0.214730
H1    H     H_    0.517095 0.578545 0.764431 0.110336
H2    H     H_    0.332140 0.675042 0.164490 0.135204
H3    H     H_    0.907058 0.055299 0.063833 0.101859
H4    H     H_    0.958505 0.844210 0.067138 0.105096
H5    H     H_    0.926062 0.898138 0.082290 0.099523
H6    H     H_    0.057809 0.127068 0.964438 0.101281
H7    H     H_    0.087511 0.076544 0.937583 0.098356
H8    H     H_    0.235235 0.755936 0.298903 0.308326
H9    H     H_    0.833706 0.417650 0.673331 0.314562
H10   H     H_    0.798066 0.714656 0.686058 0.311922
H11   H     H_    0.166440 0.415804 0.325311 0.314919
H12   H     H_    0.819976 0.318278 0.330171 0.310580
H13   H     H_    0.317759 0.341612 0.149380 0.132408
H14   H     H_    0.284534 0.764429 0.670511 0.312184
H15   H     H_    0.177591 0.321516 0.666889 0.316237
H16   H     H_    0.721214 0.757007 0.307684 0.308973
H17   H     H_    0.691187 0.642357 0.866835 0.128883
H18   H     H_    0.152219 0.803004 0.798392 0.129955
H19   H     H_    0.845264 0.189721 0.194205 0.126764
H20   H     H_    0.847047 0.797125 0.217187 0.126837
H21   H     H_    0.156028 0.191420 0.798296 0.124733
H22   H     H_    0.343251 0.614785 0.911584 0.128591
H23   H     H_    0.655116 0.377805 0.083514 0.130994
H24   H     H_    0.636367 0.636120 0.079397 0.132354
H25   H     H_    0.484842 0.416088 0.239235 0.104855
H26   H     H_    0.359699 0.360812 0.921559 0.127739
H27   H     H_    0.875860 0.178592 0.950832 0.123481
H28   H     H_    0.122763 0.814955 0.043134 0.130166
H29   H     H_    0.107543 0.211242 0.019474 0.124574
H30   H     H_    0.907939 0.760974 0.014782 0.127124
H31   H     H_    0.744135 0.319482 0.858745 0.129834
H32   H     H_    0.253964 0.673955 0.135094 0.126061
H33   H     H_    0.236168 0.355296 0.099841 0.130767
H34   H     H_    0.773327 0.624379 0.926226 0.131596
H35   H     H_    0.187467 0.725848 0.790083 0.134780
H36   H     H_    0.485077 0.583703 0.238982 0.103957
H37   H     H_    0.810476 0.266284 0.203309 0.121869
H38   H     H_    0.802508 0.729321 0.227158 0.136888
H39   H     H_    0.197452 0.260192 0.786801 0.119180
H40   H     H_    0.677059 0.581000 0.640043 0.092450
H41   H     H_    0.322279 0.419114 0.362124 0.090243
H42   H     H_    0.347767 0.619000 0.358019 0.093035
H43   H     H_    0.677870 0.420133 0.637493 0.089459
H44   H     H_    0.155553 0.119945 0.639778 0.095021
H45   H     H_    0.841360 0.885063 0.358267 0.090450
H46   H     H_    0.844937 0.119523 0.360300 0.096569
H47   H     H_    0.514916 0.414298 0.760190 0.101612
H48   H     H_    0.176117 0.915572 0.640159 0.097674
H49   H     H_    0.585058 0.581843 0.359011 0.092350
H50   H     H_    0.417135 0.418729 0.643216 0.093081
H51   H     H_    0.443148 0.623635 0.641176 0.099557
H52   H     H_    0.582870 0.419135 0.356506 0.090434
H53   H     H_    0.060255 0.119357 0.357539 0.098368
H54   H     H_    0.938268 0.878356 0.639773 0.100750
H55   H     H_    0.938873 0.119290 0.642533 0.096760
H56   H     H_    0.085262 0.916403 0.359473 0.093317
H57   H     H_    0.341751 0.579861 0.234519 0.097025
H58   H     H_    0.013009 0.090464 0.755599 0.103500
H59   H     H_    0.657495 0.414331 0.760343 0.097440
H60   H     H_    0.658461 0.577442 0.763052 0.087203
H61   H     H_    0.341979 0.419188 0.237509 0.091702
H62   H     H_    0.842887 0.088777 0.238005 0.097687
H63   H     H_    0.155469 0.903961 0.754643 0.097159
H64   H     H_    0.156606 0.091881 0.760258 0.094995
H65   H     H_    0.846098 0.899088 0.244586 0.092836
H66   H     H_    0.300892 0.691313 0.361287 0.116006
H67   H     H_    0.746323 0.429068 0.614758 0.124953
H68   H     H_    0.723062 0.662687 0.626044 0.125576
H69   H     H_    0.995014 0.894284 0.265212 0.112771
H70   H     H_    0.253853 0.427163 0.384016 0.125090
H71   H     H_    0.854627 0.227617 0.383698 0.125450
H72   H     H_    0.212911 0.821889 0.614710 0.126678
H73   H     H_    0.144530 0.229133 0.615715 0.125631
H74   H     H_    0.788333 0.820822 0.368897 0.121310
H75   H     H_    0.428296 0.726601 0.628343 0.120183
H76   H     H_    0.642305 0.344700 0.364026 0.127034
H77   H     H_    0.672718 0.569859 0.384212 0.119087
H78   H     H_    0.357329 0.345079 0.635538 0.125485
H79   H     H_    0.872255 0.181035 0.629835 0.124869
H80   H     H_    0.986222 0.087116 0.241928 0.102051
H81   H     H_    0.177786 0.932466 0.396086 0.119797
H82   H     H_    0.128329 0.179753 0.371122 0.124211
H83   H     H_    0.927841 0.770919 0.614772 0.125217
H84   H     H_    0.828590 0.271080 0.627360 0.154028
H85   H     H_    0.256561 0.896358 0.402911 0.155323
H86   H     H_    0.171732 0.269942 0.372916 0.153549
H87   H     H_    0.884944 0.678604 0.612721 0.156508
H88   H     H_    0.382808 0.815073 0.630308 0.151566
H89   H     H_    0.717416 0.305625 0.365057 0.153661
H90   H     H_    0.749665 0.607504 0.386402 0.153337
H91   H     H_    0.013099 0.909130 0.755408 0.107628
H92   H     H_    0.281925 0.306968 0.634748 0.150696
H93   H     H_    0.813257 0.257422 0.874849 0.132726
H94   H     H_    0.184816 0.736015 0.118679 0.132519
H95   H     H_    0.164245 0.296849 0.082204 0.134071
H96   H     H_    0.849612 0.677354 0.951579 0.134447
H97   H     H_    0.260278 0.667359 0.812355 0.137903
H98   H     H_    0.737594 0.324291 0.181598 0.160281
H99   H     H_    0.720858 0.682750 0.190046 0.160819
H100  H     H_    0.275496 0.311151 0.816129 0.153119
H101  H     H_    0.558051 0.402056 0.953489 0.095505
H102  H     H_    0.666084 0.319976 0.829550 0.135903
H103  H     H_    0.596379 0.461668 0.971834 0.110168
H104  H     H_    0.418359 0.561946 0.006974 0.098866
H105  H     H_    0.415333 0.528549 0.086912 0.108537
H106  H     H_    0.455019 0.371865 0.066838 0.102158
H107  H     H_    0.426797 0.438462 0.031246 0.096032
H108  H     H_    0.543805 0.630110 0.930894 0.107729
H109  H     H_    0.567032 0.561316 0.964870 0.097679
H110  H     H_    0.068391 0.893936 0.975141 0.101820
H111  H     H_    0.093306 0.938510 0.932178 0.102159
H112  H     H_    0.931331 0.100377 0.020362 0.100017
N1    N     N_R   0.532910 0.558440 0.665240 -0.041227
N2    N     N_R   0.402970 0.441090 0.454460 -0.040131
N3    N     N_R   0.402970 0.558910 0.454460 -0.041439
N4    N     N_R   0.597030 0.441090 0.545540 -0.039106
N5    N     N_R   0.097030 0.058910 0.545540 -0.039568
N6    N     N_R   0.902970 0.941090 0.454460 -0.040803
N7    N     N_R   0.902970 0.058910 0.454460 -0.040443
N8    N     N_R   0.097030 0.941090 0.545540 -0.038638
N9    N     N_R   0.566200 0.559270 0.454460 -0.041170
N10   N     N_R   0.433800 0.440730 0.545540 -0.040801
N11   N     N_R   0.433800 0.559270 0.545540 -0.042155
N12   N     N_R   0.467090 0.441560 0.334760 -0.041006
N13   N     N_R   0.566200 0.440730 0.454460 -0.039595
N14   N     N_R   0.066200 0.059270 0.454460 -0.042452
N15   N     N_R   0.933800 0.940730 0.545540 -0.042969
N16   N     N_R   0.933800 0.059270 0.545540 -0.042582
N17   N     N_R   0.066200 0.940730 0.454460 -0.041707
N18   N     N_R   0.421050 0.559750 0.334770 -0.037175
N19   N     N_R   0.578950 0.440250 0.665230 -0.038622
N20   N     N_R   0.578950 0.559750 0.665230 -0.037762
N21   N     N_R   0.421050 0.440250 0.334770 -0.038192
N22   N     N_R   0.921050 0.059750 0.334770 -0.035215
N23   N     N_R   0.467090 0.558440 0.334760 -0.039323
N24   N     N_R   0.078950 0.940250 0.665230 -0.036323
N25   N     N_R   0.078950 0.059750 0.665230 -0.035081
N26   N     N_R   0.921050 0.940250 0.334770 -0.036271
N27   N     N_3   0.579183 0.424587 0.931603 -0.225788
N28   N     N_3   0.420610 0.569456 0.066142 -0.224491
N29   N     N_3   0.434502 0.405042 0.076402 -0.232862
N30   N     N_3   0.562929 0.594907 0.922096 -0.229626
N31   N     N_3   0.072874 0.898918 0.921898 -0.224076
N32   N     N_3   0.926744 0.095363 0.073492 -0.225104
N33   N     N_3   0.947517 0.859435 0.109796 -0.224677
N34   N     N_R   0.532910 0.441560 0.665240 -0.040757
N35   N     N_3   0.065913 0.115692 0.916677 -0.225515
N36   N     N_R   0.032910 0.058440 0.665240 -0.039331
N37   N     N_R   0.967090 0.941560 0.334760 -0.041736
N38   N     N_R   0.967090 0.058440 0.334760 -0.039442
N39   N     N_R   0.032910 0.941560 0.665240 -0.039869
N40   N     N_R   0.597030 0.558910 0.545540 -0.039155
Ni1   Ni    Ni4+2 0.483090 0.500000 0.604440 0.212513
Ni2   Ni    Ni4+2 0.516910 0.500000 0.395560 0.206712
Ni3   Ni    Ni4+2 0.983090 0.000000 0.604440 0.214349
Ni4   Ni    Ni4+2 0.016910 0.000000 0.395560 0.209225
Ni5   Ni    Ni4+2 0.586780 0.500000 0.604440 0.208882
Ni6   Ni    Ni4+2 0.413220 0.500000 0.395560 0.210834
Ni7   Ni    Ni4+2 0.086780 0.000000 0.604440 0.215577
Ni8   Ni    Ni4+2 0.913220 0.000000 0.395560 0.217796
O1    O     O_3   0.244544 0.783602 0.347955 -0.773665
O2    O     O_3   0.834856 0.391696 0.630034 -0.758703
O3    O     O_3   0.808362 0.709671 0.642629 -0.771811
O4    O     O_3   0.165121 0.390600 0.368931 -0.757020
O5    O     O_3   0.808221 0.331378 0.369356 -0.770155
O6    O     O_3   0.298410 0.773734 0.632949 -0.769947
O7    O     O_3   0.190408 0.333523 0.628832 -0.764843
O8    O     O_3   0.733815 0.725218 0.352150 -0.782200

loop_
_geom_bond_atom_site_label_1
_geom_bond_atom_site_label_2
_ccdc_geom_bond_type
C61   C70   A    
C31   C42   A    
C100  C127  A    
C132  C150  A    
C13   H77   S    
C133  C151  A    
C28   H60   S    
C102  C120  A    
C103  N34   A    
C21   H53   S    
C124  C133  A    
C165  N8    A    
C52   C61   A    
C69   H74   S    
C48   C162  A    
C54   C63   A    
N11   Ni1   S    
H3    N32   S    
C101  C128  A    
N10   Ni1   S    
C131  C140  A    
H106  N29   S    
C134  C143  A    
C30   N22   A    
C122  H2    S    
H16   O8    S    
C107  H24   S    
C127  H19   S    
C167  H32   S    
C4    C12   A    
C110  C145  A    
C64   H70   S    
C21   C48   A    
C20   N13   A    
C45   C160  A    
C22   N15   A    
C112  H30   S    
C109  C118  A    
N39   Ni3   S    
C32   N25   A    
C58   O6    S    
C50   C164  A    
C54   O3    S    
C27   N19   A    
C37   C96   S    
C17   C43   A    
C18   C44   A    
C15   C142  A    
C165  H48   S    
N13   Ni2   S    
C41   C100  S    
N1    Ni1   S    
N20   Ni5   S    
C47   C71   S    
C2    C71   A    
C22   C49   A    
C46   C84   A    
C68   H83   S    
C7    H39   S    
N7    Ni8   S    
N2    Ni6   S    
C131  C149  A    
N24   Ni7   S    
C23   N16   A    
C57   C76   A    
C68   C77   A    
C164  N7    A    
C66   H72   S    
N21   Ni6   S    
N15   Ni3   S    
H104  N28   S    
C4    H35   S    
C13   C72   A    
C83   C91   A    
C159  H41   S    
C106  C115  A    
C105  C140  A    
C1    N1    A    
C27   H59   S    
C57   C85   A    
C36   C99   S    
C84   C93   A    
C81   N12   A    
C20   C47   A    
C3    C11   A    
C86   C95   A    
C81   H25   S    
C60   C95   A    
C126  C134  A    
C10   C168  A    
C52   O1    S    
C44   C159  A    
C2    H76   S    
C78   C87   A    
C32   H64   S    
C123  C132  A    
C48   C76   S    
C69   C77   A    
C161  N4    A    
C98   C124  A    
C18   N10   A    
C133  C142  A    
N25   N36   A    
N22   N38   A    
C105  C113  A    
C55   C90   A    
C50   C74   S    
C11   C148  A    
C26   H57   S    
H7    N35   S    
C150  C166  A    
C159  N2    A    
C85   C94   A    
C59   C67   A    
C63   H68   S    
H101  N27   S    
N2    N10   A    
C136  N38   A    
C129  H21   S    
C137  C154  A    
C64   C73   A    
C30   C41   A    
H103  N27   S    
C109  C144  A    
N22   Ni8   S    
H107  N29   S    
C163  N6    A    
N1    N20   A    
C46   C75   A    
C1    C34   A    
N8    Ni7   S    
C117  N29   S    
C139  C148  A    
C33   C40   A    
C79   H89   S    
C99   C126  A    
C114  N36   A    
H108  N30   S    
C111  C146  A    
N24   N39   A    
C164  H46   S    
C150  C153  A    
C65   C74   A    
C31   H63   S    
C38   C103  A    
C99   C117  A    
C88   C91   S    
C36   C81   A    
C9    H94   S    
N12   N21   A    
C11   H96   S    
N3    Ni6   S    
C10   C146  A    
C23   H55   S    
C51   C165  A    
C97   C115  A    
C108  H26   S    
C18   H50   S    
C42   C101  S    
C122  C131  A    
C33   H65   S    
H11   O4    S    
C39   C102  S    
C132  C141  A    
C3    H34   S    
C62   H67   S    
C37   C92   A    
C108  C117  A    
C115  N27   S    
C43   C157  A    
C110  C119  A    
C19   C45   A    
H111  N31   S    
H15   O7    S    
N38   Ni4   S    
C29   H61   S    
C112  C121  A    
C97   C123  A    
N37   Ni4   S    
C60   C69   A    
C138  C146  A    
N9    N40   A    
C40   C125  A    
C87   C93   S    
C49   C77   S    
C62   C71   A    
C109  H27   S    
N18   N23   A    
C147  H91   S    
C107  C116  A    
C49   C163  A    
N25   Ni7   S    
C25   N17   A    
C84   H85   S    
C126  H13   S    
C104  C130  A    
C8    H93   S    
C28   N20   A    
C6    C156  A    
C56   O5    S    
N5    Ni7   S    
C138  C155  A    
C4    C154  A    
C35   C74   A    
C118  N32   S    
C83   H84   S    
N4    Ni5   S    
C149  C167  A    
C22   H54   S    
C85   H86   S    
C128  H18   S    
C55   O4    S    
C137  C145  A    
C58   C93   A    
C127  C135  A    
C15   H99   S    
N12   Ni2   S    
C24   C73   A    
C42   C147  A    
C27   C38   A    
C113  N28   S    
C10   H95   S    
C136  H80   S    
C25   H56   S    
C32   C39   A    
C80   C89   A    
N26   Ni8   S    
C166  H31   S    
C125  N37   A    
C2    C79   A    
N19   N34   A    
C56   C91   A    
H14   O6    S    
N16   Ni3   S    
N5    N14   A    
N8    N17   A    
C12   C140  A    
C59   C94   A    
H6    N35   S    
C92   H36   S    
C13   C80   A    
C28   C34   A    
C119  N31   S    
C130  C139  A    
H105  N28   S    
C79   C88   A    
C152  C168  A    
C90   C94   S    
C16   C143  A    
C35   C83   A    
C23   C50   A    
N3    N11   A    
C82   H92   S    
C70   C158  A    
C89   C95   S    
C149  C154  A    
C46   H81   S    
C114  H58   S    
C152  C155  A    
C134  C152  A    
C151  C156  A    
C5    C14   A    
C7    C16   A    
C92   N23   A    
C110  H28   S    
C96   C113  A    
C80   H90   S    
C103  H47   S    
C125  H69   S    
C106  C141  A    
C45   C70   S    
C3    C151  A    
C105  H22   S    
N6    Ni8   S    
C26   C37   A    
H112  N32   S    
C160  H42   S    
C82   C90   A    
C96   C122  A    
C78   H88   S    
C163  H45   S    
C124  H17   S    
C66   C75   A    
C9    C145  A    
C34   C98   S    
N6    N15   A    
C158  H75   S    
C44   C73   S    
C47   C161  A    
C162  N5    A    
C7    C155  A    
C63   C72   A    
C57   H82   S    
H8    O1    S    
C108  C143  A    
C29   N21   A    
C116  N30   S    
C43   C72   S    
C160  N3    A    
C68   C86   A    
C24   H78   S    
C102  C129  A    
C67   H73   S    
H10   O3    S    
N7    N16   A    
C161  H43   S    
C29   C36   A    
C17   N9    A    
C139  C156  A    
C51   C75   S    
C31   N24   A    
H109  N30   S    
C130  H20   S    
C121  N33   S    
C56   C65   A    
N18   Ni6   S    
C168  H33   S    
C26   N18   A    
C24   C82   A    
C12   H97   S    
C60   O8    S    
C6    C15   A    
H9    O2    S    
C58   C66   A    
C129  C138  A    
N36   Ni3   S    
N23   Ni2   S    
C14   C141  A    
N19   Ni5   S    
C61   H66   S    
C20   H52   S    
H5    N33   S    
C157  H40   S    
C106  H23   S    
C38   C97   S    
C78   C158  A    
N9    Ni2   S    
N17   Ni4   S    
C6    H38   S    
C101  C119  A    
C120  N35   S    
C9    C167  A    
C54   C89   A    
C104  C121  A    
C86   H87   S    
N40   Ni5   S    
C112  C148  A    
C147  N39   A    
C111  C120  A    
C128  C137  A    
C25   C51   A    
C40   C104  S    
C53   C62   A    
N34   Ni1   S    
C98   C116  A    
C53   O2    S    
C39   C114  A    
C55   C64   A    
C157  N40   A    
C8    C144  A    
C107  C142  A    
C16   H100  S    
C8    C166  A    
C135  C144  A    
N14   Ni4   S    
C19   H51   S    
C17   H49   S    
C123  H102  S    
C52   C87   A    
C21   N14   A    
C19   N11   A    
H110  N31   S    
C35   H79   S    
C135  C153  A    
H4    N33   S    
C30   H62   S    
C33   N26   A    
C111  H29   S    
C162  H44   S    
N4    N13   A    
C5    C153  A    
C1    H1    S    
C53   C88   A    
C5    H37   S    
H12   O5    S    
C100  C118  A    
C59   O7    S    
N26   N37   A    
C65   H71   S    
C67   C76   A    
C41   C136  A    
C14   H98   S    
