data_mof_unit_34428.cif
_audit_creation_date              2012-12-10T18:23:57-0500
_audit_creation_method            fapswitch 2.2
_symmetry_space_group_name_H-M    P1
_symmetry_Int_Tables_number       1
_space_group_crystal_system       triclinic
_cell_length_a                    15.720598
_cell_length_b                    14.92677
_cell_length_c                    14.020988
_cell_angle_alpha                 90.011583
_cell_angle_beta                  90.110776
_cell_angle_gamma                 89.833444
_cell_volume                      3290.11339111

loop_
_atom_site_label
_atom_site_type_symbol
_atom_type_description
_atom_site_fract_x
_atom_site_fract_y
_atom_site_fract_z
_atom_type_partial_charge
C1    C     C_R   0.499306 0.327167 0.500061 1.033986
C2    C     C_R   0.500555 0.672839 0.500049 1.034667
C3    C     C_R   0.500852 0.767978 0.500367 -0.313573
C4    C     C_R   0.499049 0.232035 0.500419 -0.313108
C5    C     C_R   0.578823 0.812593 0.500574 0.418419
C6    C     C_R   0.421211 0.187411 0.505097 0.413598
C7    C     C_R   0.579563 0.906393 0.493394 -0.087993
C8    C     C_R   0.420148 0.093614 0.497827 -0.086843
C9    C     C_R   0.500513 0.953118 0.494659 -0.092520
C10   C     C_R   0.499165 0.046891 0.494733 -0.092494
C11   C     C_R   0.422604 0.906035 0.495098 -0.021739
C12   C     C_R   0.577004 0.093973 0.490963 -0.023122
C13   C     C_R   0.656730 0.954220 0.484783 0.555018
C14   C     C_R   0.342687 0.045763 0.493282 0.555410
C15   C     C_R   0.653899 0.047689 0.481230 -0.298820
C16   C     C_R   0.345383 0.952316 0.489366 -0.300099
C17   C     C_R   0.445428 0.555238 0.798082 -0.059304
C18   C     C_R   0.554471 0.444630 0.201920 -0.036500
C19   C     C_R   0.554607 0.444825 0.798270 -0.069155
C20   C     C_R   0.445454 0.555238 0.201712 -0.046954
C21   C     C_R   0.555896 0.443445 0.898912 0.018265
C22   C     C_R   0.444120 0.556555 0.101063 0.014059
C23   C     C_R   0.337798 0.499996 0.499914 0.947145
C24   C     C_R   0.662197 0.500012 0.500137 0.947349
C25   C     C_R   0.500005 0.499998 0.949389 0.086024
C26   C     C_R   0.499984 0.499967 0.050591 0.083878
C27   C     C_R   0.444120 0.556568 0.898711 0.016907
C28   C     C_R   0.555828 0.443350 0.101273 0.011913
C29   C     C_R   0.611454 0.387153 0.950056 -0.212329
C30   C     C_R   0.388543 0.612823 0.049905 -0.198298
C31   C     C_R   0.611414 0.387099 0.050322 -0.189729
C32   C     C_R   0.388530 0.612816 0.949643 -0.204410
C33   C     C_3   0.972332 0.428499 0.551731 -0.328226
C34   C     C_3   0.027618 0.571494 0.449635 -0.315397
C35   C     C_3   0.027923 0.422568 0.460472 -0.313610
C36   C     C_3   0.972031 0.577431 0.540894 -0.317995
C37   C     C_1   0.248933 0.499897 0.499765 -0.154471
C38   C     C_1   0.751051 0.500118 0.500582 -0.154272
C39   C     C_3   0.028150 0.505661 0.588975 0.642838
C40   C     C_3   0.971830 0.494336 0.412394 0.648924
C41   C     C_3   0.082827 0.499839 0.499432 0.046068
C42   C     C_3   0.917139 0.500159 0.501919 0.055203
C43   C     C_1   0.173662 0.499837 0.499637 0.010159
C44   C     C_1   0.826315 0.500172 0.501251 0.009948
C45   C     C_R   0.423041 0.812821 0.499491 0.425744
C46   C     C_R   0.576730 0.187200 0.495182 0.429118
H1    H     H_    0.654924 0.343166 0.912531 0.137363
H2    H     H_    0.345080 0.656827 0.087416 0.146155
H3    H     H_    0.654862 0.343071 0.087994 0.151015
H4    H     H_    0.345060 0.656813 0.911954 0.141066
H5    H     H_    0.712332 0.084302 0.470237 0.199715
H6    H     H_    0.286520 0.915731 0.481337 0.198308
H7    H     H_    0.402878 0.598103 0.757852 0.127228
H8    H     H_    0.596871 0.401575 0.242192 0.149750
N1    N     N_R   0.500040 0.500070 0.750030 -0.106486
N2    N     N_R   0.499960 0.499930 0.249970 -0.110921
O1    O     O_R   0.500020 0.367860 0.580280 -0.657508
O2    O     O_R   0.499980 0.632140 0.419720 -0.601983
O3    O     O_R   0.500020 0.367840 0.419730 -0.603406
O4    O     O_R   0.499980 0.632160 0.580270 -0.657769
O5    O     O_R   0.376770 0.500000 0.580260 -0.626323
O6    O     O_R   0.623230 0.500000 0.419740 -0.598196
O7    O     O_R   0.376780 0.499980 0.419710 -0.616309
O8    O     O_R   0.623220 0.500020 0.580290 -0.642471
Zn1   Zn    Zn3+2 0.499990 0.500020 0.607200 0.929984
Zn2   Zn    Zn3+2 0.500010 0.499980 0.392800 1.001731
H9    H     H_    0.052826 0.360435 0.426983 0.170937
H10   H     H_    0.947084 0.639546 0.574391 0.155460
H11   H     H_    0.947599 0.371316 0.593900 0.153144
H12   H     H_    0.052302 0.628685 0.407448 0.165745
O9    O     O_3   0.934721 0.488481 0.320939 -0.592162
C47   C     C_3   0.999513 0.484040 0.251879 -0.301717
H13   H     H_    0.039754 0.423310 0.261572 0.160717
H14   H     H_    0.039382 0.545460 0.252673 0.157951
H15   H     H_    0.969517 0.479429 0.180381 0.195423
O10   O     O_3   0.065274 0.511548 0.680416 -0.604291
C48   C     C_3   0.000487 0.515787 0.749497 -0.332210
H16   H     H_    0.960889 0.454171 0.748809 0.157499
H17   H     H_    0.959974 0.576310 0.739735 0.156449
H18   H     H_    0.030488 0.520636 0.820973 0.196764
O11   O     O_3   0.347806 0.764498 0.496908 -0.610162
C49   C     C_3   0.317803 0.753755 0.591042 -0.349318
H19   H     H_    0.365333 0.719564 0.637293 0.170470
H20   H     H_    0.260107 0.711169 0.589114 0.203281
H21   H     H_    0.299603 0.819143 0.623199 0.156212
O12   O     O_3   0.651749 0.235492 0.488371 -0.601433
C50   C     C_3   0.685587 0.247341 0.580836 -0.361897
H22   H     H_    0.640534 0.283546 0.628286 0.169705
H23   H     H_    0.743982 0.288568 0.575413 0.194013
H24   H     H_    0.703779 0.182188 0.613630 0.156375
O13   O     O_3   0.653627 0.763197 0.502384 -0.548478
C51   C     C_3   0.679385 0.751909 0.598205 -0.264107
H25   H     H_    0.683367 0.816818 0.637043 0.143272
H26   H     H_    0.743774 0.721290 0.598934 0.183301
H27   H     H_    0.636164 0.705893 0.636837 0.164166
O14   O     O_3   0.346582 0.236818 0.510853 -0.557339
C52   C     C_3   0.324559 0.247193 0.607861 -0.247591
H28   H     H_    0.323512 0.182157 0.646696 0.140682
H29   H     H_    0.259650 0.276304 0.611750 0.193119
H30   H     H_    0.368319 0.294145 0.644552 0.167935
O15   O     O_3   0.732809 0.908649 0.469554 -0.538619
C53   C     C_3   0.797387 0.939455 0.531594 -0.317460
H31   H     H_    0.829824 0.998679 0.500710 0.164745
H32   H     H_    0.773242 0.954917 0.604484 0.125522
H33   H     H_    0.845843 0.885733 0.539152 0.196951
O16   O     O_3   0.265946 0.091297 0.482434 -0.542708
C54   C     C_3   0.204310 0.060064 0.547646 -0.323527
H34   H     H_    0.170202 0.001318 0.517849 0.164794
H35   H     H_    0.231828 0.043679 0.618900 0.128964
H36   H     H_    0.156519 0.113892 0.558607 0.197611
H37   H     H_    0.597085 0.401882 0.758169 0.123664
H38   H     H_    0.403058 0.598290 0.241823 0.143527

loop_
_geom_bond_atom_site_label_1
_geom_bond_atom_site_label_2
_ccdc_geom_bond_type
C50   H22   S    
O15   C53   S    
C40   O9    S    
C41   C43   S    
C36   C42   S    
C20   N2    A    
C52   H28   S    
C39   C41   S    
C4    C46   A    
C48   H16   S    
C33   C39   S    
C36   C39   S    
C29   H1    S    
C34   C40   S    
C33   C42   S    
C30   H2    S    
C19   C21   A    
C1    O3    A    
O3    Zn2   S    
C2    O4    A    
O16   C54   S    
C53   H33   S    
C49   H20   S    
N1    Zn1   S    
C20   H38   S    
O2    Zn2   S    
C24   C38   S    
C54   H34   S    
C15   H5    S    
C9    C10   A    
C17   N1    A    
C50   H24   S    
C33   H11   S    
C40   C42   S    
O7    Zn2   S    
C24   O8    A    
C24   O6    A    
C54   H35   S    
C34   C41   S    
C42   C44   S    
C31   H3    S    
C47   H15   S    
C52   H29   S    
O11   C49   S    
C48   H17   S    
O6    Zn2   S    
C17   C27   A    
C18   C28   A    
O10   C48   S    
C47   H14   S    
O13   C51   S    
C5    C7    A    
O12   C50   S    
C6    C8    A    
C25   C26   A    
C23   C37   S    
C21   C29   A    
C3    C45   A    
C51   H27   S    
C12   C46   A    
C37   C43   T    
C38   C44   T    
C1    O1    A    
C11   C16   A    
C12   C15   A    
C23   O5    A    
O14   C52   S    
C36   H10   S    
C51   H26   S    
C39   O10   S    
C53   H32   S    
C18   N2    A    
C9    C11   A    
C32   H4    S    
C5    O13   S    
C10   C12   A    
C4    C6    A    
C20   C22   A    
O4    Zn1   S    
C6    O14   S    
C13   C15   A    
C54   H36   S    
C14   C16   A    
C11   C45   A    
C13   O15   S    
C17   H7    S    
C52   H30   S    
C48   H18   S    
C19   N1    A    
C7    C9    A    
C21   C25   A    
C8    C14   A    
C22   C30   A    
C27   C32   A    
C28   C31   A    
C45   O11   S    
C16   H6    S    
O1    Zn1   S    
C47   H13   S    
C3    C5    A    
C2    O2    A    
C19   H37   S    
C25   C27   A    
C49   H21   S    
C26   C28   A    
C1    C4    S    
O8    Zn1   S    
C50   H23   S    
C2    C3    S    
O9    C47   S    
C29   C31   A    
C30   C32   A    
N2    Zn2   S    
C23   O7    A    
C51   H25   S    
C33   C35   S    
C35   C40   S    
C34   C36   S    
C53   H31   S    
C35   C41   S    
C35   H9    S    
C18   H8    S    
O5    Zn1   S    
C7    C13   A    
C8    C10   A    
C49   H19   S    
C22   C26   A    
C14   O16   S    
C34   H12   S    
C46   O12   S    
