data_mof_unit_63686.cif
_audit_creation_date              2012-12-10T16:36:48-0500
_audit_creation_method            fapswitch 2.2
_symmetry_space_group_name_H-M    P1
_symmetry_Int_Tables_number       1
_space_group_crystal_system       triclinic
_cell_length_a                    14.220069
_cell_length_b                    16.477098
_cell_length_c                    15.10774
_cell_angle_alpha                 89.674849
_cell_angle_beta                  92.074449
_cell_angle_gamma                 89.988608
_cell_volume                      3537.44900051

loop_
_atom_site_label
_atom_site_type_symbol
_atom_type_description
_atom_site_fract_x
_atom_site_fract_y
_atom_site_fract_z
_atom_type_partial_charge
C1    C     C_R   0.679354 0.844741 0.519820 0.542295
C2    C     C_R   0.971424 0.458910 0.110028 0.037548
C3    C     C_R   0.584394 0.070062 0.128998 0.237045
C4    C     C_R   0.084410 0.570049 0.128994 0.237043
C5    C     C_R   0.577876 0.086393 0.037463 0.094673
C6    C     C_R   0.077883 0.586388 0.037461 0.094673
C7    C     C_2   0.248214 0.219572 0.473647 0.110749
C8    C     C_2   0.249206 0.779729 0.472967 0.106306
C9    C     C_2   0.748219 0.719576 0.473641 0.110750
C10   C     C_2   0.749206 0.279730 0.472967 0.106298
C11   C     C_2   0.751030 0.783815 0.528819 0.138515
C12   C     C_R   0.679566 0.154874 0.520012 0.544126
C13   C     C_2   0.751375 0.215578 0.528930 0.135552
C14   C     C_2   0.251032 0.283816 0.528817 0.138516
C15   C     C_2   0.251375 0.715578 0.528931 0.135555
C16   C     C_R   0.320125 0.156184 0.480617 0.529781
C17   C     C_R   0.320320 0.843575 0.480546 0.529274
C18   C     C_R   0.820125 0.656184 0.480617 0.529779
C19   C     C_R   0.820320 0.343575 0.480546 0.529275
C20   C     C_R   0.520535 0.001304 0.260949 0.582670
C21   C     C_R   0.020536 0.501304 0.260949 0.582648
C22   C     C_R   0.478074 0.999467 0.738765 0.492528
C23   C     C_R   0.179354 0.344741 0.519820 0.542294
C24   C     C_R   0.978073 0.499467 0.738765 0.492529
C25   C     C_R   0.527769 0.008739 0.165016 0.052038
C26   C     C_R   0.027771 0.508737 0.165015 0.052020
C27   C     C_R   0.468271 0.995938 0.834197 0.019411
C28   C     C_R   0.968266 0.495938 0.834197 0.019412
C29   C     C_R   0.414802 0.921691 0.961062 -0.129393
C30   C     C_R   0.914792 0.421695 0.961062 -0.129391
C31   C     C_R   0.415495 0.933132 0.870193 -0.122706
C32   C     C_R   0.915487 0.433134 0.870192 -0.122706
C33   C     C_R   0.518915 0.048919 0.889524 -0.101500
C34   C     C_R   0.179566 0.654874 0.520012 0.544127
C35   C     C_R   0.018912 0.548919 0.889523 -0.101500
C36   C     C_3   0.728792 0.091231 0.195025 -0.088571
C37   C     C_3   0.228828 0.591170 0.194995 -0.088581
C38   C     C_R   0.521625 0.036625 0.981636 0.020987
C39   C     C_R   0.021622 0.536625 0.981635 0.020982
C40   C     C_R   0.468967 0.971922 0.017894 0.012165
C41   C     C_R   0.968960 0.471924 0.017893 0.012166
C42   C     C_R   0.471432 0.958907 0.110029 0.037537
H1    H     H_    0.373166 0.872087 0.985682 0.113105
H2    H     H_    0.846769 0.403600 0.133214 0.239794
H3    H     H_    0.770361 0.106033 0.136404 0.096008
H4    H     H_    0.731602 0.024588 0.207734 0.130449
H5    H     H_    0.763377 0.121431 0.253021 0.156800
H6    H     H_    0.270366 0.605878 0.136327 0.095976
H7    H     H_    0.231602 0.524540 0.207791 0.130526
H8    H     H_    0.263473 0.621420 0.252929 0.156757
H9    H     H_    0.698268 0.145854 0.008896 0.230249
H10   H     H_    0.607653 0.206866 0.036215 0.265761
H11   H     H_    0.198275 0.645844 0.008880 0.230255
H12   H     H_    0.873153 0.372093 0.985681 0.113103
H13   H     H_    0.107673 0.706859 0.036223 0.265759
H14   H     H_    0.704436 0.709924 0.345163 0.238401
H15   H     H_    0.638369 0.658302 0.417362 0.236467
H16   H     H_    0.708328 0.288786 0.343538 0.246382
H17   H     H_    0.640093 0.340278 0.413465 0.237032
H18   H     H_    0.204406 0.209902 0.345178 0.238403
H19   H     H_    0.138354 0.158289 0.417398 0.236463
H20   H     H_    0.208331 0.788784 0.343536 0.246392
H21   H     H_    0.140093 0.840276 0.413461 0.237026
H22   H     H_    0.356455 0.350030 0.585633 0.221414
H23   H     H_    0.375710 0.891888 0.827596 0.134038
H24   H     H_    0.290366 0.298526 0.657754 0.223233
H25   H     H_    0.355649 0.649924 0.589269 0.220741
H26   H     H_    0.287811 0.701958 0.658857 0.220068
H27   H     H_    0.856440 0.850015 0.585677 0.221409
H28   H     H_    0.790327 0.798500 0.657769 0.223239
H29   H     H_    0.855651 0.149922 0.589264 0.220742
H30   H     H_    0.787816 0.201954 0.658855 0.220069
H31   H     H_    0.875702 0.391891 0.827596 0.134036
H32   H     H_    0.560279 0.096473 0.859974 0.160738
H33   H     H_    0.060278 0.596472 0.859973 0.160737
H34   H     H_    0.439943 0.839188 0.123953 0.223814
H35   H     H_    0.346785 0.903589 0.133214 0.239796
H36   H     H_    0.939921 0.339193 0.123956 0.223805
N1    N     N_3   0.418195 0.894754 0.149296 -0.618112
N2    N     N_3   0.321808 0.705384 0.598725 -0.604900
N3    N     N_3   0.822951 0.794623 0.597010 -0.600495
N4    N     N_3   0.821810 0.205382 0.598722 -0.604898
N5    N     N_3   0.918179 0.394761 0.149296 -0.618107
N6    N     N_3   0.625823 0.154955 0.001198 -0.642309
N7    N     N_3   0.125830 0.654950 0.001196 -0.642304
N8    N     N_3   0.673865 0.712898 0.406964 -0.642325
N9    N     N_3   0.676316 0.285859 0.404698 -0.628137
N10   N     N_3   0.173847 0.212884 0.406984 -0.642327
N11   N     N_3   0.176318 0.785857 0.404696 -0.628131
N12   N     N_3   0.322972 0.294640 0.596987 -0.600495
O1    O     O_3   0.500000 1.000000 0.500000 -0.457537
O2    O     O_R   0.885830 0.337110 0.539910 -0.501221
O3    O     O_R   0.692160 0.095230 0.468550 -0.543399
O4    O     O_R   0.692160 0.904770 0.468550 -0.546407
O5    O     O_R   0.192160 0.595230 0.468550 -0.543376
O6    O     O_R   0.192160 0.404770 0.468550 -0.546418
O7    O     O_R   0.316720 0.904790 0.427870 -0.551149
O8    O     O_R   0.316720 0.095210 0.427870 -0.555380
O9    O     O_R   0.816720 0.404790 0.427870 -0.551147
O10   O     O_R   0.816720 0.595210 0.427870 -0.555381
O11   O     O_R   0.594900 1.000000 0.310900 -0.532368
O12   O     O_3   0.000000 0.500000 0.500000 -0.457538
O13   O     O_R   0.094900 0.500000 0.310900 -0.532363
O14   O     O_R   0.483090 0.932320 0.697550 -0.544876
O15   O     O_R   0.483090 0.067680 0.697550 -0.542813
O16   O     O_R   0.983090 0.432320 0.697550 -0.544875
O17   O     O_R   0.983090 0.567680 0.697550 -0.542811
O18   O     O_R   0.438930 0.000000 0.294000 -0.515376
O19   O     O_R   0.938930 0.500000 0.294000 -0.515375
O20   O     O_3   0.635947 0.121210 0.184618 -0.561302
O21   O     O_3   0.135995 0.621180 0.184609 -0.561285
O22   O     O_R   0.605310 0.837110 0.563680 -0.534439
O23   O     O_R   0.605310 0.162890 0.563680 -0.535011
O24   O     O_R   0.105310 0.337110 0.563680 -0.534431
O25   O     O_R   0.105310 0.662890 0.563680 -0.535019
O26   O     O_R   0.385830 0.162890 0.539910 -0.497833
O27   O     O_R   0.385830 0.837110 0.539910 -0.501222
O28   O     O_R   0.885830 0.662890 0.539910 -0.497833
Zn1   Zn    Zn3+2 0.493670 0.096680 0.574000 0.958368
Zn2   Zn    Zn3+2 0.493670 0.903320 0.574000 0.953758
Zn3   Zn    Zn3+2 0.993670 0.596680 0.574000 0.958365
Zn4   Zn    Zn3+2 0.993670 0.403320 0.574000 0.953760
Zn5   Zn    Zn3+2 0.617760 0.000000 0.438070 0.951274
Zn6   Zn    Zn3+2 0.117760 0.500000 0.438070 0.951281
Zn7   Zn    Zn3+2 0.394920 1.000000 0.413930 0.954007
Zn8   Zn    Zn3+2 0.894920 0.500000 0.413930 0.954002

loop_
_geom_bond_atom_site_label_1
_geom_bond_atom_site_label_2
_ccdc_geom_bond_type
O5    Zn6   S    
H26   N2    S    
C30   C32   A    
C21   C26   S    
O25   Zn3   S    
C1    C11   S    
H34   N1    S    
H22   N12   S    
H2    N5    S    
H16   N9    S    
H18   N10   S    
H24   N12   S    
C11   N3    S    
C30   H12   S    
C35   H33   S    
O11   Zn5   S    
C6    N7    S    
O10   Zn8   S    
C1    O22   A    
C20   C25   S    
C3    O20   S    
H20   N11   S    
C22   O14   A    
H15   N8    S    
C36   H5    S    
H10   N6    S    
H28   N3    S    
C14   N12   S    
C19   O2    A    
O23   Zn1   S    
H36   N5    S    
C7    C14   D    
C15   N2    S    
C28   C35   A    
C1    O4    A    
C30   C41   A    
C36   H4    S    
O18   Zn7   S    
O12   Zn3   S    
C18   O28   A    
C15   C34   S    
C17   O27   A    
H29   N4    S    
O4    Zn5   S    
C40   C42   A    
C42   N1    S    
O1    Zn5   S    
C5    C38   A    
C29   H1    S    
O16   Zn4   S    
C2    N5    S    
C18   O10   A    
O12   Zn6   S    
O13   Zn6   S    
C16   O26   A    
C23   O6    A    
O9    Zn8   S    
H35   N1    S    
C8    C17   S    
C10   N9    S    
O6    Zn6   S    
C27   C31   A    
C24   C28   S    
C3    C25   A    
C34   O5    A    
C4    C6    A    
O27   Zn2   S    
C32   H31   S    
O22   Zn2   S    
C5    N6    S    
C19   O9    A    
C20   O11   A    
C3    C5    A    
C34   O25   A    
C13   N4    S    
C27   C33   A    
O28   Zn3   S    
O24   Zn4   S    
C14   C23   S    
H13   N7    S    
C35   C39   A    
H19   N10   S    
O2    Zn4   S    
C9    N8    S    
C37   H7    S    
O19   Zn8   S    
H14   N8    S    
C7    N10   S    
C28   C32   A    
C10   C19   S    
H21   N11   S    
C36   H3    S    
C2    C26   A    
C24   O17   A    
C37   H6    S    
C9    C11   D    
O7    Zn7   S    
C7    C16   S    
C4    O21   S    
C8    C15   D    
C22   C27   S    
C36   O20   S    
O1    Zn1   S    
C12   O3    A    
C24   O16   A    
O17   Zn3   S    
C12   O23   A    
C31   H23   S    
O1    Zn7   S    
C6    C39   A    
H25   N2    S    
O3    Zn5   S    
O12   Zn8   S    
C10   C13   D    
C25   C42   A    
C4    C26   A    
C22   O15   A    
C33   C38   A    
O26   Zn1   S    
C2    C41   A    
C29   C31   A    
C23   O24   A    
C38   C40   A    
C37   H8    S    
C16   O8    A    
C9    C18   S    
C29   C40   A    
H17   N9    S    
C37   O21   S    
H27   N3    S    
C21   O13   A    
C33   H32   S    
C12   C13   S    
C39   C41   A    
O1    Zn2   S    
O15   Zn1   S    
H11   N7    S    
C8    N11   S    
O8    Zn7   S    
C20   O18   A    
O12   Zn4   S    
C17   O7    A    
H9    N6    S    
H30   N4    S    
C21   O19   A    
O14   Zn2   S    
