data_mof_unit_26084.cif
_audit_creation_date              2012-12-11T14:44:24-0500
_audit_creation_method            fapswitch 2.2
_symmetry_space_group_name_H-M    P1
_symmetry_Int_Tables_number       1
_space_group_crystal_system       triclinic
_cell_length_a                    25.431798
_cell_length_b                    16.945466
_cell_length_c                    16.001355
_cell_angle_alpha                 90.27959
_cell_angle_beta                  47.974795
_cell_angle_gamma                 90.539049
_cell_volume                      5122.34338557

loop_
_atom_site_label
_atom_site_type_symbol
_atom_type_description
_atom_site_fract_x
_atom_site_fract_y
_atom_site_fract_z
_atom_type_partial_charge
C1    C     C_R   0.334441 0.114481 0.801867 -0.146029
C2    C     C_3   0.730801 0.743825 0.594597 -0.169095
C3    C     C_3   0.280116 0.828348 0.715875 -0.467476
C4    C     C_3   0.216343 0.774002 0.769553 -0.274545
C5    C     C_3   0.171174 0.768042 0.896786 -0.970151
C6    C     C_3   0.239848 0.107304 0.714977 -0.482164
C7    C     C_3   0.221019 0.027010 0.770328 -0.253783
C8    C     C_3   0.151036 0.028784 0.892424 -0.958666
C9    C     C_3   0.756047 0.880025 0.286209 -0.459229
C10   C     C_3   0.816135 0.915351 0.275661 -0.248218
C11   C     C_3   0.888199 0.904341 0.157118 -0.956729
C12   C     C_3   0.259097 0.623340 0.281815 -0.472357
C13   C     C_3   0.794987 0.172584 0.539872 -0.152948
C14   C     C_3   0.276995 0.574478 0.184333 -0.252374
C15   C     C_3   0.314831 0.623829 0.077552 -0.932754
C16   C     C_3   0.780093 0.328374 0.715887 -0.467483
C17   C     C_3   0.716303 0.274055 0.769569 -0.274520
C18   C     C_3   0.671117 0.268123 0.896809 -0.970193
C19   C     C_3   0.739856 0.607351 0.714971 -0.482148
C20   C     C_3   0.720986 0.527062 0.770352 -0.253761
C21   C     C_3   0.650998 0.528872 0.892438 -0.958625
C22   C     C_3   0.256034 0.379994 0.286231 -0.459210
C23   C     C_3   0.316075 0.415340 0.275795 -0.248111
C24   C     C_3   0.252158 0.744380 0.445456 -0.147126
C25   C     C_3   0.388176 0.404335 0.157298 -0.956722
C26   C     C_3   0.748482 0.718552 0.411448 -0.144683
C27   C     C_3   0.230641 0.243699 0.594701 -0.169172
C28   C     C_3   0.295012 0.672574 0.539832 -0.152944
C29   C     C_3   0.752176 0.244380 0.445427 -0.147150
C30   C     C_2   0.629785 0.273214 0.177464 -0.221349
C31   C     C_2   0.299964 0.863292 0.995304 -0.224909
C32   C     C_2   0.302904 0.154288 0.983069 -0.217198
C33   C     C_R   0.645104 0.851593 0.245831 -0.147769
C34   C     C_2   0.640173 0.737598 0.148915 -0.215169
C35   C     C_2   0.129791 0.773212 0.177458 -0.221327
C36   C     C_2   0.799960 0.363295 0.995305 -0.224906
C37   C     C_2   0.802898 0.654254 0.983091 -0.217165
C38   C     C_2   0.140184 0.237609 0.148888 -0.215160
C39   C     C_2   0.683959 0.311952 0.156497 -0.120398
C40   C     C_2   0.229578 0.862681 0.057218 -0.101357
C41   C     C_2   0.233178 0.142409 0.047349 -0.112865
C42   C     C_2   0.684787 0.692432 0.144894 -0.114542
C43   C     C_2   0.183964 0.811950 0.156494 -0.120406
C44   C     C_R   0.636579 0.154458 0.265581 -0.123809
C45   C     C_2   0.729574 0.362680 0.057217 -0.101373
C46   C     C_2   0.733168 0.642397 0.047361 -0.112823
C47   C     C_2   0.184789 0.192439 0.144883 -0.114555
C48   C     C_R   0.615736 0.102711 0.589722 -0.157848
C49   C     C_R   0.400931 0.863210 0.407873 -0.178701
C50   C     C_R   0.386752 0.108443 0.408949 -0.189349
C51   C     C_R   0.603001 0.871341 0.593387 -0.181554
C52   C     C_R   0.115738 0.602708 0.589721 -0.157848
C53   C     C_R   0.900931 0.363208 0.407875 -0.178698
C54   C     C_R   0.886756 0.608441 0.408943 -0.189299
C55   C     C_R   0.331889 0.903459 0.813558 -0.161360
C56   C     C_R   0.102949 0.371241 0.593381 -0.181563
C57   C     C_R   0.692438 0.101395 0.402643 0.151324
C58   C     C_R   0.328781 0.857174 0.595124 0.114633
C59   C     C_R   0.310286 0.107539 0.595359 0.168002
C60   C     C_R   0.684323 0.878645 0.405134 0.144160
C61   C     C_R   0.192439 0.601390 0.402643 0.151299
C62   C     C_R   0.828775 0.357181 0.595128 0.114667
C63   C     C_R   0.810289 0.607542 0.595350 0.167974
C64   C     C_R   0.184287 0.378569 0.405127 0.144150
C65   C     C_R   0.555858 0.146155 0.251050 -0.131248
C66   C     C_R   0.834437 0.614468 0.801877 -0.146045
C67   C     C_R   0.421417 0.895162 0.804393 -0.139959
C68   C     C_R   0.422225 0.110733 0.801010 -0.132869
C69   C     C_R   0.562392 0.859590 0.235459 -0.131616
C70   C     C_R   0.055860 0.646154 0.251047 -0.131245
C71   C     C_R   0.921414 0.395164 0.804396 -0.139979
C72   C     C_R   0.922221 0.610720 0.801017 -0.132869
C73   C     C_R   0.062395 0.359594 0.235451 -0.131613
C74   C     C_R   0.352552 0.132092 0.864199 0.146241
C75   C     C_R   0.615549 0.812494 0.209944 0.150757
C76   C     C_R   0.606219 0.195679 0.233258 0.137332
C77   C     C_R   0.145114 0.351601 0.245807 -0.147774
C78   C     C_R   0.349713 0.883474 0.874741 0.161267
C79   C     C_R   0.852547 0.632070 0.864215 0.146241
C80   C     C_R   0.115557 0.312502 0.209923 0.150748
C81   C     C_R   0.106224 0.695677 0.233251 0.137332
C82   C     C_R   0.849711 0.383475 0.874742 0.161264
C83   C     C_R   0.684609 0.116464 0.494457 -0.036676
C84   C     C_R   0.348349 0.819642 0.500473 0.018116
C85   C     C_R   0.319761 0.127325 0.503497 -0.016305
C86   C     C_R   0.665766 0.842035 0.498623 -0.003506
C87   C     C_R   0.184612 0.616456 0.494456 -0.036700
C88   C     C_R   0.136584 0.654455 0.265573 -0.123816
C89   C     C_R   0.848346 0.319643 0.500478 0.018099
C90   C     C_R   0.819766 0.627329 0.503485 -0.016313
C91   C     C_R   0.165686 0.341883 0.498606 -0.003536
C92   C     C_3   0.308137 0.239564 0.410140 -0.147253
C93   C     C_3   0.671013 0.723137 0.596185 -0.168317
C94   C     C_3   0.716852 0.187253 0.598522 -0.180497
C95   C     C_3   0.329695 0.729671 0.387049 -0.174495
C96   C     C_3   0.808172 0.739555 0.410056 -0.147276
C97   C     C_3   0.170941 0.222936 0.596093 -0.168274
C98   C     C_3   0.216869 0.687226 0.598514 -0.180499
C99   C     C_R   0.831888 0.403458 0.813556 -0.161342
C100  C     C_3   0.829706 0.229655 0.387052 -0.174494
C101  C     C_3   0.762431 0.803697 0.500217 -0.163324
C102  C     C_3   0.216886 0.157953 0.506693 -0.162114
C103  C     C_3   0.234890 0.772174 0.552317 -0.148047
C104  C     C_3   0.811222 0.144072 0.432750 -0.165979
C105  C     C_3   0.262271 0.303630 0.500385 -0.163268
C106  C     C_3   0.716832 0.658080 0.506872 -0.162150
C107  C     C_3   0.734896 0.272191 0.552291 -0.148036
C108  C     C_3   0.311235 0.644080 0.432714 -0.166005
C109  C     C_3   0.703995 0.782572 0.500549 0.209888
C110  C     C_3   0.248537 0.218487 0.411334 -0.144721
C111  C     C_3   0.275831 0.179880 0.504928 0.196830
C112  C     C_3   0.311670 0.757250 0.495269 0.212966
C113  C     C_3   0.734064 0.160176 0.491981 0.207404
C114  C     C_3   0.203924 0.282432 0.500524 0.209886
C115  C     C_3   0.775866 0.679932 0.504908 0.196824
C116  C     C_3   0.811668 0.257252 0.495275 0.212967
C117  C     C_3   0.234069 0.660167 0.491977 0.207406
C118  C     C_3   0.759096 0.123347 0.281816 -0.472354
C119  C     C_3   0.776992 0.074498 0.184327 -0.252367
C120  C     C_3   0.814821 0.123859 0.077556 -0.932779
H1    H     H_    0.281790 0.114244 0.833817 0.111835
H2    H     H_    0.421519 0.856950 0.323536 0.098987
H3    H     H_    0.703296 0.246341 0.915696 0.276812
H4    H     H_    0.648821 0.326499 0.937267 0.257151
H5    H     H_    0.626522 0.226189 0.933492 0.252570
H6    H     H_    0.681904 0.297348 0.756327 0.211904
H7    H     H_    0.734550 0.213674 0.737758 0.216636
H8    H     H_    0.813816 0.298702 0.726773 0.216576
H9    H     H_    0.755293 0.381689 0.765261 0.204265
H10   H     H_    0.653501 0.572820 0.941405 0.255291
H11   H     H_    0.606968 0.544176 0.896473 0.269028
H12   H     H_    0.640012 0.469914 0.931256 0.247626
H13   H     H_    0.409380 0.110168 0.322811 0.105123
H14   H     H_    0.716669 0.483679 0.722792 0.201800
H15   H     H_    0.763496 0.509350 0.767899 0.195626
H16   H     H_    0.739716 0.654441 0.763243 0.181858
H17   H     H_    0.696721 0.621364 0.716537 0.201497
H18   H     H_    0.402341 0.340820 0.142029 0.260840
H19   H     H_    0.388039 0.425367 0.091918 0.262526
H20   H     H_    0.429288 0.437579 0.149079 0.253633
H21   H     H_    0.306279 0.478474 0.299391 0.190741
H22   H     H_    0.319584 0.386660 0.332624 0.207095
H23   H     H_    0.270306 0.319373 0.251650 0.182246
H24   H     H_    0.576539 0.860989 0.680448 0.107231
H25   H     H_    0.252378 0.415802 0.232900 0.177125
H26   H     H_    0.092632 0.603312 0.676106 0.100836
H27   H     H_    0.921520 0.356945 0.323538 0.098991
H28   H     H_    0.909389 0.610170 0.322802 0.105097
H29   H     H_    0.076480 0.360858 0.680440 0.107264
H30   H     H_    0.521419 0.160486 0.236250 0.096344
H31   H     H_    0.451235 0.898164 0.830296 0.086917
H32   H     H_    0.449901 0.107192 0.830593 0.090430
H33   H     H_    0.688098 0.830650 0.236166 0.095076
H34   H     H_    0.533244 0.848608 0.209851 0.087816
H35   H     H_    0.021421 0.660486 0.236246 0.096342
H36   H     H_    0.951230 0.398169 0.830303 0.086920
H37   H     H_    0.949898 0.607175 0.830600 0.090426
H38   H     H_    0.033246 0.348614 0.209844 0.087813
H39   H     H_    0.778551 0.864058 0.503074 0.103944
H40   H     H_    0.199741 0.096692 0.509939 0.114420
H41   H     H_    0.204564 0.826685 0.597747 0.104364
H42   H     H_    0.840825 0.089991 0.384280 0.106024
H43   H     H_    0.278301 0.364013 0.503373 0.103941
H44   H     H_    0.670743 0.179131 0.275056 0.126257
H45   H     H_    0.699599 0.596844 0.510256 0.114434
H46   H     H_    0.704579 0.326712 0.597694 0.104361
H47   H     H_    0.340846 0.590009 0.384220 0.106040
H48   H     H_    0.365106 0.246115 0.333683 0.111661
H49   H     H_    0.613860 0.717919 0.672301 0.112409
H50   H     H_    0.669942 0.168592 0.685341 0.106575
H51   H     H_    0.376492 0.746692 0.299307 0.106059
H52   H     H_    0.865124 0.746020 0.333521 0.111642
H53   H     H_    0.113770 0.217636 0.672131 0.112420
H54   H     H_    0.169971 0.668545 0.685330 0.106577
H55   H     H_    0.280166 0.924367 0.853718 0.097172
H56   H     H_    0.876515 0.246659 0.299308 0.106061
H57   H     H_    0.254424 0.206467 0.337301 0.100436
H58   H     H_    0.724435 0.756422 0.669034 0.112368
H59   H     H_    0.815196 0.143663 0.575603 0.109062
H60   H     H_    0.233403 0.773954 0.407863 0.104814
H61   H     H_    0.754279 0.706514 0.337508 0.100435
H62   H     H_    0.224183 0.256292 0.669227 0.112350
H63   H     H_    0.315240 0.643649 0.575531 0.109061
H64   H     H_    0.733437 0.273956 0.407809 0.104811
H65   H     H_    0.206812 0.886525 0.024909 0.131587
H66   H     H_    0.781787 0.614224 0.833829 0.111828
H67   H     H_    0.703692 0.294556 0.196219 0.121167
H68   H     H_    0.696846 0.704726 0.197163 0.125113
H69   H     H_    0.212192 0.109051 0.017118 0.128144
H70   H     H_    0.706810 0.386518 0.024903 0.131599
H71   H     H_    0.203696 0.794552 0.196216 0.121166
H72   H     H_    0.196839 0.204730 0.197165 0.125127
H73   H     H_    0.712175 0.609065 0.017117 0.128120
H74   H     H_    0.321620 0.837973 0.028976 0.129311
H75   H     H_    0.611213 0.291279 0.136008 0.140364
H76   H     H_    0.629244 0.724888 0.095097 0.128647
H77   H     H_    0.188122 0.330667 0.236106 0.095082
H78   H     H_    0.323031 0.187923 0.014728 0.129929
H79   H     H_    0.821616 0.337981 0.028982 0.129314
H80   H     H_    0.111219 0.791279 0.136001 0.140356
H81   H     H_    0.129263 0.224903 0.095058 0.128654
H82   H     H_    0.823030 0.687862 0.014767 0.129906
H83   H     H_    0.781041 0.172357 0.090774 0.264470
H84   H     H_    0.864441 0.149657 0.050764 0.257837
H85   H     H_    0.828555 0.085659 0.008840 0.253330
H86   H     H_    0.814826 0.028515 0.161043 0.212404
H87   H     H_    0.730377 0.044416 0.206982 0.208312
H88   H     H_    0.170752 0.679125 0.275040 0.126253
H89   H     H_    0.756967 0.187154 0.269257 0.184888
H90   H     H_    0.805795 0.118786 0.273633 0.180237
H91   H     H_    0.203365 0.746240 0.915641 0.276821
H92   H     H_    0.148883 0.826410 0.937271 0.257137
H93   H     H_    0.126576 0.726112 0.933471 0.252561
H94   H     H_    0.181925 0.797285 0.756346 0.211911
H95   H     H_    0.234608 0.713630 0.737709 0.216638
H96   H     H_    0.313855 0.798691 0.726737 0.216593
H97   H     H_    0.255300 0.881651 0.765270 0.204279
H98   H     H_    0.153529 0.072735 0.941399 0.255300
H99   H     H_    0.780166 0.424369 0.853713 0.097157
H100  H     H_    0.106991 0.044062 0.896485 0.269036
H101  H     H_    0.140079 0.969822 0.931216 0.247617
H102  H     H_    0.216713 0.983622 0.722760 0.201802
H103  H     H_    0.263544 0.009326 0.767851 0.195661
H104  H     H_    0.239673 0.154405 0.763275 0.181867
H105  H     H_    0.196706 0.121267 0.716540 0.201490
H106  H     H_    0.902362 0.840824 0.141828 0.260833
H107  H     H_    0.888008 0.925373 0.091799 0.262532
H108  H     H_    0.929342 0.937580 0.148820 0.253652
H109  H     H_    0.806359 0.978483 0.299269 0.190746
H110  H     H_    0.592630 0.103314 0.676107 0.100834
H111  H     H_    0.819693 0.886650 0.332420 0.207124
H112  H     H_    0.770287 0.819389 0.251681 0.182252
H113  H     H_    0.752372 0.915813 0.232886 0.177166
H114  H     H_    0.281054 0.672327 0.090758 0.264466
H115  H     H_    0.364451 0.649627 0.050762 0.257837
H116  H     H_    0.328566 0.585623 0.008840 0.253326
H117  H     H_    0.314824 0.528492 0.161065 0.212373
H118  H     H_    0.230378 0.544401 0.206989 0.208316
H119  H     H_    0.256969 0.687145 0.269249 0.184886
H120  H     H_    0.305797 0.618782 0.273632 0.180249
N1    N     N_R   0.389620 0.081040 0.705440 -0.046788
N2    N     N_R   0.417680 0.920160 0.443370 -0.041268
N3    N     N_R   0.417680 0.079840 0.443370 -0.044236
N4    N     N_R   0.582320 0.920160 0.556630 -0.043302
N5    N     N_R   0.082320 0.579840 0.556630 -0.047161
N6    N     N_R   0.917680 0.420160 0.443370 -0.041272
N7    N     N_R   0.917680 0.579840 0.443370 -0.044240
N8    N     N_R   0.082320 0.420160 0.556630 -0.043301
N9    N     N_R   0.627920 0.078930 0.443400 -0.057326
N10   N     N_R   0.372080 0.921070 0.556600 -0.065230
N11   N     N_R   0.372080 0.078930 0.556600 -0.055122
N12   N     N_R   0.610380 0.918960 0.294560 -0.053549
N13   N     N_R   0.627920 0.921070 0.443400 -0.059753
N14   N     N_R   0.127920 0.578930 0.443400 -0.057322
N15   N     N_R   0.872080 0.421070 0.556600 -0.065225
N16   N     N_R   0.872080 0.578930 0.556600 -0.055122
N17   N     N_R   0.127920 0.421070 0.443400 -0.059738
N18   N     N_R   0.555090 0.077730 0.294590 -0.041654
N19   N     N_R   0.444910 0.922270 0.705410 -0.035625
N20   N     N_R   0.444910 0.077730 0.705410 -0.038073
N21   N     N_R   0.555090 0.922270 0.294590 -0.038406
N22   N     N_R   0.055090 0.577730 0.294590 -0.041655
N23   N     N_R   0.610380 0.081040 0.294560 -0.054645
N24   N     N_R   0.944910 0.422270 0.705410 -0.035621
N25   N     N_R   0.944910 0.577730 0.705410 -0.038072
N26   N     N_R   0.055090 0.422270 0.294590 -0.038405
N27   N     N_R   0.389620 0.918960 0.705440 -0.052257
N28   N     N_R   0.889620 0.581040 0.705440 -0.046781
N29   N     N_R   0.110380 0.418960 0.294560 -0.053547
N30   N     N_R   0.110380 0.581040 0.294560 -0.054642
N31   N     N_R   0.889620 0.418960 0.705440 -0.052246
N32   N     N_R   0.582320 0.079840 0.556630 -0.047160
Ni1   Ni    Ni4+2 0.382970 1.000000 0.629840 0.194407
Ni2   Ni    Ni4+2 0.617030 0.000000 0.370160 0.201457
Ni3   Ni    Ni4+2 0.882970 0.500000 0.629840 0.194404
Ni4   Ni    Ni4+2 0.117030 0.500000 0.370160 0.201456
Ni5   Ni    Ni4+2 0.514540 1.000000 0.629840 0.200170
Ni6   Ni    Ni4+2 0.485460 0.000000 0.370160 0.203317
Ni7   Ni    Ni4+2 0.014540 0.500000 0.629840 0.200170
Ni8   Ni    Ni4+2 0.985460 0.500000 0.370160 0.203318

loop_
_geom_bond_atom_site_label_1
_geom_bond_atom_site_label_2
_ccdc_geom_bond_type
C102  C110  S    
C62   C89   A    
N32   Ni5   S    
C12   C61   S    
C29   H64   S    
N12   Ni2   S    
C82   C99   A    
C83   C113  S    
N18   N23   A    
C34   C42   D    
C36   H79   S    
C53   H27   S    
C13   C116  S    
C59   N11   A    
C52   N5    A    
C26   C106  S    
C44   N23   A    
C49   N2    A    
C35   C81   S    
C106  C115  S    
C7    C8    S    
C51   H24   S    
C28   C112  S    
N31   Ni3   S    
C66   C79   A    
C37   C79   S    
C93   H49   S    
C24   C117  S    
C61   N14   A    
C65   C76   A    
C38   C80   S    
C23   H21   S    
C98   C117  S    
C118  H89   S    
C8    H100  S    
C1    C74   A    
C49   C84   A    
C72   N25   A    
N1    N20   A    
C28   H63   S    
C54   C90   A    
C72   C79   A    
C95   C112  S    
C18   H5    S    
C104  H42   S    
C98   H54   S    
C33   H33   S    
C17   H6    S    
C10   H111  S    
C63   C90   A    
N6    N15   A    
C27   C105  S    
C68   C74   A    
C98   C103  S    
C52   C87   A    
C6    H105  S    
C100  C104  S    
N24   Ni7   S    
C30   C76   S    
C31   C40   D    
N3    Ni6   S    
C42   C46   S    
N10   Ni1   S    
N1    Ni1   S    
C47   H72   S    
C44   C76   A    
C70   C81   A    
C53   N6    A    
C21   H11   S    
N8    Ni7   S    
C32   H78   S    
C61   C87   A    
C50   C85   A    
C65   H30   S    
C95   H51   S    
C33   C75   A    
C40   C43   S    
C27   C97   S    
N21   Ni6   S    
C51   N4    A    
C19   C63   S    
C11   H108  S    
C56   C91   A    
C38   H81   S    
C100  C116  S    
C15   H116  S    
C100  H56   S    
C52   H26   S    
C32   C41   D    
C57   C83   A    
C23   H22   S    
C69   C75   A    
C35   C43   D    
C9    C10   S    
C110  C114  S    
C97   C102  S    
C29   C100  S    
C3    H97   S    
C34   C75   S    
C39   C45   S    
C71   C82   A    
C48   H110  S    
N7    N16   A    
C49   H2    S    
C89   C116  S    
C27   C111  S    
C4    H95   S    
C18   H4    S    
C96   C101  S    
C118  C119  S    
N9    N32   A    
C102  C111  S    
C67   C78   A    
C16   C62   S    
C88   H88   S    
C96   C115  S    
C108  C117  S    
C51   C86   A    
C22   C23   S    
C107  C116  S    
C94   C113  S    
C35   H80   S    
C6    H104  S    
C12   H119  S    
C26   C96   S    
C62   N15   A    
C5    H91   S    
C15   H115  S    
C94   C107  S    
C103  H41   S    
C97   H53   S    
C95   C108  S    
C9    H113  S    
C70   H35   S    
N2    N10   A    
C106  H45   S    
N30   Ni4   S    
C105  C114  S    
C86   C109  S    
C4    H94   S    
C63   N16   A    
C50   N3    A    
C73   N26   A    
C24   C95   S    
C102  H40   S    
N3    N11   A    
C14   H118  S    
C7    H102  S    
C60   C86   A    
N25   Ni7   S    
C69   N21   A    
C40   H65   S    
C2    C101  S    
N26   Ni8   S    
C3    H96   S    
C13   H59   S    
C67   H31   S    
C73   H38   S    
N26   N29   A    
C10   H109  S    
C72   H37   S    
N8    N17   A    
N15   Ni3   S    
C103  C112  S    
C22   H23   S    
C33   N12   A    
C59   C85   A    
C21   H12   S    
C24   H60   S    
C3    C58   S    
C68   H32   S    
C58   C84   A    
C93   C106  S    
N22   N30   A    
C7    H103  S    
C2    C115  S    
C92   H48   S    
C30   H75   S    
C22   H25   S    
C12   C14   S    
C19   H17   S    
N23   Ni2   S    
N22   Ni8   S    
C25   H20   S    
C105  H43   S    
C17   C18   S    
C41   C47   S    
C55   N27   A    
C36   C45   D    
N5    Ni7   S    
C119  H86   S    
C84   C112  S    
C54   N7    A    
C13   C104  S    
N6    Ni8   S    
C16   H9    S    
C16   H8    S    
C26   C109  S    
C55   H55   S    
C38   C47   D    
C1    N1    A    
N12   N21   A    
C88   N30   A    
C108  H47   S    
C99   H99   S    
N24   N31   A    
N4    N13   A    
C66   H66   S    
C53   C89   A    
N18   Ni6   S    
C120  H84   S    
C77   N29   A    
C58   N10   A    
C15   H114  S    
C119  H87   S    
N13   Ni2   S    
C120  H85   S    
C57   N9    A    
C3    C4    S    
C43   H71   S    
C99   N31   A    
C66   N28   A    
C64   N17   A    
C31   C78   S    
C54   H28   S    
C77   C80   A    
C42   H68   S    
C71   N24   A    
C70   N22   A    
C5    H92   S    
C29   C113  S    
N27   Ni1   S    
N17   Ni4   S    
N14   Ni4   S    
N29   Ni4   S    
C25   H19   S    
N9    Ni2   S    
N16   Ni3   S    
C6    C59   S    
C2    C93   S    
C17   H7    S    
N11   Ni1   S    
C60   N13   A    
C4    C5    S    
C85   C111  S    
C50   H13   S    
C14   H117  S    
C28   C98   S    
C119  C120  S    
C48   C83   A    
C92   C111  S    
C87   C117  S    
C6    C7    S    
C44   H44   S    
N5    N14   A    
C18   H3    S    
C37   H82   S    
C69   H34   S    
C110  H57   S    
C91   C114  S    
C41   H69   S    
C13   C94   S    
C118  H90   S    
C9    C60   S    
C20   H14   S    
C24   C103  S    
C19   C20   S    
C90   C115  S    
C25   H18   S    
C19   H16   S    
C27   H62   S    
C39   H67   S    
N19   Ni5   S    
C46   H73   S    
C94   H50   S    
C34   H76   S    
C32   C74   S    
N20   Ni5   S    
C92   C110  S    
C16   C17   S    
C56   N8    A    
C77   H77   S    
C45   H70   S    
C28   C108  S    
C11   H106  S    
C107  H46   S    
C71   H36   S    
N28   Ni3   S    
C9    H112  S    
N4    Ni5   S    
C37   C46   D    
C73   C80   A    
C30   C39   D    
C65   N18   A    
N19   N27   A    
C23   C25   S    
C20   H15   S    
N25   N28   A    
C1    H1    S    
C21   H10   S    
C5    H93   S    
C81   C88   A    
C8    H98   S    
C10   C11   S    
C55   C78   A    
C22   C64   S    
C104  C113  S    
C26   H61   S    
C92   C105  S    
C12   H120  S    
C101  H39   S    
C20   C21   S    
C48   N32   A    
C11   H107  S    
C96   H52   S    
C56   H29   S    
C120  H83   S    
N2    Ni6   S    
C14   C15   S    
C29   C107  S    
N7    Ni8   S    
C2    H58   S    
C64   C91   A    
C36   C82   S    
C97   C114  S    
C101  C109  S    
C68   N20   A    
C67   N19   A    
C8    H101  S    
C93   C109  S    
C57   C118  S    
C31   H74   S    
