data_mof_unit_35358.cif
_audit_creation_date              2012-12-10T17:12:44-0500
_audit_creation_method            fapswitch 2.2
_symmetry_space_group_name_H-M    P1
_symmetry_Int_Tables_number       1
_space_group_crystal_system       triclinic
_cell_length_a                    23.368773
_cell_length_b                    10.733869
_cell_length_c                    10.008395
_cell_angle_alpha                 89.070001
_cell_angle_beta                  90.806017
_cell_angle_gamma                 90.473979
_cell_volume                      2509.81894161

loop_
_atom_site_label
_atom_site_type_symbol
_atom_type_description
_atom_site_fract_x
_atom_site_fract_y
_atom_site_fract_z
_atom_type_partial_charge
C1    C     C_R   0.495615 0.262222 0.501323 0.787613
C2    C     C_R   0.118471 0.562064 0.442551 0.586167
C3    C     C_R   0.236897 0.480130 0.610507 -0.185218
C4    C     C_R   0.389259 0.498474 0.499035 0.896251
C5    C     C_R   0.296042 0.491890 0.614573 -0.220039
C6    C     C_R   0.326984 0.488778 0.495783 -0.081530
C7    C     C_R   0.298214 0.472322 0.373195 -0.320645
C8    C     C_R   0.238794 0.456347 0.368893 0.546035
C9    C     C_R   0.208415 0.463916 0.488175 0.222364
C10   C     C_R   0.758188 0.395214 0.412746 -0.293262
C11   C     C_R   0.698885 0.406376 0.409216 0.491761
C12   C     C_R   0.971032 0.239419 0.583831 0.423113
C13   C     C_R   0.672222 0.482278 0.503238 -0.219702
C14   C     C_R   0.704643 0.540157 0.603507 -0.366051
C15   C     C_R   0.763701 0.525477 0.609421 0.553515
C16   C     C_R   0.500856 0.737482 0.498309 0.952360
C17   C     C_R   0.790439 0.455641 0.510997 0.129539
C18   C     C_2   0.491154 0.935170 0.383163 0.618111
C19   C     C_2   0.507839 0.868999 0.491579 -0.365840
C20   C     C_2   0.499330 0.069286 0.391084 -0.414629
C21   C     C_2   0.484062 0.129369 0.501250 0.296504
C22   C     C_2   0.537406 0.563988 0.922962 0.574708
C23   C     C_R   0.030791 0.237702 0.571029 0.401675
C24   C     C_2   0.529029 0.578981 0.073297 -0.079850
C25   C     C_R   0.610512 0.497197 0.500804 0.923798
C26   C     C_R   0.879013 0.556998 0.457896 0.597442
C27   C     C_R   0.879590 0.348011 0.543585 0.541582
C28   C     C_R   0.939743 0.344915 0.540052 -0.191473
C29   C     C_R   0.969228 0.451724 0.491972 -0.089320
C30   C     C_R   0.938499 0.558398 0.450654 -0.063206
C31   C     C_3   0.944336 0.140290 0.775061 -0.172714
C32   C     C_3   0.654586 0.225913 0.352759 -0.262674
C33   C     C_3   0.808189 0.510548 0.814146 0.062380
C34   C     C_R   0.060472 0.346337 0.528320 -0.178277
C35   C     C_3   0.763337 0.526243 0.922602 -0.375877
C36   C     C_3   0.779331 0.454254 0.050119 -0.899129
C37   C     C_3   0.465685 0.946647 0.156946 -0.328160
C38   C     C_3   0.457384 0.104467 0.729818 0.134365
C39   C     C_3   0.518585 0.082043 0.784681 -0.426224
C40   C     C_3   0.530804 0.158710 0.908843 -0.847940
C41   C     C_3   0.622435 0.682009 0.936110 -0.397120
C42   C     C_3   0.059891 0.049018 0.500737 -0.088156
C43   C     C_3   0.431453 0.360847 0.118492 -0.202878
C44   C     C_3   0.049740 0.782138 0.211952 -0.264845
C45   C     C_R   0.029439 0.453103 0.486990 -0.150392
C46   C     C_3   0.228107 0.341659 0.175432 0.075611
C47   C     C_3   0.251302 0.386972 0.040653 -0.350688
C48   C     C_3   0.271844 0.278448 0.957640 -0.943702
C49   C     C_R   0.058512 0.561769 0.441143 -0.103450
C50   C     C_R   0.026935 0.666504 0.395871 0.531246
C51   C     C_R   0.967464 0.664504 0.403671 -0.259001
C52   C     C_R   0.120533 0.352366 0.526584 0.560604
H1    H     H_    0.684236 0.598596 0.675603 0.207324
H2    H     H_    0.779377 0.341445 0.337594 0.181457
H3    H     H_    0.920219 0.058957 0.815492 0.188543
H4    H     H_    0.923042 0.225942 0.810382 0.135456
H5    H     H_    0.988757 0.135093 0.816091 0.162365
H6    H     H_    0.628772 0.179798 0.273622 0.186572
H7    H     H_    0.628542 0.225495 0.445111 0.133565
H8    H     H_    0.694151 0.170342 0.369098 0.167131
H9    H     H_    0.850661 0.539068 0.855099 0.173002
H10   H     H_    0.811902 0.410224 0.787909 0.145363
H11   H     H_    0.759447 0.626640 0.946102 0.238054
H12   H     H_    0.529217 0.912338 0.576045 0.124748
H13   H     H_    0.721152 0.491729 0.885708 0.231070
H14   H     H_    0.782683 0.353183 0.029712 0.264835
H15   H     H_    0.745629 0.467649 0.125431 0.292337
H16   H     H_    0.820719 0.488872 0.091671 0.262407
H17   H     H_    0.511083 0.965178 0.130471 0.152904
H18   H     H_    0.440934 0.034425 0.162416 0.173885
H19   H     H_    0.446377 0.890605 0.075524 0.191244
H20   H     H_    0.428215 0.045901 0.791592 0.143829
H21   H     H_    0.441443 0.200141 0.744965 0.166863
H22   H     H_    0.523500 0.981519 0.810489 0.214441
H23   H     H_    0.520907 0.116350 0.308790 0.148000
H24   H     H_    0.551393 0.106875 0.709455 0.220913
H25   H     H_    0.534056 0.258909 0.880993 0.300358
H26   H     H_    0.572008 0.129399 0.955630 0.252760
H27   H     H_    0.496209 0.145672 0.982409 0.251032
H28   H     H_    0.639907 0.617910 0.014824 0.185240
H29   H     H_    0.603832 0.767090 0.979372 0.164200
H30   H     H_    0.658857 0.713436 0.873961 0.199943
H31   H     H_    0.085639 0.966192 0.529366 0.222900
H32   H     H_    0.079902 0.092745 0.410972 0.138600
H33   H     H_    0.015832 0.015898 0.475929 0.174573
H34   H     H_    0.461890 0.480052 0.894290 0.155289
H35   H     H_    0.403328 0.443673 0.105745 0.131586
H36   H     H_    0.425840 0.318119 0.218699 0.200588
H37   H     H_    0.416664 0.291291 0.044610 0.119808
H38   H     H_    0.068497 0.698726 0.164942 0.179973
H39   H     H_    0.074464 0.864838 0.177108 0.195420
H40   H     H_    0.004628 0.794750 0.177788 0.141209
H41   H     H_    0.190592 0.279782 0.156672 0.171652
H42   H     H_    0.260759 0.282966 0.228664 0.125815
H43   H     H_    0.217070 0.437254 0.984119 0.238086
H44   H     H_    0.287564 0.452753 0.056920 0.210513
H45   H     H_    0.547381 0.659355 0.122522 0.105042
H46   H     H_    0.306669 0.227782 0.011491 0.250757
H47   H     H_    0.288615 0.314285 0.861071 0.268166
H48   H     H_    0.235885 0.212954 0.936804 0.287683
H49   H     H_    0.944178 0.747325 0.373155 0.202924
H50   H     H_    0.212958 0.484984 0.702137 0.158430
H51   H     H_    0.317400 0.504450 0.710208 0.167518
H52   H     H_    0.321725 0.471478 0.280922 0.157904
N1    N     N_R   0.851209 0.453409 0.504664 -0.336833
N2    N     N_R   0.147538 0.458884 0.485015 -0.352441
N3    N     N_2   0.500610 0.501330 0.852150 -0.220950
N4    N     N_2   0.500630 0.501360 0.147810 0.088252
O1    O     O_R   0.499990 0.319060 0.613040 -0.630535
O2    O     O_R   0.583840 0.500020 0.613040 -0.570466
O3    O     O_R   0.583850 0.500060 0.386900 -0.570768
O4    O     O_2   0.848863 0.658056 0.417843 -0.543913
O5    O     O_3   0.943517 0.134539 0.634291 -0.548441
O6    O     O_3   0.667586 0.348395 0.309465 -0.588168
O7    O     O_3   0.795760 0.589747 0.703228 -0.621339
O8    O     O_3   0.462138 0.877509 0.277365 -0.574263
O9    O     O_3   0.449823 0.066617 0.595683 -0.638737
O10   O     O_3   0.582076 0.621420 0.853224 -0.574360
O11   O     O_3   0.060025 0.131116 0.609383 -0.575587
O12   O     O_2   0.849347 0.247410 0.585223 -0.520760
O13   O     O_3   0.489422 0.389302 0.094052 -0.555338
O14   O     O_3   0.053949 0.774641 0.352553 -0.596885
O15   O     O_3   0.208924 0.444855 0.248803 -0.640980
O16   O     O_2   0.152155 0.253731 0.566951 -0.513327
O17   O     O_2   0.148026 0.664594 0.403500 -0.489657
O18   O     O_R   0.500010 0.319100 0.386900 -0.602667
O19   O     O_R   0.416150 0.499940 0.613100 -0.637274
O20   O     O_R   0.416160 0.499980 0.386960 -0.631680
O21   O     O_R   0.499990 0.680900 0.613100 -0.594580
O22   O     O_R   0.500010 0.680940 0.386960 -0.581848
Zn1   Zn    Zn3+2 0.499990 0.499970 0.650990 0.974753
Zn2   Zn    Zn3+2 0.500010 0.500030 0.349010 1.019759

loop_
_geom_bond_atom_site_label_1
_geom_bond_atom_site_label_2
_ccdc_geom_bond_type
C30   C51   A    
C5    H51   S    
C1    C21   S    
C37   H17   S    
C52   O16   S    
H34   N3    S    
C50   O14   S    
C32   H6    S    
N4    O13   S    
C41   H28   S    
C36   H15   S    
C7    C8    A    
C37   O8    S    
C27   O12   S    
C12   C23   A    
C43   H37   S    
C12   C28   A    
C43   H36   S    
C22   C24   S    
C28   C29   A    
C23   O11   S    
C38   C39   S    
C36   H14   S    
C42   O11   S    
C27   N1    A    
C10   C17   A    
C22   N3    D    
C15   C17   A    
C18   C19   D    
C39   H22   S    
C11   O6    S    
C21   O9    S    
C1    O1    A    
C38   O9    S    
C35   C36   S    
C33   H10   S    
O1    Zn1   S    
C47   H44   S    
C24   N4    D    
O18   Zn2   S    
C31   H4    S    
C16   O22   A    
C43   O13   S    
C44   H40   S    
C52   N2    A    
C37   H18   S    
C13   C25   S    
O20   Zn2   S    
C26   N1    A    
C48   H48   S    
C38   H20   S    
C33   O7    S    
C4    O20   A    
C24   H45   S    
C40   H26   S    
C42   H32   S    
C1    O18   A    
C4    C6    S    
C18   O8    S    
C39   C40   S    
C42   H33   S    
C8    C9    A    
C9    N2    S    
C2    N2    A    
C20   H23   S    
C29   C45   A    
O22   Zn2   S    
C29   C30   A    
C3    C9    A    
C2    C49   A    
C17   N1    S    
C47   C48   S    
C46   H42   S    
C45   C49   A    
C19   H12   S    
C23   C34   A    
C41   H29   S    
C50   C51   A    
C40   H27   S    
O2    Zn1   S    
C34   C45   A    
C39   H24   S    
C16   O21   A    
C44   H39   S    
C25   O2    A    
C31   H3    S    
C3    H50   S    
N3    Zn1   S    
C26   C30   A    
C7    H52   S    
C37   H19   S    
C41   O10   S    
C15   O7    S    
C46   O15   S    
C32   H8    S    
C26   O4    S    
C44   H38   S    
C12   O5    S    
C22   O10   S    
C48   H47   S    
C46   C47   S    
C47   H43   S    
C4    O19   A    
C40   H25   S    
C42   H31   S    
C3    C5    A    
C36   H16   S    
C8    O15   S    
C6    C7    A    
C51   H49   S    
C48   H46   S    
C34   C52   A    
C43   H35   S    
C31   H5    S    
C11   C13   A    
C5    C6    A    
C46   H41   S    
C16   C19   S    
C41   H30   S    
C44   O14   S    
C33   C35   S    
C18   C20   S    
C10   H2    S    
O19   Zn1   S    
N4    Zn2   S    
C10   C11   A    
C25   O3    A    
C2    O17   S    
O3    Zn2   S    
C14   H1    S    
C20   C21   D    
C33   H9    S    
C49   C50   A    
C27   C28   A    
C35   H13   S    
C14   C15   A    
C35   H11   S    
C32   H7    S    
C32   O6    S    
C13   C14   A    
C31   O5    S    
O21   Zn1   S    
C38   H21   S    
