data_mof_unit_21336.cif
_audit_creation_date              2012-12-11T17:08:02-0500
_audit_creation_method            fapswitch 2.2
_symmetry_space_group_name_H-M    P1
_symmetry_Int_Tables_number       1
_space_group_crystal_system       triclinic
_cell_length_a                    17.13026
_cell_length_b                    17.130278
_cell_length_c                    17.243567
_cell_angle_alpha                 90.001234
_cell_angle_beta                  90.0012
_cell_angle_gamma                 90.000987
_cell_volume                      5060.05775931

loop_
_atom_site_label
_atom_site_type_symbol
_atom_type_description
_atom_site_fract_x
_atom_site_fract_y
_atom_site_fract_z
_atom_type_partial_charge
C1    C     C_R   0.423375 0.330411 0.855490 -0.147195
C2    C     C_R   0.169588 0.923383 0.355495 -0.147200
C3    C     C_R   0.680184 0.772969 0.351349 -0.203199
C4    C     C_R   0.227027 0.319818 0.648652 -0.203193
C5    C     C_R   0.226961 0.865367 0.801743 -0.199524
C6    C     C_R   0.772891 0.680211 0.648605 -0.203206
C7    C     C_R   0.773037 0.134632 0.801736 -0.199524
C8    C     C_R   0.727095 0.180209 0.851383 -0.203192
C9    C     C_R   0.726952 0.634635 0.698257 -0.199532
C10   C     C_R   0.272901 0.819790 0.851392 -0.203205
C11   C     C_R   0.272968 0.365396 0.698302 -0.199517
C12   C     C_R   0.634606 0.727028 0.301699 -0.199522
C13   C     C_R   0.106018 0.198356 0.399125 -0.157134
C14   C     C_R   0.819790 0.272905 0.148617 -0.203201
C15   C     C_R   0.365364 0.273045 0.301741 -0.199535
C16   C     C_R   0.180209 0.727095 0.148610 -0.203204
C17   C     C_R   0.830409 0.076616 0.355494 -0.147202
C18   C     C_R   0.923384 0.169590 0.644506 -0.147204
C19   C     C_R   0.198359 0.106029 0.600871 -0.157151
C20   C     C_R   0.076616 0.830412 0.644505 -0.147201
C21   C     C_R   0.801643 0.893982 0.600873 -0.157135
C22   C     C_3   0.896190 0.310916 0.751140 -0.522761
C23   C     C_3   0.652619 0.859423 0.694581 -0.525634
C24   C     C_3   0.103832 0.689085 0.751110 -0.522830
C25   C     C_R   0.698356 0.393982 0.899124 -0.157135
C26   C     C_3   0.347641 0.140683 0.694252 -0.525525
C27   C     C_3   0.859322 0.652379 0.305729 -0.525570
C28   C     C_3   0.689088 0.103816 0.248862 -0.522825
C29   C     C_3   0.140579 0.347381 0.305418 -0.525638
C30   C     C_3   0.310912 0.896174 0.248878 -0.522832
C31   C     C_3   0.359413 0.847403 0.194558 -0.525637
C32   C     C_3   0.189080 0.396154 0.251099 -0.522842
C33   C     C_3   0.640586 0.152591 0.194545 -0.525618
C34   C     C_3   0.810820 0.603610 0.251398 -0.522776
C35   C     C_3   0.396409 0.189186 0.748583 -0.522728
C36   C     C_R   0.576616 0.669588 0.855495 -0.147195
C37   C     C_3   0.152605 0.640583 0.805429 -0.525641
C38   C     C_3   0.603849 0.810922 0.748902 -0.522836
C39   C     C_3   0.847414 0.359419 0.805455 -0.525537
C40   C     C_R   0.392507 0.697999 0.897785 -0.140972
C41   C     C_R   0.328843 0.420341 0.855726 -0.126046
C42   C     C_R   0.607493 0.302001 0.897782 -0.140984
C43   C     C_R   0.671153 0.579662 0.855722 -0.126056
C44   C     C_R   0.420336 0.328846 0.144277 -0.126058
C45   C     C_R   0.302001 0.607493 0.102215 -0.140970
C46   C     C_R   0.579659 0.671157 0.144274 -0.126049
C47   C     C_R   0.301643 0.606019 0.899125 -0.157139
C48   C     C_R   0.697999 0.392508 0.102218 -0.140983
C49   C     C_R   0.920336 0.171155 0.355724 -0.126065
C50   C     C_R   0.801998 0.892509 0.397788 -0.140962
C51   C     C_R   0.079661 0.828844 0.355723 -0.126041
C52   C     C_R   0.197999 0.107495 0.397785 -0.140976
C53   C     C_R   0.892504 0.802001 0.602214 -0.140976
C54   C     C_R   0.828846 0.079663 0.644276 -0.126065
C55   C     C_R   0.107491 0.198001 0.602212 -0.140963
C56   C     C_R   0.171155 0.920338 0.644278 -0.126040
C57   C     C_R   0.362858 0.360997 0.811927 0.072715
C58   C     C_R   0.393981 0.698357 0.100874 -0.157141
C59   C     C_R   0.685518 0.316366 0.882750 0.083157
C60   C     C_R   0.637132 0.639011 0.811934 0.072670
C61   C     C_R   0.314481 0.683634 0.882752 0.083160
C62   C     C_R   0.316365 0.685519 0.117246 0.083161
C63   C     C_R   0.639003 0.637142 0.188072 0.072715
C64   C     C_R   0.683634 0.314482 0.117250 0.083156
C65   C     C_R   0.360988 0.362867 0.188065 0.072673
C66   C     C_R   0.816351 0.814480 0.382763 0.083198
C67   C     C_R   0.139010 0.862864 0.311934 0.072674
C68   C     C_R   0.183633 0.185519 0.382752 0.083155
C69   C     C_R   0.669589 0.576624 0.144510 -0.147194
C70   C     C_R   0.860987 0.137133 0.311934 0.072683
C71   C     C_R   0.862867 0.139012 0.688067 0.072684
C72   C     C_R   0.185520 0.183650 0.617239 0.083200
C73   C     C_R   0.137134 0.860990 0.688066 0.072672
C74   C     C_R   0.814479 0.816367 0.617245 0.083156
C75   C     C_R   0.820498 0.284532 0.841312 0.162751
C76   C     C_R   0.634556 0.739950 0.708120 0.166473
C77   C     C_R   0.179509 0.715463 0.841295 0.162774
C78   C     C_R   0.365499 0.260178 0.707963 0.166505
C79   C     C_R   0.739831 0.634512 0.292023 0.166522
C80   C     C_R   0.606018 0.301644 0.100876 -0.157135
C81   C     C_R   0.715468 0.179506 0.158692 0.162773
C82   C     C_R   0.260051 0.365443 0.291880 0.166479
C83   C     C_R   0.284533 0.820492 0.158699 0.162775
C84   C     C_R   0.239939 0.865447 0.208108 0.166479
C85   C     C_R   0.215458 0.320489 0.341288 0.162780
C86   C     C_R   0.760062 0.134549 0.208099 0.166483
C87   C     C_R   0.784424 0.679464 0.341440 0.162801
C88   C     C_R   0.320545 0.215584 0.658547 0.162790
C89   C     C_R   0.134554 0.760057 0.791886 0.166477
C90   C     C_R   0.679510 0.784543 0.658710 0.162782
C91   C     C_R   0.330411 0.423384 0.144504 -0.147197
C92   C     C_R   0.865456 0.239937 0.791905 0.166451
C93   C     C_R   0.745794 0.259457 0.862739 0.030904
C94   C     C_R   0.662946 0.668726 0.736670 0.032172
C95   C     C_R   0.254206 0.740541 0.862738 0.030917
C96   C     C_R   0.337044 0.331332 0.736635 0.032109
C97   C     C_R   0.668673 0.662958 0.263360 0.032113
C98   C     C_R   0.740543 0.254207 0.137262 0.030909
C99   C     C_R   0.331273 0.337053 0.263329 0.032171
C100  C     C_R   0.259457 0.745793 0.137260 0.030915
C101  C     C_R   0.168721 0.837049 0.236668 0.032170
C102  C     C_R   0.893971 0.801640 0.399130 -0.157149
C103  C     C_R   0.240539 0.245796 0.362736 0.030917
C104  C     C_R   0.831278 0.162946 0.236666 0.032161
C105  C     C_R   0.759411 0.754216 0.362776 0.030862
C106  C     C_R   0.245784 0.240593 0.637221 0.030859
C107  C     C_R   0.162948 0.831277 0.763332 0.032171
C108  C     C_R   0.754201 0.759461 0.637261 0.030915
C109  C     C_R   0.837056 0.168720 0.763336 0.032159
C110  C     C_R   0.134633 0.773034 0.198261 -0.199525
C111  C     C_R   0.319789 0.227106 0.351391 -0.203206
C112  C     C_R   0.865367 0.226964 0.198265 -0.199532
H1    H     H_    0.959952 0.318999 0.760182 0.192386
H2    H     H_    0.180989 0.459911 0.260123 0.192408
H3    H     H_    0.608319 0.199737 0.225211 0.199554
H4    H     H_    0.818777 0.539845 0.260531 0.192431
H5    H     H_    0.460177 0.181231 0.739446 0.192420
H6    H     H_    0.199757 0.608322 0.774769 0.199567
H7    H     H_    0.540091 0.819014 0.739881 0.192407
H8    H     H_    0.800265 0.391687 0.774785 0.199531
H9    H     H_    0.464864 0.286525 0.838554 0.111549
H10   H     H_    0.754186 0.421872 0.907840 0.100178
H11   H     H_    0.535132 0.713483 0.838564 0.111561
H12   H     H_    0.699778 0.891679 0.725236 0.199567
H13   H     H_    0.245813 0.578131 0.907840 0.100173
H14   H     H_    0.421868 0.754187 0.092159 0.100174
H15   H     H_    0.713477 0.535137 0.161446 0.111549
H16   H     H_    0.578128 0.245814 0.092160 0.100177
H17   H     H_    0.286517 0.464868 0.161435 0.111561
H18   H     H_    0.921856 0.745812 0.407854 0.100180
H19   H     H_    0.213482 0.964868 0.338565 0.111561
H20   H     H_    0.078130 0.254186 0.407838 0.100177
H21   H     H_    0.786515 0.035131 0.338562 0.111559
H22   H     H_    0.964871 0.213483 0.661439 0.111561
H23   H     H_    0.040074 0.680999 0.760139 0.192403
H24   H     H_    0.254187 0.078144 0.592147 0.100182
H25   H     H_    0.035131 0.786519 0.661435 0.111562
H26   H     H_    0.745814 0.921870 0.592160 0.100177
H27   H     H_    0.876078 0.316037 0.690017 0.200009
H28   H     H_    0.616939 0.895023 0.653969 0.189695
H29   H     H_    0.123948 0.683971 0.689994 0.200041
H30   H     H_    0.383331 0.105222 0.653511 0.189680
H31   H     H_    0.894788 0.616692 0.346463 0.189691
H32   H     H_    0.683967 0.123926 0.309982 0.200027
H33   H     H_    0.104979 0.383060 0.346031 0.189697
H34   H     H_    0.300594 0.108277 0.724939 0.199469
H35   H     H_    0.316031 0.876060 0.309995 0.200039
H36   H     H_    0.395003 0.883082 0.153937 0.189688
H37   H     H_    0.183971 0.376032 0.189984 0.200044
H38   H     H_    0.604997 0.116913 0.153918 0.189686
H39   H     H_    0.816075 0.623640 0.190259 0.199959
H40   H     H_    0.376381 0.183924 0.809724 0.199942
H41   H     H_    0.116927 0.604988 0.846047 0.189688
H42   H     H_    0.623975 0.816030 0.810016 0.200044
H43   H     H_    0.883095 0.395012 0.846085 0.189662
H44   H     H_    0.419977 0.754566 0.902680 0.083527
H45   H     H_    0.891719 0.699430 0.275045 0.199486
H46   H     H_    0.280618 0.457513 0.839579 0.093131
H47   H     H_    0.580023 0.245434 0.902676 0.083537
H48   H     H_    0.719384 0.542500 0.839568 0.093146
H49   H     H_    0.457498 0.280614 0.160429 0.093147
H50   H     H_    0.245434 0.580023 0.097319 0.083526
H51   H     H_    0.542488 0.719383 0.160420 0.093132
H52   H     H_    0.754566 0.419977 0.097323 0.083537
H53   H     H_    0.957500 0.219386 0.339573 0.093147
H54   H     H_    0.745436 0.919984 0.402694 0.083516
H55   H     H_    0.042497 0.780612 0.339570 0.093138
H56   H     H_    0.681007 0.040057 0.239823 0.192402
H57   H     H_    0.254567 0.080028 0.402679 0.083528
H58   H     H_    0.919971 0.745433 0.597319 0.083528
H59   H     H_    0.780615 0.042500 0.660427 0.093146
H60   H     H_    0.080016 0.254564 0.597305 0.083516
H61   H     H_    0.219387 0.957503 0.660431 0.093138
H62   H     H_    0.077083 0.752290 0.213815 0.126710
H63   H     H_    0.343983 0.172678 0.372108 0.124915
H64   H     H_    0.922916 0.247708 0.213823 0.126724
H65   H     H_    0.656018 0.827442 0.371988 0.124908
H66   H     H_    0.172552 0.343984 0.628016 0.124904
H67   H     H_    0.108323 0.300224 0.274760 0.199569
H68   H     H_    0.247701 0.922919 0.786193 0.126710
H69   H     H_    0.827318 0.656016 0.627887 0.124916
H70   H     H_    0.752292 0.077081 0.786178 0.126720
H71   H     H_    0.672658 0.156017 0.872086 0.124918
H72   H     H_    0.747689 0.577081 0.713804 0.126718
H73   H     H_    0.327333 0.843983 0.872107 0.124911
H74   H     H_    0.252178 0.422915 0.713918 0.126703
H75   H     H_    0.577085 0.747814 0.286087 0.126705
H76   H     H_    0.843982 0.327340 0.127912 0.124921
H77   H     H_    0.422917 0.252308 0.286193 0.126721
H78   H     H_    0.318993 0.959933 0.239848 0.192406
H79   H     H_    0.156017 0.672661 0.127900 0.124911
H80   H     H_    0.391680 0.800255 0.225218 0.199564
N1    N     N_R   0.425360 0.368540 0.922560 -0.041780
N2    N     N_R   0.131460 0.925360 0.422560 -0.041779
N3    N     N_R   0.074640 0.131460 0.422560 -0.035710
N4    N     N_R   0.868540 0.074640 0.422560 -0.041779
N5    N     N_R   0.925360 0.131460 0.577440 -0.041779
N6    N     N_R   0.131460 0.074640 0.577440 -0.035712
N7    N     N_R   0.074640 0.868540 0.577440 -0.041779
N8    N     N_R   0.868540 0.925360 0.577440 -0.035709
N9    N     N_R   0.425340 0.631500 0.922560 -0.036373
N10   N     N_R   0.368500 0.425340 0.922560 -0.041458
N11   N     N_R   0.574660 0.368500 0.922560 -0.036374
N12   N     N_R   0.631460 0.425360 0.922560 -0.035711
N13   N     N_R   0.631500 0.574660 0.922560 -0.041454
N14   N     N_R   0.425340 0.368500 0.077440 -0.041453
N15   N     N_R   0.368500 0.574660 0.077440 -0.036373
N16   N     N_R   0.574660 0.631500 0.077440 -0.041457
N17   N     N_R   0.631500 0.425340 0.077440 -0.036374
N18   N     N_R   0.925340 0.131500 0.422560 -0.041454
N19   N     N_R   0.868500 0.925340 0.422560 -0.036375
N20   N     N_R   0.074660 0.868500 0.422560 -0.041456
N21   N     N_R   0.131500 0.074660 0.422560 -0.036373
N22   N     N_R   0.925340 0.868500 0.577440 -0.036373
N23   N     N_R   0.574640 0.631460 0.922560 -0.041778
N24   N     N_R   0.868500 0.074660 0.577440 -0.041454
N25   N     N_R   0.074660 0.131500 0.577440 -0.036375
N26   N     N_R   0.131500 0.925340 0.577440 -0.041456
N27   N     N_R   0.368540 0.574640 0.922560 -0.035711
N28   N     N_R   0.425360 0.631460 0.077440 -0.035711
N29   N     N_R   0.631460 0.574640 0.077440 -0.041780
N30   N     N_R   0.574640 0.368540 0.077440 -0.035710
N31   N     N_R   0.368540 0.425360 0.077440 -0.041778
N32   N     N_R   0.925360 0.868540 0.422560 -0.035712
Ni1   Ni    Ni4+2 0.500000 0.369720 0.000000 0.207973
Ni2   Ni    Ni4+2 0.630280 0.500000 0.000000 0.207973
Ni3   Ni    Ni4+2 0.500000 0.630280 0.000000 0.207970
Ni4   Ni    Ni4+2 0.369720 0.500000 0.000000 0.207970
Ni5   Ni    Ni4+2 1.000000 0.869720 0.500000 0.207972
Ni6   Ni    Ni4+2 0.130280 0.000000 0.500000 0.207973
Ni7   Ni    Ni4+2 0.000000 0.130280 0.500000 0.207970
Ni8   Ni    Ni4+2 0.869720 0.000000 0.500000 0.207970

loop_
_geom_bond_atom_site_label_1
_geom_bond_atom_site_label_2
_ccdc_geom_bond_type
C11   C96   A    
C58   C62   A    
N11   N12   A    
C53   N22   A    
C84   C101  A    
C24   H23   S    
C43   N13   A    
C11   H74   S    
C82   C99   A    
N2    Ni6   S    
C51   H55   S    
C53   C74   A    
C68   C103  S    
C25   N12   A    
C86   C104  A    
C24   C89   S    
C6    C9    A    
C56   N26   A    
C42   N11   A    
C102  N32   A    
C7    C8    A    
C55   N25   A    
C38   C76   S    
C3    C105  A    
C14   C112  A    
C77   C89   A    
N15   N28   A    
N6    Ni6   S    
C111  H63   S    
C60   C94   S    
C29   C32   S    
C33   H38   S    
C36   N23   A    
C29   H33   S    
C30   C31   S    
C5    C107  A    
C70   C104  S    
C92   C109  A    
C73   C107  S    
C41   C57   A    
C81   C98   A    
C54   C71   A    
C34   H4    S    
C39   H8    S    
C71   C109  S    
C45   C62   A    
C10   H73   S    
C31   C83   S    
C103  C111  A    
C26   H34   S    
C66   C102  A    
N26   Ni6   S    
C3    C12   A    
C76   C94   A    
C33   C81   S    
C20   N7    A    
C58   N28   A    
C51   N20   A    
C22   H1    S    
C32   H37   S    
N4    Ni8   S    
C78   C96   A    
C57   C96   S    
C49   N18   A    
C50   H54   S    
N8    N22   A    
N18   Ni7   S    
C47   H13   S    
C28   H32   S    
C39   C75   S    
N27   Ni4   S    
C25   H10   S    
N14   N31   A    
C29   C85   S    
C81   C86   A    
C52   C68   A    
N9    Ni3   S    
N4    N18   A    
C64   C98   S    
C15   H77   S    
C17   C70   A    
C45   N15   A    
C3    H65   S    
C30   C84   S    
N17   N30   A    
C64   C80   A    
C44   C65   A    
N7    N26   A    
C21   H26   S    
N14   Ni1   S    
C79   C87   A    
C90   C108  A    
C14   C98   A    
N5    Ni7   S    
C27   C34   S    
C33   H3    S    
C2    H19   S    
N19   Ni8   S    
C37   H6    S    
C6    H69   S    
C16   C110  A    
C15   C111  A    
C23   H28   S    
C30   H35   S    
C36   H11   S    
C19   C72   A    
C65   C99   S    
C42   H47   S    
C43   H48   S    
C4    H66   S    
C104  C112  A    
C28   H56   S    
N31   Ni4   S    
C16   C100  A    
N10   Ni4   S    
C80   H16   S    
N30   Ni1   S    
N16   N29   A    
C20   C73   A    
C12   H75   S    
C47   N27   A    
C21   C74   A    
C77   C95   A    
N1    N10   A    
C7    C109  A    
N28   Ni3   S    
C39   H43   S    
C2    N2    A    
C20   H25   S    
C52   H57   S    
C54   N24   A    
C45   H50   S    
C5    H68   S    
C49   H53   S    
C16   H79   S    
C1    C57   A    
C34   C79   S    
C88   C106  A    
N15   Ni4   S    
C27   H31   S    
C83   C84   A    
C87   C105  A    
C24   H29   S    
C46   H51   S    
C89   C107  A    
C18   N5    A    
C44   N14   A    
C24   C37   S    
C23   C90   S    
N3    Ni7   S    
N13   Ni2   S    
C51   C67   A    
C40   N9    A    
C4    C11   A    
C27   C87   S    
C50   C66   A    
N9    N27   A    
C12   C97   A    
N5    N24   A    
C53   H58   S    
C41   N10   A    
C4    C106  A    
C62   C100  S    
C38   H7    S    
C43   C60   A    
C8    H71   S    
C26   C88   S    
C112  H64   S    
C72   C106  S    
C28   C33   S    
C2    C67   A    
C49   C70   A    
C28   C86   S    
C35   H5    S    
N6    N25   A    
C13   N3    A    
C44   H49   S    
C38   H42   S    
C66   C105  S    
C91   N31   A    
C82   C85   A    
C75   C92   A    
C55   H60   S    
N11   Ni1   S    
C31   H80   S    
C67   C101  S    
C80   N30   A    
C91   H17   S    
C46   N16   A    
C78   C88   A    
C18   C71   A    
C65   C91   A    
C19   N6    A    
C6    C108  A    
C56   C73   A    
C7    H70   S    
C22   C39   S    
C54   H59   S    
C79   C97   A    
C8    C93   A    
C55   C72   A    
C101  C110  A    
C15   C99   A    
C36   C60   A    
C31   H36   S    
C42   C59   A    
C85   C103  A    
C34   H39   S    
C61   C95   S    
C58   H14   S    
C23   H12   S    
C48   H52   S    
C27   H45   S    
C23   C38   S    
C32   C82   S    
C46   C63   A    
C35   C78   S    
N17   Ni2   S    
C56   H61   S    
C83   C100  A    
N13   N23   A    
C59   C93   S    
C37   H41   S    
C19   H24   S    
N1    Ni1   S    
C63   C69   A    
N16   Ni3   S    
C9    H72   S    
C26   H30   S    
C47   C61   A    
N25   Ni7   S    
C29   H67   S    
C17   H21   S    
N20   Ni5   S    
C110  H62   S    
C37   C77   S    
C10   C95   A    
C75   C93   A    
N19   N32   A    
C22   H27   S    
C52   N21   A    
N24   Ni8   S    
C13   H20   S    
C50   N19   A    
C18   H22   S    
C69   N29   A    
C30   H78   S    
N7    Ni5   S    
C1    H9    S    
N3    N21   A    
N2    N20   A    
C48   C64   A    
C40   C61   A    
C74   C108  S    
C41   H46   S    
N23   Ni3   S    
C26   C35   S    
C5    C10   A    
N8    Ni8   S    
C48   N17   A    
C69   H15   S    
C63   C97   S    
C35   H40   S    
C22   C92   S    
C1    N1    A    
C40   H44   S    
C17   N4    A    
C25   C59   A    
C21   N8    A    
C32   H2    S    
C14   H76   S    
N32   Ni5   S    
N22   Ni5   S    
N12   Ni2   S    
C9    C94   A    
N21   Ni6   S    
N29   Ni2   S    
C76   C90   A    
C13   C68   A    
C102  H18   S    
