data_mof_unit_27033.cif
_audit_creation_date              2013-03-05T16:29:46-0500
_audit_creation_method            fapswitch 2.2
_symmetry_space_group_name_H-M    P1
_symmetry_Int_Tables_number       1
_space_group_crystal_system       triclinic
_cell_length_a                    25.964628
_cell_length_b                    25.97827
_cell_length_c                    18.372321
_cell_angle_alpha                 90.025513
_cell_angle_beta                  134.95539
_cell_angle_gamma                 89.951474
_cell_volume                      8769.58550353

loop_
_atom_site_label
_atom_site_type_symbol
_atom_site_description
_atom_site_fract_x
_atom_site_fract_y
_atom_site_fract_z
_atom_type_partial_charge
Zn1   Zn    Zn3+2 0.663280 0.793400 0.413250 1.111138
Zn2   Zn    Zn3+2 0.663280 0.206600 0.413250 1.108358
Zn3   Zn    Zn3+2 0.163280 0.293400 0.413250 1.106924
Zn4   Zn    Zn3+2 0.163280 0.706600 0.413250 1.110570
Zn5   Zn    Zn3+2 0.836780 0.793410 0.586750 1.065209
Zn6   Zn    Zn3+2 0.836780 0.206590 0.586750 1.062013
Zn7   Zn    Zn3+2 0.336780 0.293410 0.586750 1.062172
Zn8   Zn    Zn3+2 0.336780 0.706590 0.586750 1.065382
Zn9   Zn    Zn3+2 0.750030 0.706650 0.586760 1.056968
Zn10  Zn    Zn3+2 0.750030 0.293350 0.586760 1.045310
Zn11  Zn    Zn3+2 0.250030 0.206650 0.586760 1.045630
Zn12  Zn    Zn3+2 0.250030 0.793350 0.586760 1.042642
Zn13  Zn    Zn3+2 0.750010 0.706640 0.413230 1.012077
Zn14  Zn    Zn3+2 0.750010 0.293360 0.413230 1.010859
Zn15  Zn    Zn3+2 0.250010 0.206640 0.413230 1.010812
Zn16  Zn    Zn3+2 0.250010 0.793360 0.413230 1.039481
O1    O     O_3   0.750030 0.750030 0.500000 -0.543020
O2    O     O_3   0.750030 0.249970 0.500000 -0.542935
O3    O     O_3   0.250030 0.250030 0.500000 -0.543236
O4    O     O_3   0.250030 0.749970 0.500000 -0.547705
O5    O     O_R   0.835440 0.719660 0.439260 -0.632482
O6    O     O_R   0.835440 0.280340 0.439260 -0.626067
O7    O     O_R   0.335440 0.219660 0.439260 -0.626106
O8    O     O_R   0.335440 0.780340 0.439260 -0.613264
O9    O     O_R   0.603880 0.780390 0.439300 -0.605323
O10   O     O_R   0.603880 0.219610 0.439300 -0.604182
O11   O     O_R   0.103880 0.280390 0.439300 -0.604385
O12   O     O_R   0.103880 0.719610 0.439300 -0.604240
O13   O     O_R   0.810750 0.865830 0.560720 -0.609836
O14   O     O_R   0.810750 0.134170 0.560720 -0.594515
O15   O     O_R   0.310750 0.365830 0.560720 -0.594676
O16   O     O_R   0.310750 0.634170 0.560720 -0.599856
O17   O     O_R   0.750030 0.634230 0.560720 -0.627475
O18   O     O_R   0.750030 0.365770 0.560720 -0.634205
O19   O     O_R   0.250030 0.134230 0.560720 -0.634363
O20   O     O_R   0.250030 0.865770 0.560720 -0.646728
O21   O     O_R   0.896190 0.780400 0.731600 -0.639477
O22   O     O_R   0.896190 0.219600 0.731600 -0.618815
O23   O     O_R   0.396190 0.280400 0.731600 -0.617264
O24   O     O_R   0.396190 0.719600 0.731600 -0.613051
O25   O     O_R   0.664570 0.719650 0.268390 -0.664135
O26   O     O_R   0.664570 0.280350 0.268390 -0.653523
O27   O     O_R   0.164570 0.219650 0.268390 -0.651866
O28   O     O_R   0.164570 0.780350 0.268390 -0.620726
O29   O     O_R   0.835480 0.719680 0.731610 -0.592444
O30   O     O_R   0.835480 0.280320 0.731610 -0.599495
O31   O     O_R   0.335480 0.219680 0.731610 -0.599867
O32   O     O_R   0.335480 0.780320 0.731610 -0.600896
O33   O     O_R   0.603860 0.780380 0.268400 -0.580638
O34   O     O_R   0.603860 0.219620 0.268400 -0.583193
O35   O     O_R   0.103860 0.280380 0.268400 -0.583620
O36   O     O_R   0.103860 0.719620 0.268400 -0.570131
O37   O     O_R   0.689310 0.865830 0.439290 -0.622085
O38   O     O_R   0.689310 0.134170 0.439290 -0.623893
O39   O     O_R   0.189310 0.365830 0.439290 -0.625716
O40   O     O_R   0.189310 0.634170 0.439290 -0.620671
O41   O     O_R   0.750020 0.634220 0.439270 -0.616993
O42   O     O_R   0.750020 0.365780 0.439270 -0.620565
O43   O     O_R   0.250020 0.134220 0.439270 -0.620870
O44   O     O_R   0.250020 0.865780 0.439270 -0.612186
O45   O     O_R   0.896170 0.780390 0.560700 -0.595494
O46   O     O_R   0.896170 0.219610 0.560700 -0.603643
O47   O     O_R   0.396170 0.280390 0.560700 -0.602876
O48   O     O_R   0.396170 0.719610 0.560700 -0.616338
O49   O     O_R   0.664610 0.719670 0.560740 -0.620315
O50   O     O_R   0.664610 0.280330 0.560740 -0.611985
O51   O     O_R   0.164610 0.219670 0.560740 -0.611225
O52   O     O_R   0.164610 0.780330 0.560740 -0.607332
C1    C     C_R   0.890986 0.749257 0.501853 0.867415
C2    C     C_R   0.891009 0.250754 0.501965 0.860331
C3    C     C_R   0.391020 0.249204 0.501995 0.857128
C4    C     C_R   0.389571 0.749466 0.499127 0.860651
C5    C     C_R   0.609541 0.749383 0.498829 0.899539
C6    C     C_R   0.610900 0.249175 0.501873 0.854797
C7    C     C_R   0.110891 0.250839 0.501856 0.855426
C8    C     C_R   0.110978 0.749221 0.501961 0.867755
C9    C     C_R   0.749904 0.889865 0.499525 0.861517
C10   C     C_R   0.750057 0.110088 0.500254 0.864553
C11   C     C_R   0.249956 0.389888 0.500642 0.864910
C12   C     C_R   0.249936 0.610102 0.499719 0.870453
C13   C     C_R   0.749819 0.610007 0.499771 0.840895
C14   C     C_R   0.749809 0.389992 0.499785 0.828370
C15   C     C_R   0.249803 0.110184 0.499856 0.824984
C16   C     C_R   0.250120 0.889872 0.500145 0.814470
C17   C     C_R   0.890703 0.749153 0.779892 0.868546
C18   C     C_R   0.889927 0.250239 0.780015 0.849270
C19   C     C_R   0.389941 0.249716 0.779991 0.850090
C20   C     C_R   0.389277 0.749193 0.780022 0.877028
C21   C     C_R   0.609385 0.749466 0.219919 0.900649
C22   C     C_R   0.611056 0.248674 0.220191 0.914750
C23   C     C_R   0.111042 0.251307 0.220161 0.915025
C24   C     C_R   0.110553 0.749417 0.219925 0.860224
C25   C     C_R   0.564399 0.727478 0.052724 -0.078201
C26   C     C_R   0.556059 0.282813 0.053288 -0.081856
C27   C     C_R   0.055423 0.216492 0.053304 -0.081183
C28   C     C_R   0.052151 0.786250 0.052227 0.010975
C29   C     C_R   0.549952 0.745457 0.108316 -0.179851
C30   C     C_R   0.555134 0.246768 0.108505 -0.167882
C31   C     C_R   0.055096 0.253104 0.108471 -0.167304
C32   C     C_R   0.058817 0.745686 0.108322 -0.241307
C33   C     C_R   0.476775 0.756367 0.054453 0.206389
C34   C     C_R   0.495754 0.211984 0.053934 0.209572
C35   C     C_R   0.996181 0.288349 0.053895 0.209947
C36   C     C_R   0.017650 0.700298 0.054430 0.222307
C37   C     C_R   0.422019 0.755712 0.945527 0.218158
C38   C     C_R   0.439186 0.214592 0.946400 0.206735
C39   C     C_R   0.939608 0.285798 0.946376 0.207005
C40   C     C_R   0.963807 0.699824 0.945561 0.198541
C41   C     C_R   0.441172 0.744719 0.891482 -0.193351
C42   C     C_R   0.443686 0.249649 0.891795 -0.219299
C43   C     C_R   0.943568 0.250176 0.891805 -0.219634
C44   C     C_R   0.950229 0.745197 0.891248 -0.186589
C45   C     C_R   0.511134 0.726941 0.946701 0.035113
C46   C     C_R   0.501244 0.284475 0.947380 0.017131
C47   C     C_R   0.000446 0.214678 0.947396 0.014256
C48   C     C_R   0.997747 0.786371 0.946720 -0.008424
C49   C     C_3   0.562791 0.740741 0.938210 -0.145612
C50   C     C_3   0.551725 0.298598 0.936969 -0.136416
C51   C     C_3   0.050596 0.199323 0.936898 -0.134275
C52   C     C_3   0.986444 0.843350 0.938050 -0.127933
C53   C     C_3   0.622603 0.741507 0.056679 0.313758
C54   C     C_3   0.613452 0.297086 0.055057 0.322801
C55   C     C_3   0.112507 0.201195 0.054930 0.321968
C56   C     C_3   0.048284 0.844079 0.056209 0.338775
H1    H     H_    0.550482 0.778767 0.900923 0.190730
H2    H     H_    0.554808 0.268340 0.897226 0.188777
H3    H     H_    0.053940 0.228960 0.896617 0.189291
H4    H     H_    0.998930 0.862517 0.897854 0.249474
C57   C     C_R   0.503155 0.787502 0.453563 -0.029979
C58   C     C_R   0.496650 0.215621 0.440784 -0.057933
C59   C     C_R   0.996582 0.284368 0.440740 -0.060604
C60   C     C_R   0.998632 0.714157 0.444262 -0.055244
C61   C     C_R   0.550624 0.746158 0.492397 -0.045495
C62   C     C_R   0.560320 0.244404 0.512248 -0.058643
C63   C     C_R   0.060301 0.255594 0.512215 -0.058777
C64   C     C_R   0.060672 0.744689 0.512759 -0.059577
C65   C     C_R   0.537358 0.700778 0.519599 0.039615
C66   C     C_R   0.575905 0.265645 0.597299 0.035807
C67   C     C_R   0.075881 0.234258 0.597192 0.036448
C68   C     C_R   0.074867 0.768202 0.595232 0.044617
C69   C     C_R   0.483015 0.700894 0.520134 0.008332
C70   C     C_R   0.521433 0.265682 0.597539 0.048668
C71   C     C_R   0.021382 0.234144 0.597364 0.049182
C72   C     C_R   0.020314 0.768221 0.595189 0.035776
C73   C     C_R   0.441924 0.746098 0.492226 -0.058049
C74   C     C_R   0.452064 0.244423 0.512790 -0.047750
C75   C     C_R   0.952012 0.255473 0.512680 -0.046901
C76   C     C_R   0.952180 0.744580 0.512844 -0.047313
C77   C     C_R   0.449589 0.787223 0.451982 0.032436
C78   C     C_R   0.443964 0.215807 0.441252 -0.033431
C79   C     C_R   0.943880 0.284151 0.441179 -0.035191
C80   C     C_R   0.945954 0.713879 0.444744 -0.012571
C81   C     C_3   0.451964 0.844504 0.464827 -0.241475
C82   C     C_3   0.382312 0.211321 0.326951 -0.184783
C83   C     C_3   0.882267 0.288626 0.326845 -0.183586
C84   C     C_3   0.885110 0.705655 0.330979 -0.222426
C85   C     C_3   0.511693 0.845106 0.465185 0.438915
C86   C     C_3   0.440925 0.211229 0.325267 0.455210
C87   C     C_3   0.940913 0.288757 0.325233 0.456760
C88   C     C_3   0.943850 0.706693 0.329565 0.461771
H5    H     H_    0.400016 0.863573 0.397549 0.231796
H6    H     H_    0.345666 0.245427 0.290949 0.241830
H7    H     H_    0.845725 0.254505 0.290866 0.242813
H8    H     H_    0.845628 0.738086 0.290384 0.235665
C89   C     C_R   0.744087 0.526542 0.428869 0.032989
C90   C     C_R   0.744096 0.473400 0.428908 0.035484
C91   C     C_R   0.259894 0.026284 0.447851 0.029401
C92   C     C_R   0.260630 0.974096 0.448582 0.024474
C93   C     C_R   0.744371 0.554226 0.494357 -0.086004
C94   C     C_R   0.744360 0.445777 0.494385 -0.085433
C95   C     C_R   0.247973 0.054649 0.498711 -0.077852
C96   C     C_R   0.248605 0.945517 0.499261 -0.075188
C97   C     C_R   0.735657 0.526959 0.551285 -0.165273
C98   C     C_R   0.735653 0.473112 0.551299 -0.168085
C99   C     C_R   0.234496 0.027118 0.550129 -0.161603
C100  C     C_R   0.234696 0.972996 0.550257 -0.172236
H9    H     H_    0.731758 0.546998 0.598952 0.204589
H10   H     H_    0.731758 0.453123 0.598979 0.206434
H11   H     H_    0.224125 0.047137 0.590445 0.203596
H12   H     H_    0.224318 0.952936 0.590499 0.199080
C101  C     C_3   0.789687 0.469820 0.406468 0.120302
C102  C     C_3   0.789681 0.529961 0.406415 0.119182
C103  C     C_3   0.282810 0.970355 0.392323 0.097965
C104  C     C_3   0.281548 0.030946 0.391092 0.116649
C105  C     C_R   0.812071 0.973712 0.550518 -0.070501
C106  C     C_R   0.812772 0.025798 0.553439 -0.038669
C107  C     C_R   0.313138 0.473955 0.562738 -0.056089
C108  C     C_R   0.312817 0.525971 0.559934 -0.058713
C109  C     C_R   0.749044 0.945414 0.498399 -0.026541
C110  C     C_R   0.749599 0.054453 0.500551 -0.021293
C111  C     C_R   0.249272 0.445471 0.502208 -0.019653
C112  C     C_R   0.249067 0.554498 0.499973 -0.015964
C113  C     C_R   0.683801 0.973015 0.444430 -0.118089
C114  C     C_R   0.684023 0.027066 0.445200 -0.138607
C115  C     C_R   0.183079 0.472983 0.440463 -0.141613
C116  C     C_R   0.183004 0.527055 0.439750 -0.131734
H13   H     H_    0.632760 0.953125 0.401826 0.227220
H14   H     H_    0.633039 0.047145 0.402782 0.216330
H15   H     H_    0.131474 0.453006 0.392337 0.216772
H16   H     H_    0.131386 0.547070 0.391635 0.218107
C117  C     C_3   0.893261 0.029110 0.618806 0.343804
C118  C     C_3   0.891906 0.968998 0.614557 0.346058
C119  C     C_3   0.393636 0.530124 0.629966 0.358161
C120  C     C_3   0.394433 0.470161 0.635403 0.355287
N1    N     N_R   0.457399 0.766143 0.109412 0.246327
O53   O     O_R   0.441036 0.812604 0.113836 -0.238092
O54   O     O_R   0.465420 0.730157 0.165989 -0.373324
N2    N     N_R   0.494757 0.171003 0.105320 0.259817
O55   O     O_R   0.542376 0.134034 0.148293 -0.303835
O56   O     O_R   0.439833 0.166075 0.094524 -0.217215
N3    N     N_R   0.995749 0.329730 0.105280 0.259746
O57   O     O_R   0.043954 0.366238 0.148445 -0.303801
O58   O     O_R   0.941033 0.335324 0.094815 -0.217259
N4    N     N_R   0.032004 0.654219 0.109163 0.251725
O59   O     O_R   0.093770 0.630381 0.162772 -0.347867
O60   O     O_R   0.987307 0.639560 0.115347 -0.232445
N5    N     N_R   0.582948 0.863897 0.561886 0.193672
O61   O     O_R   0.593056 0.913083 0.580775 -0.344497
O62   O     O_R   0.634586 0.832331 0.632443 -0.422355
N6    N     N_R   0.445915 0.162936 0.288797 0.220393
O63   O     O_R   0.393078 0.149559 0.192876 -0.277998
O64   O     O_R   0.502680 0.133174 0.351007 -0.353691
N7    N     N_R   0.945812 0.337063 0.288764 0.219449
O65   O     O_R   0.893141 0.350314 0.192708 -0.281087
O66   O     O_R   0.002421 0.366896 0.351049 -0.359663
N8    N     N_R   0.952755 0.658007 0.298516 0.217599
O67   O     O_R   0.903674 0.643760 0.202594 -0.297951
O68   O     O_R   0.009898 0.629154 0.365310 -0.365668
N9    N     N_R   0.488486 0.869521 0.373686 0.218727
O69   O     O_R   0.425086 0.859042 0.282395 -0.310995
O70   O     O_R   0.533378 0.898167 0.381707 -0.319864
N10   N     N_R   0.438407 0.256965 0.275712 0.199105
O71   O     O_R   0.432022 0.302742 0.297536 -0.378994
O72   O     O_R   0.446454 0.252581 0.213648 -0.299437
N11   N     N_R   0.938563 0.243038 0.275749 0.199417
O73   O     O_R   0.932292 0.197245 0.297585 -0.372943
O74   O     O_R   0.946594 0.247460 0.213676 -0.299193
N12   N     N_R   0.938371 0.751571 0.275609 0.192333
O75   O     O_R   0.927949 0.797427 0.291914 -0.369568
O76   O     O_R   0.948096 0.746527 0.215505 -0.311820
N13   N     N_3   0.750363 0.444735 0.307400 -0.403575
H17   H     H_    0.775428 0.454380 0.283229 0.192411
H18   H     H_    0.696107 0.456790 0.251184 0.180902
N14   N     N_3   0.750361 0.554968 0.307286 -0.392615
H19   H     H_    0.775503 0.545226 0.283246 0.189699
H20   H     H_    0.696152 0.542866 0.251087 0.186135
N15   N     N_3   0.227741 0.944759 0.292567 -0.335222
H21   H     H_    0.236331 0.955036 0.246838 0.239721
H22   H     H_    0.175357 0.956368 0.255270 0.203604
N16   N     N_3   0.224982 0.055587 0.290299 -0.406130
H23   H     H_    0.233864 0.046227 0.244556 0.201490
H24   H     H_    0.173165 0.042635 0.253224 0.185250
N17   N     N_3   0.860271 0.444777 0.489447 -0.410791
H25   H     H_    0.883791 0.457122 0.561703 0.178902
H26   H     H_    0.895332 0.454293 0.481749 0.190144
N18   N     N_3   0.860257 0.554963 0.489335 -0.405907
H27   H     H_    0.883783 0.542680 0.561621 0.184260
H28   H     H_    0.895324 0.545349 0.481659 0.189223
N19   N     N_3   0.354270 0.946098 0.454635 -0.403661
H29   H     H_    0.390611 0.958530 0.531019 0.178858
H30   H     H_    0.375193 0.956508 0.424731 0.194683
N20   N     N_3   0.351909 0.056820 0.452224 -0.402697
H31   H     H_    0.389200 0.044787 0.528925 0.179903
H32   H     H_    0.372804 0.047479 0.421848 0.194016
N21   N     N_R   0.935623 0.050283 0.721819 0.230257
O77   O     O_R   0.006030 0.044939 0.792726 -0.312744
O78   O     O_R   0.903641 0.071875 0.745281 -0.369418
N22   N     N_R   0.931521 0.942808 0.713086 0.227902
O79   O     O_R   0.981729 0.909053 0.748328 -0.315186
O80   O     O_R   0.913794 0.950579 0.763138 -0.379785
N23   N     N_R   0.431001 0.556727 0.727256 0.226745
O81   O     O_R   0.500592 0.565514 0.792833 -0.304667
O82   O     O_R   0.395878 0.570693 0.750510 -0.365496
N24   N     N_R   0.431389 0.449862 0.737010 0.217665
O83   O     O_R   0.501349 0.455714 0.813816 -0.325580
O84   O     O_R   0.395120 0.427020 0.752360 -0.385063
N25   N     N_R   0.910730 0.054253 0.566749 0.220467
O85   O     O_R   0.859799 0.073795 0.475087 -0.348455
O86   O     O_R   0.978196 0.058433 0.613462 -0.287420
N26   N     N_R   0.907766 0.947243 0.558158 0.229742
O87   O     O_R   0.856913 0.925523 0.468775 -0.343708
O88   O     O_R   0.973959 0.948042 0.599109 -0.276647
N27   N     N_R   0.413879 0.550534 0.578500 0.215469
O89   O     O_R   0.364714 0.568485 0.485118 -0.381611
O90   O     O_R   0.481142 0.547702 0.623902 -0.321410
N28   N     N_R   0.417434 0.443986 0.591217 0.228397
O91   O     O_R   0.369960 0.428523 0.495961 -0.348083
O92   O     O_R   0.486310 0.436791 0.647040 -0.294366
N29   N     N_R   0.347350 0.763846 0.890844 0.236272
O93   O     O_R   0.298692 0.729142 0.826862 -0.389265
O94   O     O_R   0.327341 0.806385 0.902414 -0.300756
N30   N     N_R   0.380463 0.178568 0.893879 0.259799
O95   O     O_R   0.319789 0.192530 0.864007 -0.325906
O96   O     O_R   0.390470 0.130560 0.886332 -0.309055
N31   N     N_R   0.881544 0.322475 0.893822 0.259130
O97   O     O_R   0.820697 0.309492 0.864225 -0.324411
O98   O     O_R   0.892384 0.370168 0.886046 -0.305453
N32   N     N_R   0.925391 0.653039 0.891428 0.243985
O99   O     O_R   0.886537 0.630634 0.902576 -0.275830
O100  O     O_R   0.928185 0.633189 0.829239 -0.371898
N33   N     N_3   0.568797 0.699797 0.889545 -0.388053
H33   H     H_    0.618093 0.704336 0.911103 0.232130
H34   H     H_    0.568538 0.663406 0.913600 0.248841
N34   N     N_3   0.535337 0.349392 0.890396 -0.337662
H35   H     H_    0.581131 0.362164 0.907611 0.249359
H36   H     H_    0.524468 0.375731 0.921201 0.257319
N35   N     N_3   0.033629 0.148203 0.891056 -0.334902
H37   H     H_    0.079191 0.134887 0.908110 0.252434
H38   H     H_    0.022684 0.122287 0.922260 0.252559
N36   N     N_3   0.915404 0.857372 0.897141 -0.414216
H39   H     H_    0.876550 0.852390 0.817410 0.220060
H40   H     H_    0.916462 0.896870 0.909084 0.263907
N37   N     N_R   0.653263 0.793198 0.098711 0.218239
O101  O     O_R   0.722835 0.801152 0.161236 -0.339960
O102  O     O_R   0.610773 0.832236 0.069543 -0.364643
N38   N     N_R   0.667090 0.256969 0.090955 0.215710
O103  O     O_R   0.708827 0.262844 0.076045 -0.358921
O104  O     O_R   0.673645 0.215445 0.136517 -0.370654
N39   N     N_R   0.166416 0.240813 0.090001 0.215362
O105  O     O_R   0.207608 0.234195 0.074295 -0.360354
O106  O     O_R   0.173821 0.282582 0.135767 -0.373238
N40   N     N_R   0.112695 0.870860 0.092878 0.221313
O107  O     O_R   0.175147 0.847439 0.150187 -0.329550
O108  O     O_R   0.107288 0.918539 0.066486 -0.364440
N41   N     N_3   0.678945 0.701620 0.105432 -0.433645
H41   H     H_    0.655812 0.665006 0.087124 0.181082
H42   H     H_    0.714374 0.704852 0.185053 0.235645
N42   N     N_3   0.648391 0.346890 0.104690 -0.445711
H43   H     H_    0.612529 0.371302 0.096586 0.177122
H44   H     H_    0.691853 0.340642 0.183697 0.237167
N43   N     N_3   0.147061 0.151389 0.105163 -0.444034
H45   H     H_    0.111182 0.127594 0.097982 0.180115
H46   H     H_    0.190956 0.157841 0.183988 0.238578
N44   N     N_3   0.027138 0.862255 0.107802 -0.424715
H47   H     H_    0.988151 0.837553 0.091268 0.211049
H48   H     H_    0.072763 0.860538 0.187261 0.189283
N45   N     N_3   0.579242 0.655168 0.547311 -0.411834
H49   H     H_    0.543990 0.625557 0.496718 0.203326
H50   H     H_    0.606364 0.644420 0.622020 0.223188
N46   N     N_3   0.645954 0.287820 0.681807 -0.369131
H51   H     H_    0.639213 0.326556 0.688886 0.231491
H52   H     H_    0.669698 0.268442 0.749335 0.220791
N47   N     N_3   0.145960 0.212059 0.681703 -0.368098
H53   H     H_    0.139288 0.173304 0.688692 0.232908
H54   H     H_    0.169621 0.231380 0.749246 0.221042
N48   N     N_3   0.143395 0.792972 0.677123 -0.353793
H55   H     H_    0.134217 0.831890 0.679083 0.220987
H56   H     H_    0.167957 0.775843 0.746857 0.243212
N49   N     N_3   0.469998 0.655612 0.549576 -0.355624
H57   H     H_    0.456557 0.625580 0.500821 0.251218
H58   H     H_    0.517797 0.646125 0.625062 0.236636
N50   N     N_3   0.535967 0.287998 0.682093 -0.402030
H59   H     H_    0.549609 0.326743 0.688927 0.241733
H60   H     H_    0.579829 0.268711 0.749726 0.192905
N51   N     N_3   0.035882 0.211657 0.681764 -0.403060
H61   H     H_    0.049496 0.172906 0.688360 0.240701
H62   H     H_    0.079738 0.230836 0.749525 0.193039
N52   N     N_3   0.033495 0.793084 0.676936 -0.380717
H63   H     H_    0.044798 0.831968 0.679090 0.249328
H64   H     H_    0.078361 0.775820 0.746763 0.201778
N53   N     N_3   0.476283 0.858606 0.562550 -0.436343
H65   H     H_    0.489988 0.897623 0.576126 0.237872
H66   H     H_    0.522844 0.837787 0.623571 0.235659
N54   N     N_3   0.342797 0.162832 0.297642 -0.395459
H67   H     H_    0.307626 0.157803 0.218425 0.262669
H68   H     H_    0.378674 0.131546 0.334937 0.226229
N55   N     N_3   0.842598 0.337098 0.297377 -0.398356
H69   H     H_    0.807648 0.342176 0.218211 0.260366
H70   H     H_    0.878389 0.368392 0.334911 0.224736
N56   N     N_3   0.849819 0.655720 0.307450 -0.409454
H71   H     H_    0.816818 0.647830 0.229552 0.237509
H72   H     H_    0.888489 0.626270 0.350271 0.231393

loop_
_geom_bond_atom_site_label_1
_geom_bond_atom_site_label_2
_geom_bond_distance
_ccdc_geom_bond_type
N40   O108  1.301185 A    
C61   C65   1.415155 A    
Zn5   O21   1.942886 S    
C70   C74   1.418248 A    
C31   C35   1.419417 A    
N7    O65   1.300932 A    
O23   C19   1.287189 A    
C64   C68   1.419597 A    
N45   H49   1.044893 S    
N33   H33   1.045401 S    
C63   C67   1.419949 A    
C120  N28   1.470379 S    
Zn8   O4    1.951400 S    
C25   C53   1.505909 S    
C82   C86   1.543889 S    
O42   C14   1.280523 A    
C27   C31   1.394008 A    
N16   H24   1.045383 S    
N23   O81   1.301052 A    
C32   C36   1.420794 A    
N14   H19   1.045155 S    
O46   C2    1.277991 A    
N24   O83   1.300788 A    
C77   C81   1.501040 S    
C54   N42   1.469827 S    
C74   C78   1.390357 A    
C59   C79   1.374111 A    
O34   C22   1.274263 A    
C80   C84   1.498046 S    
C65   N45   1.435887 S    
C15   C95   1.443188 S    
C104  N20   1.467210 S    
Zn3   O3    1.951251 S    
C13   C93   1.452611 S    
Zn16  O28   1.942989 S    
O28   C24   1.281487 A    
C69   C73   1.416191 A    
C39   C43   1.420148 A    
N1    O54   1.300930 A    
C81   N53   1.467703 S    
C11   C111  1.444557 S    
Zn4   O40   1.941092 S    
C12   C112  1.444739 S    
C58   C62   1.396398 A    
C117  N21   1.467208 S    
O11   C7    1.283849 A    
C68   N48   1.435881 S    
C89   C93   1.396994 A    
N12   O76   1.301587 A    
C55   N39   1.470061 S    
N46   H51   1.044963 S    
C91   C95   1.385518 A    
C30   C34   1.419876 A    
C107  C120  1.505018 S    
C67   N47   1.435585 S    
N38   O103  1.300964 A    
C105  C118  1.499810 S    
C106  C110  1.391077 A    
C103  C104  1.574187 S    
N9    O69   1.302228 A    
O16   C12   1.280851 A    
C99   C100  1.405982 A    
Zn16  O4    1.952529 S    
N50   H59   1.044967 S    
Zn12  O4    1.951709 S    
N10   O72   1.301258 A    
C83   N55   1.466297 S    
Zn2   O10   1.940110 S    
C57   C61   1.391943 A    
C20   C41   1.457161 S    
C26   C54   1.513836 S    
Zn6   O14   1.941539 S    
O47   C3    1.277926 A    
Zn7   O3    1.952783 S    
C60   C80   1.374052 A    
N32   O99   1.300582 A    
C94   C98   1.407785 A    
O43   C15   1.279996 A    
N19   H30   1.045095 S    
N20   H32   1.045073 S    
C51   C55   1.537198 S    
C83   H7    1.112442 S    
O24   C20   1.280412 A    
Zn11  O19   1.941018 S    
N28   O92   1.301057 A    
Zn10  O2    1.951709 S    
C81   H5    1.111751 S    
C6    C62   1.459612 S    
N30   O96   1.300885 A    
C7    C63   1.459393 S    
Zn9   O49   1.939744 S    
C115  C116  1.404753 A    
Zn4   O4    1.952634 S    
Zn5   O1    1.952783 S    
C113  C114  1.404197 A    
Zn7   O23   1.942886 S    
C28   C48   1.372404 A    
C35   C39   1.401389 A    
Zn8   O24   1.942928 S    
N35   H38   1.045748 S    
C118  N22   1.471904 S    
O25   C21   1.281267 A    
N39   O106  1.300930 A    
N49   H57   1.044474 S    
C17   C44   1.454838 S    
C53   N41   1.470615 S    
N56   H71   1.044793 S    
N37   O101  1.301349 A    
C85   N9    1.469776 S    
N31   O98   1.300880 A    
C19   C42   1.454664 S    
Zn12  O52   1.940325 S    
C51   N35   1.463799 S    
O22   C18   1.286364 A    
N17   H25   1.045178 S    
N4    O60   1.300735 A    
N37   O102  1.302283 A    
Zn13  O41   1.941384 S    
C4    C73   1.454250 S    
O50   C6    1.280371 A    
N54   H67   1.044551 S    
N13   H17   1.045118 S    
Zn16  O44   1.940971 S    
N41   H42   1.044791 S    
Zn1   O37   1.941788 S    
Zn2   O34   1.942887 S    
Zn3   O39   1.941788 S    
N18   H28   1.045123 S    
C58   C78   1.374069 A    
Zn6   O22   1.942928 S    
C42   C46   1.392712 A    
C117  N25   1.470081 S    
N34   H36   1.045545 S    
C120  N24   1.467094 S    
N25   O85   1.301978 A    
N6    O63   1.300906 A    
C101  N13   1.467632 S    
C115  H15   1.083070 S    
Zn10  O50   1.940325 S    
C83   C87   1.543784 S    
C84   C88   1.543880 S    
N26   O87   1.301894 A    
C35   N3    1.435616 S    
N44   H47   1.046520 S    
C56   N44   1.468841 S    
N5    O61   1.301355 A    
C48   C52   1.495318 S    
O5    C1    1.284934 A    
O26   C22   1.286280 A    
O31   C19   1.274192 A    
C75   C79   1.390661 A    
C57   C77   1.370483 A    
C38   N30   1.433269 S    
N48   H56   1.044790 S    
C91   C104  1.498974 S    
C60   C64   1.394390 A    
C92   C103  1.500137 S    
N29   O93   1.301172 A    
Zn5   O45   1.939903 S    
N52   H64   1.044887 S    
N21   O78   1.301856 A    
Zn7   O47   1.939903 S    
C119  N23   1.470827 S    
Zn8   O48   1.940433 S    
C45   C49   1.499481 S    
N51   H62   1.044946 S    
C90   C94   1.396881 A    
C47   C51   1.498607 S    
N47   H54   1.044943 S    
O51   C7    1.279851 A    
N49   H58   1.044954 S    
C25   C29   1.393798 A    
C44   C48   1.389029 A    
O8    C4    1.281724 A    
C82   N54   1.466365 S    
C37   C41   1.418466 A    
C59   C87   1.506998 S    
C87   N11   1.470259 S    
C82   H6    1.112482 S    
C76   C80   1.393237 A    
C69   N49   1.431843 S    
N42   H43   1.046214 S    
C16   C96   1.445844 S    
N7    O66   1.301853 A    
C105  C109  1.386503 A    
N20   H31   1.045363 S    
O52   C8    1.278496 A    
Zn1   O1    1.951251 S    
C79   C83   1.495464 S    
O40   C12   1.277017 A    
Zn13  O1    1.951710 S    
C108  C112  1.387275 A    
C9    C109  1.443155 S    
Zn14  O6    1.939894 S    
Zn3   O11   1.940639 S    
C18   C43   1.454580 S    
Zn15  O27   1.942748 S    
N31   O97   1.300836 A    
C114  H14   1.083120 S    
C34   N2    1.435559 S    
C28   C32   1.396829 A    
C88   N8    1.470970 S    
O9    C5    1.280619 A    
O41   C13   1.280646 A    
C111  C115  1.412482 A    
C109  C113  1.411380 A    
C100  H12   1.082996 S    
O13   C9    1.280154 A    
N8    O67   1.301282 A    
N27   O89   1.302046 A    
C93   C97   1.407902 A    
O18   C14   1.280964 A    
C23   C31   1.452863 S    
C49   H1    1.112641 S    
O6    C2    1.284417 A    
C96   C100  1.412440 A    
C51   H3    1.113295 S    
Zn9   O29   1.943229 S    
Zn11  O31   1.943229 S    
Zn12  O32   1.942987 S    
Zn13  O25   1.942748 S    
C101  C102  1.562360 S    
Zn15  O3    1.951710 S    
N53   H66   1.046462 S    
Zn11  O3    1.952529 S    
N32   O100  1.301235 A    
C113  H13   1.082079 S    
C89   C102  1.506606 S    
C112  C116  1.412166 A    
N46   H52   1.044946 S    
C39   N31   1.433314 S    
N27   O90   1.300980 A    
C26   C30   1.393498 A    
C27   C55   1.513937 S    
N38   O104  1.300934 A    
O35   C23   1.274111 A    
N2    O55   1.301403 A    
N50   H60   1.044952 S    
N11   O73   1.302177 A    
O32   C20   1.280309 A    
C98   H10   1.083013 S    
C116  H16   1.083070 S    
N33   H34   1.045800 S    
N40   O107  1.301711 A    
Zn9   O17   1.941018 S    
C52   N36   1.462846 S    
C57   C85   1.505817 S    
N45   H50   1.044970 S    
N36   H40   1.045522 S    
N15   H22   1.045423 S    
C8    C64   1.457987 S    
Zn14  O42   1.940971 S    
N35   H37   1.045446 S    
O7    C3    1.284809 A    
C66   C70   1.417457 A    
C86   N10   1.470231 S    
C91   C92   1.355808 A    
Zn3   O35   1.942929 S    
N16   H23   1.045088 S    
C97   C98   1.398868 A    
C40   C44   1.418650 A    
C106  C117  1.506911 S    
C104  N16   1.467030 S    
O37   C9    1.276909 A    
N43   H45   1.046233 S    
O39   C11   1.278103 A    
N3    O57   1.301400 A    
C55   N43   1.469634 S    
C85   N5    1.474287 S    
N55   H70   1.046545 S    
C103  N15   1.463878 S    
C101  N17   1.468611 S    
C70   N50   1.436274 S    
C103  N19   1.465404 S    
Zn2   O38   1.941092 S    
O36   C24   1.281448 A    
O12   C8    1.284792 A    
C36   C40   1.415581 A    
O21   C17   1.282906 A    
C65   C69   1.417958 A    
N12   O75   1.302211 A    
O19   C15   1.276995 A    
Zn15  O43   1.941384 S    
C68   C72   1.415885 A    
C102  N14   1.467533 S    
N56   H72   1.046613 S    
C52   H4    1.112322 S    
C40   N32   1.435399 S    
C58   C86   1.507141 S    
Zn6   O46   1.940433 S    
C107  C108  1.352107 A    
N9    O70   1.301075 A    
C118  N26   1.471291 S    
C105  C106  1.353780 A    
C84   N56   1.466656 S    
N10   O71   1.302177 A    
N54   H68   1.046463 S    
C25   C45   1.378525 A    
C81   C85   1.546295 S    
N41   H41   1.045844 S    
N39   O105  1.300957 A    
C92   C96   1.388321 A    
N22   O79   1.301312 A    
N36   H39   1.044997 S    
C49   N33   1.466598 S    
C1    C76   1.458220 S    
C2    C75   1.456793 S    
C73   C77   1.391631 A    
O38   C10   1.279148 A    
N47   H53   1.044963 S    
C14   C94   1.452574 S    
C89   C90   1.380530 A    
Zn2   O2    1.952634 S    
C117  C118  1.562716 S    
Zn14  O2    1.952529 S    
N55   H69   1.044599 S    
C10   C110  1.445415 S    
C72   C76   1.419360 A    
N6    O64   1.301853 A    
C26   C46   1.378460 A    
N1    O53   1.300672 A    
C71   C75   1.418071 A    
C60   C88   1.505275 S    
C88   N12   1.470907 S    
Zn4   O36   1.942887 S    
C66   N46   1.435619 S    
N30   O95   1.300793 A    
N26   O88   1.301189 A    
C59   C63   1.396089 A    
C50   C54   1.537375 S    
N28   O91   1.302053 A    
N44   H48   1.045303 S    
C53   N37   1.471533 S    
O49   C5    1.278566 A    
C49   C53   1.540463 S    
N29   O94   1.300476 A    
N51   H61   1.045010 S    
N14   H20   1.045379 S    
Zn1   O33   1.942929 S    
Zn10  O30   1.942987 S    
Zn12  O20   1.941431 S    
N21   O77   1.301043 A    
N24   O84   1.301867 A    
C41   C45   1.391794 A    
Zn14  O26   1.942989 S    
Zn15  O7    1.940475 S    
Zn16  O8    1.939894 S    
Zn1   O9    1.940639 S    
N11   O74   1.301320 A    
C90   C101  1.506420 S    
C67   C71   1.417286 A    
Zn4   O12   1.940110 S    
Zn11  O51   1.939744 S    
Zn5   O13   1.940843 S    
C33   C37   1.416312 A    
Zn6   O2    1.951400 S    
Zn7   O15   1.940843 S    
C28   C56   1.510750 S    
Zn13  O5    1.940475 S    
Zn8   O16   1.941539 S    
N42   H44   1.044963 S    
C27   C47   1.378766 A    
N17   H26   1.045117 S    
N4    O59   1.300897 A    
C99   H11   1.083017 S    
C95   C99   1.412278 A    
O27   C23   1.285136 A    
C21   C29   1.457798 S    
N13   H18   1.045397 S    
O29   C17   1.277869 A    
C119  N27   1.467875 S    
C97   H9    1.083043 S    
N18   H27   1.045183 S    
C50   N34   1.462837 S    
Zn10  O18   1.941431 S    
N43   H46   1.045008 S    
C46   C50   1.498107 S    
C33   N1    1.433343 S    
Zn9   O1    1.952529 S    
N34   H35   1.045492 S    
N3    O58   1.300058 A    
C5    C61   1.451180 S    
N8    O68   1.301968 A    
N25   O86   1.301034 A    
C56   N40   1.464310 S    
N19   H29   1.045441 S    
C24   C32   1.458048 S    
C37   N29   1.435205 S    
C38   C42   1.419909 A    
O45   C1    1.278633 A    
N23   O82   1.302186 A    
O33   C21   1.280105 A    
C107  C111  1.389061 A    
N22   O80   1.302321 A    
C62   C66   1.419844 A    
N15   H21   1.044979 S    
O15   C11   1.279633 A    
N5    O62   1.301346 A    
N53   H65   1.044586 S    
C108  C119  1.501814 S    
C54   N38   1.469996 S    
C36   N4    1.433095 S    
O44   C16   1.279781 A    
N48   H55   1.044940 S    
C102  N18   1.468637 S    
O20   C16   1.278637 A    
C87   N7    1.470167 S    
C72   N52   1.436358 S    
O10   C6    1.283782 A    
C34   C38   1.401600 A    
O48   C4    1.279566 A    
N52   H63   1.045040 S    
C110  C114  1.412076 A    
O14   C10   1.279082 A    
C3    C74   1.456851 S    
C84   H8    1.111575 S    
N2    O56   1.299993 A    
C78   C82   1.495242 S    
C86   N6    1.470133 S    
C43   C47   1.393424 A    
C50   H2    1.113277 S    
C119  C120  1.560173 S    
O17   C13   1.280863 A    
C22   C30   1.452922 S    
C29   C33   1.418467 A    
C52   C56   1.538014 S    
C71   N51   1.436289 S    
O30   C18   1.273676 A    
