data_mof_unit_20575.cif
_audit_creation_date              2012-12-11T14:31:13-0500
_audit_creation_method            fapswitch 2.2
_symmetry_space_group_name_H-M    P1
_symmetry_Int_Tables_number       1
_space_group_crystal_system       triclinic
_cell_length_a                    8.319374
_cell_length_b                    14.982921
_cell_length_c                    15.129236
_cell_angle_alpha                 97.630154
_cell_angle_beta                  98.827201
_cell_angle_gamma                 97.642466
_cell_volume                      1824.21505576

loop_
_atom_site_label
_atom_site_type_symbol
_atom_type_description
_atom_site_fract_x
_atom_site_fract_y
_atom_site_fract_z
_atom_type_partial_charge
Ba1   Ba    Ba6+2 0.154730 0.543770 0.458180 1.690280
Ba2   Ba    Ba6+2 0.655430 0.456220 0.541750 1.703092
C1    C     C_3   0.360251 0.762822 0.126829 -0.315668
C2    C     C_R   0.101247 0.076789 0.546769 -0.039548
C3    C     C_R   0.960793 0.889552 0.533658 -0.030000
C4    C     C_3   0.911992 0.783860 0.267759 0.336038
C5    C     C_R   0.120467 0.923774 0.581315 -0.031357
C6    C     C_R   0.190094 0.014514 0.586279 -0.094230
C7    C     C_R   0.892096 0.795439 0.524866 0.024291
C8    C     C_R   0.726550 0.768590 0.483651 -0.315839
C9    C     C_R   0.913833 0.201971 0.470259 0.015256
C10   C     C_R   0.843908 0.108086 0.460976 -0.037585
C11   C     C_R   0.937252 0.045695 0.500786 0.040092
C12   C     C_3   0.383683 0.736341 0.221035 0.307848
C13   C     C_R   0.684088 0.074355 0.413425 -0.033085
C14   C     C_R   0.613146 0.983950 0.410103 -0.081957
C15   C     C_R   0.701432 0.921640 0.450386 -0.016490
C16   C     C_3   0.926053 0.877991 0.239793 -0.359582
C17   C     C_R   0.866633 0.952022 0.494564 0.042833
C18   C     C_R   0.629888 0.829722 0.447016 -0.042076
C19   C     C_R   0.076764 0.228998 0.513326 -0.288283
C20   C     C_R   0.226954 0.481860 0.768385 -0.308169
C21   C     C_R   0.130965 0.445159 0.826502 -0.014407
C22   C     C_R   0.197055 0.452657 0.918889 -0.090321
C23   C     C_3   0.610283 0.742025 0.690467 0.264975
C24   C     C_R   0.360814 0.497637 0.954420 0.025582
C25   C     C_R   0.454761 0.532100 0.891980 -0.111467
C26   C     C_R   0.388814 0.524125 0.800330 -0.008055
C27   C     C_R   0.599027 0.552235 0.088244 -0.133736
C28   C     C_3   0.716100 0.335391 0.262231 0.262404
C29   C     C_R   0.670503 0.556034 0.178673 0.004465
C30   C     C_R   0.414273 0.480502 0.209581 0.044125
C31   C     C_R   0.341970 0.474866 0.118401 -0.124045
C32   C     C_R   0.433854 0.508709 0.054522 0.001895
C33   C     C_R   0.578967 0.517557 0.236991 -0.258094
C34   C     C_3   0.692591 0.838904 0.730539 -0.314659
C35   C     C_3   0.687886 0.308676 0.159833 -0.324123
C36   C     C_3   0.150277 0.719534 0.754823 0.233945
C37   C     C_3   0.254396 0.810492 0.805026 -0.174784
C38   C     C_3   0.220593 0.266274 0.333488 0.304677
C39   C     C_3   0.192514 0.163166 0.305548 -0.382376
C40   C     C_2   0.074175 0.663821 0.818600 0.420629
C41   C     C_2   0.388784 0.800292 0.880073 0.551440
C42   C     C_2   0.826326 0.164581 0.682174 0.511538
C43   C     C_2   0.610819 0.186156 0.892464 0.590029
C44   C     C_2   0.651910 0.674349 0.479424 0.560129
C45   C     C_3   0.947802 0.217696 0.761392 0.322580
C46   C     C_2   0.151714 0.482978 0.675043 0.570874
C47   C     C_3   0.012234 0.155873 0.826827 -0.270029
C48   C     C_3   0.447730 0.259438 0.776667 0.261396
C49   C     C_3   0.459723 0.228395 0.869455 -0.254774
C50   C     C_R   0.171269 0.169254 0.551678 -0.012884
H1    H     H_    0.294076 0.674052 0.219975 0.095773
H2    H     H_    0.091334 0.142755 0.246258 0.135265
H3    H     H_    0.158756 0.128346 0.361761 0.057592
H4    H     H_    0.306793 0.140687 0.287344 0.121971
H5    H     H_    0.511113 0.721230 0.237398 -0.036793
H6    H     H_    0.380513 0.706082 0.076681 0.090694
H7    H     H_    0.704789 0.706025 0.663873 0.027985
H8    H     H_    0.506045 0.745738 0.636341 -0.000008
H9    H     H_    0.794941 0.837771 0.786737 0.154697
H10   H     H_    0.743031 0.872938 0.677624 0.082867
H11   H     H_    0.602370 0.879020 0.756684 0.135889
H12   H     H_    0.592010 0.247276 0.138403 0.139444
H13   H     H_    0.449795 0.824334 0.125251 0.130979
H14   H     H_    0.915435 0.929594 0.297615 0.064209
H15   H     H_    0.055309 0.249580 0.734932 -0.121050
H16   H     H_    0.083850 0.108201 0.793112 0.072605
H17   H     H_    0.092078 0.198329 0.887400 0.100885
H18   H     H_    0.332732 0.289442 0.764526 -0.015385
H19   H     H_    0.458432 0.287773 0.921856 0.075711
H20   H     H_    0.011715 0.785539 0.326172 0.094842
H21   H     H_    0.352446 0.176363 0.869537 0.047043
H22   H     H_    0.315129 0.034699 0.621766 0.128842
H23   H     H_    0.646666 0.364766 0.125808 0.065191
H24   H     H_    0.610352 0.117297 0.378594 0.102324
H25   H     H_    0.135684 0.296266 0.510293 0.125790
H26   H     H_    0.677398 0.582511 0.046491 0.092176
H27   H     H_    0.117574 0.423476 0.960912 0.083524
H28   H     H_    0.216070 0.441737 0.099156 0.093133
H29   H     H_    0.790420 0.768515 0.288860 -0.040614
H30   H     H_    0.578676 0.567656 0.911954 0.088467
H31   H     H_    0.640539 0.508522 0.301725 0.118699
H32   H     H_    0.825996 0.879181 0.182390 0.132839
H33   H     H_    0.813008 0.396523 0.281639 0.052713
H34   H     H_    0.804464 0.293624 0.138275 0.165971
H35   H     H_    0.992521 0.600822 0.790543 0.011649
H36   H     H_    0.407811 0.733608 0.896174 0.023718
H37   H     H_    0.233123 0.777456 0.107941 0.170716
H38   H     H_    0.784269 0.199848 0.627446 0.040374
H39   H     H_    0.909755 0.115386 0.850104 0.145780
H40   H     H_    0.553573 0.313185 0.777967 0.109718
H41   H     H_    0.625582 0.123608 0.851538 0.046869
H42   H     H_    0.195571 0.881139 0.615206 0.094042
H43   H     H_    0.487806 0.963817 0.374891 0.106438
H44   H     H_    0.568102 0.654558 0.523428 0.004638
H45   H     H_    0.227455 0.679273 0.717255 -0.071880
H46   H     H_    0.078597 0.534610 0.658408 -0.024799
H47   H     H_    0.047179 0.895728 0.218954 0.146448
H48   H     H_    0.599021 0.349263 0.282921 0.015904
H49   H     H_    0.311379 0.846298 0.755245 0.046237
H50   H     H_    0.172262 0.854784 0.834211 0.111790
H51   H     H_    0.104637 0.287872 0.348895 0.011370
H52   H     H_    0.319283 0.284434 0.394174 0.057775
O1    O     O_2   0.174080 0.723060 0.553930 -0.484109
O2    O     O_2   0.793705 0.444309 0.819703 -0.479201
O3    O     O_3   0.868889 0.281563 0.808421 -0.603668
O4    O     O_3   0.901570 0.609580 0.550840 -0.459049
O5    O     O_3   0.408220 0.452130 0.390170 -0.464703
O6    O     O_2   0.675490 0.547140 0.721820 -0.452286
O7    O     O_3   0.549883 0.699155 0.757837 -0.657150
O8    O     O_2   0.502468 0.172870 0.543376 -0.484733
O9    O     O_3   0.448392 0.185252 0.709137 -0.616966
O10   O     O_3   0.370350 0.665080 0.388270 -0.484058
O11   O     O_2   0.289266 0.825123 0.447729 -0.494520
O12   O     O_3   0.266186 0.306702 0.261220 -0.636069
O13   O     O_3   0.017237 0.741476 0.697860 -0.674590
O14   O     O_3   0.355322 0.808199 0.283628 -0.609100
O15   O     O_2   0.134790 0.452800 0.278150 -0.468412
O16   O     O_3   0.937650 0.618620 0.340860 -0.449137
O17   O     O_2   0.007555 0.556467 0.179293 -0.484759
O18   O     O_2   0.094665 0.689470 0.900185 -0.609278
O19   O     O_2   0.478121 0.867823 0.924106 -0.582603
O20   O     O_2   0.774001 0.083716 0.678210 -0.611213
O21   O     O_2   0.716329 0.220670 0.957645 -0.587103
O22   O     O_2   0.675476 0.617004 0.420827 -0.578164
O23   O     O_3   0.928796 0.719293 0.194626 -0.590370
O24   O     O_2   0.166101 0.423027 0.615850 -0.567232
O25   O     O_2   0.636200 0.276890 0.446040 -0.477241
O26   O     O_3   0.908720 0.390410 0.449080 -0.458908
O27   O     O_3   0.439930 0.334910 0.611650 -0.445830
O28   O     O_3   0.765737 0.262428 0.301458 -0.640308
O29   O     O_3   0.402060 0.547860 0.609750 -0.461709
O30   O     O_3   0.872630 0.381370 0.659060 -0.487149
P1    P     P_3+3 0.004200 0.709230 0.580350 0.977295
P2    P     P_3+3 0.305000 0.425570 0.290900 1.000639
P3    P     P_3+3 0.885558 0.610027 0.222950 0.985085
P4    P     P_3+3 0.806080 0.290760 0.419570 0.992904
P5    P     P_3+3 0.916694 0.389635 0.778572 0.960138
P6    P     P_3+3 0.411329 0.783650 0.393180 0.937334
P7    P     P_3+3 0.504482 0.580833 0.723337 0.948960
P8    P     P_3+3 0.388850 0.216164 0.602507 0.963416

loop_
_geom_bond_atom_site_label_1
_geom_bond_atom_site_label_2
_ccdc_geom_bond_type
C20   C46   S    
Ba2   O5    S    
C47   H16   S    
C2    C6    A    
C43   H41   S    
C15   C18   A    
C23   O7    S    
C5    C6    A    
C45   C47   S    
C4    H20   S    
C24   C25   A    
Ba2   O30   S    
C2    C50   A    
C41   H36   S    
C21   P5    S    
C9    P4    S    
C22   C24   A    
C4    O23   S    
C36   C40   S    
C36   C37   S    
C34   H10   S    
C38   H52   S    
C43   C49   S    
O28   P4    S    
C13   C14   A    
C28   H48   S    
Ba2   O25   S    
O9    P8    S    
Ba1   Ba2   S    
Ba1   O15   S    
O8    P8    D    
C2    C11   A    
C5    H42   S    
C39   H3    S    
Ba1   O5    S    
C36   O13   S    
C24   C32   S    
C27   H26   S    
C43   O21   D    
C14   C15   A    
C12   O14   S    
C8    C44   S    
C16   H32   S    
C21   C22   A    
C23   H8    S    
O10   P6    S    
C29   P3    S    
Ba1   P2    S    
C7    C8    A    
O13   P1    S    
C42   C45   S    
O1    P1    D    
C13   H24   S    
C35   H23   S    
C4    H29   S    
C20   C26   A    
O5    P2    S    
C1    H13   S    
C49   H19   S    
C47   H39   S    
C36   H45   S    
O14   P6    S    
C45   H15   S    
C37   H49   S    
C4    C16   S    
Ba1   O29   S    
Ba2   O29   S    
C11   C17   A    
Ba2   P4    S    
C30   C33   A    
C35   H34   S    
C31   C32   A    
O4    P1    S    
Ba1   O26   S    
C8    C18   A    
O30   P5    S    
C3    C5    A    
C33   H31   S    
C37   C41   S    
Ba1   O4    S    
C48   C49   S    
O17   P3    D    
C27   C32   A    
C9    C19   A    
C50   P8    S    
C28   C35   S    
Ba1   O16   S    
O6    P7    D    
C39   H4    S    
C3    C7    A    
C23   H7    S    
C46   O24   D    
C22   H27   S    
C10   C13   A    
C6    H22   S    
Ba2   O27   S    
O11   P6    D    
C28   H33   S    
O27   P8    S    
C1    C12   S    
O12   P2    S    
C7    P1    S    
C48   H40   S    
C38   C39   S    
C45   O3    S    
O25   P4    D    
C29   C33   A    
C16   H47   S    
C34   H9    S    
C34   H11   S    
C41   O19   D    
Ba2   O26   S    
C35   H12   S    
C42   H38   S    
C40   O18   D    
C37   H50   S    
C30   P2    S    
C12   H5    S    
Ba2   O6    S    
C14   H43   S    
C44   O22   D    
C25   H30   S    
C49   H21   S    
C9    C10   A    
C31   H28   S    
C3    C17   A    
C16   H14   S    
C46   H46   S    
O29   P7    S    
O15   P2    D    
C1    H37   S    
C48   O9    S    
C30   C31   A    
C18   P6    S    
C48   H18   S    
C27   C29   A    
C38   H51   S    
O2    P5    D    
C38   O12   S    
C28   O28   S    
Ba2   O4    S    
C15   C17   A    
C42   O20   D    
O3    P5    S    
C39   H2    S    
C40   H35   S    
O7    P7    S    
C23   C34   S    
C1    H6    S    
C12   H1    S    
C44   H44   S    
C10   C11   A    
O16   P3    S    
Ba1   O10   S    
C19   H25   S    
C25   C26   A    
C20   C21   A    
C47   H17   S    
C26   P7    S    
O23   P3    S    
Ba1   P1    S    
C19   C50   A    
Ba1   O1    S    
O26   P4    S    
