data_mof_unit_10238.cif
_audit_creation_date              2013-03-05T15:54:02-0500
_audit_creation_method            fapswitch 2.2
_symmetry_space_group_name_H-M    P1
_symmetry_Int_Tables_number       1
_space_group_crystal_system       triclinic
_cell_length_a                    15.735001
_cell_length_b                    10.714828
_cell_length_c                    9.929596
_cell_angle_alpha                 91.082638
_cell_angle_beta                  91.367173
_cell_angle_gamma                 92.246073
_cell_volume                      1672.01642433

loop_
_atom_site_label
_atom_site_type_symbol
_atom_site_description
_atom_site_fract_x
_atom_site_fract_y
_atom_site_fract_z
_atom_type_partial_charge
O1    O     O_R   0.500000 0.316780 0.614690 -0.663092
O2    O     O_R   0.499990 0.316750 0.385360 -0.613115
C1    C     C_R   0.509245 0.261843 0.499344 0.907532
O3    O     O_R   0.377150 0.500020 0.614720 -0.649991
O4    O     O_R   0.377140 0.499990 0.385380 -0.557425
C2    C     C_R   0.338518 0.500128 0.498753 0.930926
Zn1   Zn    Zn3+2 0.500010 0.500020 0.653130 0.957801
Zn2   Zn    Zn3+2 0.499990 0.499980 0.346870 1.022427
O5    O     O_R   0.500010 0.683250 0.614640 -0.640353
O6    O     O_R   0.500000 0.683220 0.385310 -0.626775
O7    O     O_R   0.622860 0.500010 0.614620 -0.607816
O8    O     O_R   0.622850 0.499980 0.385280 -0.585572
C3    C     C_R   0.497853 0.740581 0.502564 0.881395
C4    C     C_R   0.661464 0.499890 0.501296 0.880242
C5    C     C_3   0.053298 0.551505 0.623334 -0.490136
C6    C     C_3   0.047310 0.348549 0.489460 0.020606
C7    C     C_3   0.946148 0.341383 0.472246 0.340823
H1    H     H_    0.086637 0.514272 0.713015 0.239591
H2    H     H_    0.064103 0.314758 0.591678 0.186865
C8    C     C_1   0.749924 0.494180 0.503244 0.024372
C9    C     C_3   0.082675 0.486774 0.492775 -0.029532
C10   C     C_3   0.955074 0.537393 0.632331 0.066560
C11   C     C_3   0.916404 0.482821 0.494094 -0.242821
C12   C     C_3   0.949968 0.573688 0.378049 0.405221
C13   C     C_3   0.048780 0.557714 0.369939 -0.431815
C14   C     C_1   0.824899 0.488301 0.500427 0.206943
C15   C     C_1   0.174371 0.491868 0.493955 0.074412
C16   C     C_1   0.249682 0.496276 0.495774 -0.066888
H3    H     H_    0.484907 0.106908 0.287734 0.169011
C17   C     C_R   0.589823 0.134305 0.727201 -0.091628
C18   C     C_R   0.595118 0.080407 0.853318 -0.069557
C19   C     C_R   0.556176 0.963915 0.872698 -0.162908
H4    H     H_    0.555018 0.925073 0.972564 0.143964
C20   C     C_R   0.518904 0.896808 0.763355 -0.171657
H5    H     H_    0.484658 0.811881 0.788087 0.173559
C21   C     C_R   0.521141 0.944798 0.630807 0.115856
C22   C     C_R   0.546029 0.070769 0.618275 0.074509
C23   C     C_R   0.523115 0.130522 0.498312 -0.107706
C24   C     C_R   0.499024 0.062260 0.382036 -0.130389
H6    H     H_    0.472101 0.884599 0.294198 0.168064
C25   C     C_R   0.489431 0.935306 0.386939 -0.192069
C26   C     C_R   0.499138 0.875176 0.509714 -0.108039
H7    H     H_    0.578428 0.662565 0.131320 0.161279
C27   C     C_R   0.409429 0.301699 0.126223 0.313824
C28   C     C_R   0.391670 0.192581 0.049096 -0.242749
C29   C     C_R   0.387113 0.199561 0.910452 -0.206606
H8    H     H_    0.358238 0.122809 0.850835 0.190619
C30   C     C_R   0.410318 0.310735 0.850105 -0.113405
H9    H     H_    0.389947 0.320470 0.747759 0.216686
C31   C     C_R   0.455964 0.405918 0.923147 0.138630
C32   C     C_R   0.455682 0.404207 0.067464 0.045499
N1    N     N_R   0.499210 0.498800 0.142780 -0.124998
C33   C     C_R   0.543043 0.589474 0.075029 -0.054669
H10   H     H_    0.580029 0.660712 0.881650 0.157386
C34   C     C_R   0.543530 0.588834 0.932171 -0.093693
N2    N     N_R   0.499180 0.498720 0.857170 -0.120392
N3    N     N_R   0.927496 0.464443 0.749141 0.258908
O9    O     O_R   0.852067 0.479464 0.796395 -0.304130
O10   O     O_R   0.978610 0.391919 0.812989 -0.282518
H11   H     H_    0.072756 0.652524 0.622343 0.232607
H12   H     H_    0.932076 0.633205 0.649744 0.192517
N4    N     N_R   0.907245 0.544117 0.245400 0.249326
O11   O     O_R   0.826793 0.564696 0.227248 -0.294814
O12   O     O_R   0.949457 0.510782 0.140275 -0.276762
H13   H     H_    0.619899 0.225936 0.715681 0.180834
H14   H     H_    0.626402 0.131141 0.937070 0.171902
N5    N     N_R   0.347347 0.322543 0.225160 0.242415
O13   O     O_R   0.285178 0.393803 0.192658 -0.337900
O14   O     O_R   0.334186 0.239408 0.317132 -0.385784
H15   H     H_    0.361734 0.111506 0.094640 0.198352
N6    N     N_R   0.092127 0.268486 0.394315 0.265753
O15   O     O_R   0.131271 0.172253 0.439043 -0.276189
O16   O     O_R   0.097478 0.294956 0.267362 -0.266261
N7    N     N_R   0.909641 0.256813 0.574613 0.245927
O17   O     O_R   0.827638 0.248078 0.589029 -0.338640
O18   O     O_R   0.953691 0.165753 0.620826 -0.265124
N8    N     N_R   0.917184 0.287256 0.339586 0.245988
O19   O     O_R   0.842639 0.313802 0.291174 -0.310182
O20   O     O_R   0.944540 0.178936 0.302978 -0.212492
H16   H     H_    0.084629 0.648347 0.361198 0.229815
H17   H     H_    0.066786 0.507340 0.277907 0.261558
N9    N     N_R   0.931782 0.705655 0.413572 0.212858
O21   O     O_R   0.992027 0.789746 0.441055 -0.330916
O22   O     O_R   0.853529 0.740171 0.419765 -0.325853

loop_
_geom_bond_atom_site_label_1
_geom_bond_atom_site_label_2
_geom_bond_distance
_ccdc_geom_bond_type
C18   H14   1.082510 S    
C34   N2    1.367162 A    
C6    C9    1.561080 S    
C5    H1    1.111247 S    
C13   H16   1.109675 S    
C25   C26   1.397554 A    
C33   C34   1.418609 A    
C21   C26   1.431129 A    
C10   N3    1.475220 S    
C24   C25   1.364654 A    
N8    O19   1.300862 A    
N1    C33   1.366214 A    
Zn1   O7    1.979437 S    
C7    C11   1.615803 S    
N7    O18   1.302959 A    
C21   C22   1.399263 A    
C17   C18   1.390979 A    
O7    C4    1.291437 A    
N3    O10   1.302275 A    
C20   H5    1.074738 S    
C5    H11   1.113549 S    
C11   C14   1.446147 S    
C12   N9    1.491105 S    
O5    C3    1.281657 A    
C29   H8    1.082894 S    
H7    C33   1.081756 S    
C5    C10   1.551883 S    
C2    C16   1.396421 S    
C1    C23   1.432222 S    
C6    C7    1.595556 S    
N4    O12   1.302286 A    
C11   C12   1.608012 S    
Zn2   N1    2.026073 S    
C30   C31   1.404204 A    
C9    C15   1.441490 S    
C13   H17   1.101095 S    
C6    N6    1.474583 S    
Zn1   N2    2.026697 S    
O3    Zn1   1.961519 S    
C3    C26   1.441892 S    
N8    O20   1.301983 A    
C23   C24   1.391834 A    
C29   C30   1.383733 A    
N7    O17   1.301549 A    
N5    O13   1.302634 A    
C4    C8    1.395342 S    
C12   C13   1.574651 S    
O3    C2    1.289253 A    
N6    O16   1.301272 A    
C28   C29   1.380421 A    
C31   N2    1.368656 A    
C32   N1    1.395774 A    
C17   C22   1.417037 A    
N5    O14   1.302183 A    
C19   C20   1.395294 A    
C22   C23   1.408989 A    
C18   C19   1.387523 A    
Zn2   O8    1.961517 S    
H3    C24   1.081822 S    
N4    O11   1.302345 A    
C7    N8    1.483575 S    
C31   C32   1.433585 A    
C27   C32   1.434675 A    
H6    C25   1.084006 S    
O8    C4    1.289557 A    
N9    O22   1.301980 A    
C7    N7    1.485321 S    
C27   C28   1.400688 A    
Zn1   O5    2.007207 S    
C9    C13   1.544559 S    
H10   C34   1.080881 S    
C30   H9    1.066528 S    
C12   N4    1.487444 S    
C28   H15   1.083505 S    
O1    Zn1   1.993044 S    
O2    Zn2   2.007208 S    
O6    C3    1.308024 A    
O4    Zn2   1.979437 S    
C19   H4    1.082929 S    
O2    C1    1.293188 A    
N6    O15   1.301481 A    
C10   H12   1.113635 S    
N3    O9    1.301318 A    
O4    C2    1.292011 A    
C8    C14   1.184838 T    
C6    H2    1.113417 S    
C20   C21   1.422766 A    
C17   H13   1.082320 S    
C5    C9    1.547628 S    
Zn2   O6    1.993044 S    
N9    O21   1.302447 A    
C15   C16   1.183790 T    
C10   C11   1.580576 S    
C27   N5    1.422637 S    
O1    C1    1.291759 A    
