data_mof_unit_50688.cif
_audit_creation_date              2012-12-11T15:53:41-0500
_audit_creation_method            fapswitch 2.2
_symmetry_space_group_name_H-M    P1
_symmetry_Int_Tables_number       1
_space_group_crystal_system       triclinic
_cell_length_a                    10.699293
_cell_length_b                    10.670838
_cell_length_c                    16.990036
_cell_angle_alpha                 80.567751
_cell_angle_beta                  99.388247
_cell_angle_gamma                 119.034981
_cell_volume                      1665.17326408

loop_
_atom_site_label
_atom_site_type_symbol
_atom_type_description
_atom_site_fract_x
_atom_site_fract_y
_atom_site_fract_z
_atom_type_partial_charge
C1    C     C_R   0.384725 0.284741 0.631838 0.539023
C2    C     C_1   0.333759 0.187865 0.781693 -0.034002
C3    C     C_1   0.369632 0.636244 0.274784 -0.061373
C4    C     C_R   0.414030 0.619685 0.601900 0.553572
C5    C     C_1   0.342707 0.654463 0.204198 -0.065235
C6    C     C_R   0.861531 0.680879 0.166326 0.002768
C7    C     C_R   0.897480 0.588904 0.221895 0.048627
C8    C     C_R   0.889211 0.583087 0.301885 0.005348
C9    C     C_R   0.836605 0.783314 0.275778 -0.155901
C10   C     C_R   0.842975 0.786983 0.194106 -0.157889
C11   C     C_3   0.841165 0.429474 0.224439 -0.038100
C12   C     C_R   0.515139 0.712717 0.735173 -0.151291
C13   C     C_3   0.831953 0.422326 0.312955 -0.211019
C14   C     C_R   0.846117 0.671561 0.329032 0.013172
C15   C     C_R   0.303348 0.126570 0.170134 0.012909
C16   C     C_R   0.781275 0.621395 0.626165 0.537618
C17   C     C_R   0.185683 0.112542 0.202882 0.037827
C18   C     C_R   0.190608 0.120952 0.282560 0.019388
C19   C     C_R   0.423078 0.128874 0.304213 -0.151571
C20   C     C_R   0.417176 0.120384 0.222393 -0.161403
C21   C     C_3   0.099468 0.190202 0.177503 -0.263296
C22   C     C_3   0.104248 0.201016 0.265480 -0.245947
C23   C     C_R   0.492625 0.728880 0.810965 -0.135491
C24   C     C_R   0.316243 0.145571 0.332627 0.019059
C25   C     C_R   0.947876 0.725383 0.851570 0.557650
C26   C     C_R   0.316103 0.705436 0.898544 0.537817
C27   C     C_R   0.286611 0.118861 0.858517 0.545339
C28   C     C_R   0.349335 0.222425 0.401589 0.550719
C29   C     C_R   0.890414 0.692363 0.085260 0.555727
C30   C     C_R   0.316149 0.697077 0.122709 0.551626
C31   C     C_R   0.282778 0.102367 0.087201 0.545601
C32   C     C_R   0.403197 0.624886 0.358827 0.570596
C33   C     C_R   0.775354 0.624494 0.401209 0.546410
C34   C     C_3   0.095135 0.484481 0.772710 -0.251899
C35   C     C_R   0.354232 0.650360 0.837924 0.013819
C36   C     C_R   0.251456 0.534385 0.796289 0.012757
C37   C     C_R   0.274227 0.517890 0.721697 0.010298
C38   C     C_3   0.119916 0.466023 0.690863 -0.245265
C39   C     C_R   0.399982 0.617154 0.686298 -0.002444
C40   C     C_1   0.850306 0.669948 0.702588 -0.054563
C41   C     C_1   0.897456 0.704357 0.769297 -0.055131
C42   C     C_1   0.365124 0.234798 0.714402 -0.037160
Cr1   Cr    Cr6+3 0.608440 0.389080 0.519680 1.011276
Cr2   Cr    Cr6+3 0.288640 0.400090 0.490760 1.006402
Cr3   Cr    Cr6+3 0.602940 0.710800 0.489510 1.010681
Cr4   Cr    Cr6+3 0.052530 0.947560 0.964210 1.016862
Cr5   Cr    Cr6+3 0.059970 0.626800 0.992920 1.000309
Cr6   Cr    Cr6+3 0.373320 0.938440 0.995370 1.019973
H1    H     H_    0.618424 0.783186 0.712415 0.142628
H2    H     H_    0.997250 0.138029 0.288977 0.153969
H3    H     H_    0.579048 0.813686 0.843964 0.148297
H4    H     H_    0.065215 0.570921 0.771044 0.148951
H5    H     H_    0.026715 0.380885 0.806747 0.149825
H6    H     H_    0.066259 0.351627 0.677813 0.152623
H7    H     H_    0.103224 0.541435 0.642155 0.161767
H8    H     H_    0.808538 0.857319 0.295349 0.138535
H9    H     H_    0.827523 0.868044 0.152739 0.131093
H10   H     H_    0.943006 0.387483 0.147895 0.262811
H11   H     H_    0.050820 0.466702 0.228607 0.251748
H12   H     H_    0.735364 0.372951 0.189121 0.140431
H13   H     H_    0.718964 0.361620 0.327582 0.137840
H14   H     H_    0.907404 0.390366 0.352695 0.161790
H15   H     H_    0.516896 0.136679 0.343060 0.135379
H16   H     H_    0.503267 0.114678 0.200014 0.140799
H17   H     H_    0.990014 0.120439 0.150086 0.145787
H18   H     H_    0.159620 0.296187 0.142892 0.137748
H19   H     H_    0.165559 0.314560 0.280057 0.168310
N1    N     N_3   0.947452 0.389463 0.209559 -0.644140
O1    O     O_R   0.754020 0.497590 0.609930 -0.509522
O2    O     O_R   0.406180 0.826930 0.920660 -0.518887
O3    O     O_R   0.358620 0.062870 0.901950 -0.493050
O4    O     O_R   0.481420 0.271390 0.600630 -0.477219
O5    O     O_R   0.163910 0.085460 0.050210 -0.517473
O6    O     O_R   0.935200 0.815170 0.045770 -0.498098
O7    O     O_R   0.916120 0.596690 0.069430 -0.520058
O8    O     O_R   0.192310 0.631200 0.086170 -0.510154
O9    O     O_R   0.406770 0.819480 0.096420 -0.507162
O10   O     O_R   0.359170 0.055960 0.064880 -0.503169
O11   O     O_3   0.161940 0.837600 0.984160 -0.262093
O12   O     O_R   0.295080 0.533620 0.397890 -0.494192
O13   O     O_R   0.263810 0.254550 0.589590 -0.509100
O14   O     O_R   0.300820 0.531200 0.560890 -0.502140
O15   O     O_R   0.491480 0.744020 0.564270 -0.495823
O16   O     O_R   0.726290 0.693800 0.583010 -0.517106
O17   O     O_R   0.747830 0.500190 0.434090 -0.523212
O18   O     O_R   0.475680 0.273800 0.437630 -0.502175
O19   O     O_R   0.257620 0.257160 0.413750 -0.527042
O20   O     O_R   0.485280 0.746620 0.388440 -0.493853
O21   O     O_R   0.720550 0.696220 0.420010 -0.520289
O22   O     O_3   0.500010 0.499990 0.499980 -0.309327
O23   O     O_R   0.163320 0.092900 0.874450 -0.514202
O24   O     O_R   0.934650 0.822080 0.882840 -0.489706
O25   O     O_R   0.915520 0.604140 0.893670 -0.509415
O26   O     O_R   0.191760 0.638110 0.923230 -0.515914

loop_
_geom_bond_atom_site_label_1
_geom_bond_atom_site_label_2
_ccdc_geom_bond_type
C26   O26   A    
C25   O25   A    
Cr1   O4    S    
C21   H18   S    
C19   C20   A    
Cr5   O11   S    
C14   C33   S    
C12   H1    S    
C27   O3    A    
C7    C8    A    
C7    C11   S    
C12   C23   A    
C8    C13   S    
C18   C24   A    
Cr6   O11   S    
C36   C37   A    
Cr5   O8    S    
Cr2   O14   S    
Cr4   O11   S    
C31   O5    A    
Cr4   O24   S    
C1    O13   A    
C32   O20   A    
C16   O16   A    
Cr6   O10   S    
C33   O17   A    
C30   O9    A    
C13   H14   S    
C35   C36   A    
C19   H15   S    
C27   O23   A    
C2    C27   S    
Cr2   O19   S    
Cr3   O21   S    
C9    C10   A    
C22   H2    S    
Cr1   O1    S    
C18   C22   S    
C21   C22   S    
Cr3   O15   S    
C15   C20   A    
Cr1   O22   S    
C38   H7    S    
C1    O4    A    
Cr2   O12   S    
C10   H9    S    
Cr2   O13   S    
C25   C41   S    
C29   O6    A    
C17   C21   S    
Cr1   O17   S    
Cr6   O9    S    
C20   H16   S    
C9    C14   A    
C37   C38   S    
C33   O21   A    
H11   N1    S    
C32   O12   A    
C30   O8    A    
C1    C42   S    
C23   H3    S    
C38   H6    S    
C4    C39   S    
Cr3   O20   S    
C28   O19   A    
C17   C18   A    
Cr5   O25   S    
C4    O14   A    
C9    H8    S    
Cr3   O22   S    
C16   C40   S    
H10   N1    S    
C40   C41   T    
C23   C35   A    
C28   O18   A    
C26   O2    A    
Cr3   O16   S    
Cr6   O3    S    
C11   H12   S    
Cr4   O6    S    
Cr2   O22   S    
C11   N1    S    
C31   O10   A    
C5    C30   S    
C15   C17   A    
C25   O24   A    
C8    C14   A    
C21   H17   S    
C34   C38   S    
Cr1   O18   S    
C16   O1    A    
C24   C28   S    
Cr6   O2    S    
C3    C5    T    
C6    C10   A    
C15   C31   S    
C6    C7    A    
C29   O7    A    
C34   H4    S    
C12   C39   A    
C19   C24   A    
Cr5   O7    S    
C37   C39   A    
C11   C13   S    
C4    O15   A    
C2    C42   T    
Cr5   O26   S    
C34   C36   S    
C3    C32   S    
C22   H19   S    
C26   C35   S    
C6    C29   S    
C13   H13   S    
C34   H5    S    
Cr4   O23   S    
Cr4   O5    S    
