data_mof_unit_53554.cif
_audit_creation_date              2012-12-11T16:07:25-0500
_audit_creation_method            fapswitch 2.2
_symmetry_space_group_name_H-M    P1
_symmetry_Int_Tables_number       1
_space_group_crystal_system       triclinic
_cell_length_a                    17.257363
_cell_length_b                    17.24235
_cell_length_c                    17.857218
_cell_angle_alpha                 90.149457
_cell_angle_beta                  89.993882
_cell_angle_gamma                 89.966823
_cell_volume                      5313.53001906

loop_
_atom_site_label
_atom_site_type_symbol
_atom_type_description
_atom_site_fract_x
_atom_site_fract_y
_atom_site_fract_z
_atom_type_partial_charge
C1    C     C_R   0.388271 0.701086 0.587406 0.640069
C2    C     C_R   0.583172 0.675614 0.640137 0.550836
C3    C     C_3   0.801813 0.203971 0.635549 -0.043043
C4    C     C_3   0.803191 0.790838 0.365633 -0.030413
C5    C     C_3   0.253536 0.249055 0.727747 -0.027854
C6    C     C_3   0.745673 0.254463 0.270591 -0.033105
C7    C     C_3   0.195561 0.794432 0.633616 -0.048927
C8    C     C_3   0.695148 0.708697 0.866231 -0.027676
C9    C     C_3   0.249267 0.244949 0.229076 -0.022806
C10   C     C_3   0.754016 0.245802 0.770989 -0.034900
C11   C     C_3   0.304219 0.709906 0.136249 -0.032067
C12   C     C_3   0.296053 0.299733 0.862112 -0.041691
C13   C     C_R   0.676576 0.412677 0.360559 0.517064
C14   C     C_3   0.752307 0.765332 0.228115 -0.044698
C15   C     C_3   0.245620 0.755300 0.768625 -0.031636
C16   C     C_3   0.698038 0.295942 0.135177 -0.041929
C17   C     C_3   0.367989 0.821000 0.529138 -0.322412
C18   C     C_3   0.563175 0.191299 0.352581 -0.189122
C19   C     C_3   0.805194 0.559247 0.663134 -0.215294
C20   C     C_3   0.165064 0.385236 0.443979 -0.319152
C21   C     C_3   0.629594 0.178062 0.530790 -0.304125
C22   C     C_3   0.437718 0.807543 0.355040 -0.165716
C23   C     C_3   0.190044 0.417777 0.627113 -0.083880
C24   C     C_R   0.298762 0.609886 0.588770 0.627387
C25   C     C_3   0.797682 0.597633 0.483122 -0.347746
C26   C     C_3   0.368127 0.180350 0.473084 -0.299274
C27   C     C_3   0.563354 0.806475 0.647087 -0.183817
C28   C     C_3   0.805847 0.435294 0.356764 -0.164988
C29   C     C_3   0.178389 0.622810 0.530748 -0.238682
C30   C     C_3   0.635338 0.815263 0.473781 -0.295075
C31   C     C_3   0.437041 0.191324 0.650737 -0.180059
C32   C     C_3   0.194916 0.556605 0.348258 -0.230181
C33   C     C_3   0.827694 0.373222 0.541631 -0.338418
C34   C     C_3   0.870478 0.321879 0.031147 -0.294212
C35   C     C_R   0.609444 0.701003 0.407815 0.630146
C36   C     C_3   0.065158 0.691444 0.850561 -0.174230
C37   C     C_3   0.306833 0.063666 0.146789 -0.151839
C38   C     C_3   0.698781 0.899271 0.984158 -0.324165
C39   C     C_3   0.129183 0.682112 0.029141 -0.308391
C40   C     C_3   0.935353 0.309156 0.852970 -0.187665
C41   C     C_3   0.695258 0.944548 0.165807 -0.231292
C42   C     C_3   0.325317 0.124871 0.961888 -0.328540
C43   C     C_3   0.872165 0.680630 0.969371 -0.328757
C44   C     C_3   0.067710 0.310529 0.144352 -0.159450
C45   C     C_3   0.308974 0.933026 0.840790 -0.211047
C46   C     C_R   0.413003 0.321114 0.637163 0.566967
C47   C     C_3   0.671653 0.126023 0.041829 -0.342529
C48   C     C_3   0.130917 0.324123 0.966257 -0.279923
C49   C     C_3   0.938031 0.693796 0.150051 -0.182914
C50   C     C_3   0.694282 0.062889 0.855330 -0.166354
C51   C     C_3   0.299157 0.903040 0.018053 -0.340181
C52   C     C_R   0.323421 0.585882 0.360519 0.533642
C53   C     C_R   0.701264 0.389512 0.588280 0.667363
C54   C     C_R   0.888793 0.201120 0.088227 0.624036
C55   C     C_R   0.085663 0.822116 0.861522 0.548460
C56   C     C_R   0.177679 0.088240 0.138598 0.514096
C57   C     C_R   0.585126 0.321676 0.362015 0.554319
C58   C     C_R   0.800753 0.888294 0.904515 0.641504
C59   C     C_R   0.108883 0.798818 0.092494 0.637508
C60   C     C_R   0.914429 0.178529 0.862457 0.555756
C61   C     C_R   0.823939 0.916235 0.140228 0.495233
C62   C     C_R   0.201046 0.110406 0.911174 0.648111
C63   C     C_R   0.890577 0.798775 0.908316 0.637123
C64   C     C_R   0.085977 0.179254 0.137207 0.557468
C65   C     C_R   0.177796 0.913166 0.861183 0.486961
C66   C     C_R   0.798582 0.110320 0.087669 0.676779
C67   C     C_R   0.111055 0.201243 0.912576 0.625158
C68   C     C_R   0.675307 0.584461 0.640765 0.483725
C69   C     C_R   0.915122 0.823949 0.139808 0.536764
C70   C     C_R   0.823142 0.087220 0.860783 0.519576
C71   C     C_R   0.198646 0.888232 0.097683 0.645057
C72   C     C_3   0.263799 0.265261 0.348766 0.096286
C73   C     C_3   0.676902 0.682879 0.747619 0.124219
C74   C     C_3   0.320702 0.684059 0.254978 0.134059
C75   C     C_3   0.736889 0.263880 0.651552 0.109241
C76   C     C_3   0.734942 0.737382 0.344664 0.141060
C77   C     C_3   0.313805 0.313945 0.741975 0.152313
C78   C     C_3   0.681107 0.314870 0.255018 0.141192
C79   C     C_R   0.297908 0.391260 0.412823 0.666282
C80   C     C_3   0.261678 0.736041 0.649409 0.106278
C81   C     C_3   0.763615 0.762656 0.846892 0.107212
C82   C     C_3   0.182147 0.187273 0.243879 0.136390
C83   C     C_3   0.818485 0.185206 0.755385 0.142208
C84   C     C_3   0.234402 0.762453 0.155192 0.112971
C85   C     C_3   0.235600 0.235191 0.847554 0.109823
C86   C     C_3   0.821059 0.820111 0.247884 0.133303
C87   C     C_3   0.179979 0.815062 0.753457 0.138220
C88   C     C_3   0.762977 0.236135 0.151105 0.109879
C89   C     C_R   0.309888 0.688454 0.598653 -0.404399
C90   C     C_R   0.611021 0.298859 0.588345 0.629897
C91   C     C_R   0.644938 0.351960 0.319941 -0.314518
C92   C     C_R   0.641979 0.644168 0.682841 -0.282521
C93   C     C_R   0.309136 0.312182 0.402780 -0.398346
C94   C     C_R   0.689503 0.311034 0.599575 -0.401120
C95   C     C_R   0.355819 0.646282 0.319543 -0.292448
C96   C     C_R   0.350731 0.350515 0.677444 -0.340645
C97   C     C_R   0.685243 0.687552 0.389626 -0.385335
C98   C     C_R   0.810230 0.188908 0.098921 -0.404409
C99   C     C_R   0.146001 0.852330 0.819806 -0.297302
C100  C     C_R   0.146520 0.149816 0.178762 -0.319935
C101  C     C_R   0.415421 0.677121 0.361340 0.546187
C102  C     C_R   0.813627 0.811210 0.893486 -0.395255
C103  C     C_R   0.185199 0.811358 0.108773 -0.391748
C104  C     C_R   0.854409 0.148274 0.820457 -0.317800
C105  C     C_R   0.856222 0.856557 0.182184 -0.269553
C106  C     C_R   0.189395 0.188877 0.900767 -0.398825
C107  C     C_3   0.726523 0.647131 0.810881 0.035136
C108  C     C_3   0.214910 0.302031 0.285342 -0.010447
C109  C     C_3   0.702617 0.208409 0.711020 -0.044483
C110  C     C_3   0.351412 0.746540 0.200300 0.039119
C111  C     C_3   0.258674 0.350027 0.800633 0.019702
C112  C     C_R   0.321490 0.412622 0.637383 0.538967
C113  C     C_3   0.784273 0.703247 0.280364 0.029111
C114  C     C_3   0.295695 0.793011 0.707876 -0.043972
C115  C     C_3   0.646450 0.259324 0.196025 0.018866
C116  C     C_3   0.732945 0.351556 0.193967 0.015392
C117  C     C_3   0.210698 0.699593 0.711300 0.010012
C118  C     C_3   0.704122 0.800465 0.291399 -0.038611
C119  C     C_3   0.351086 0.263567 0.803732 0.014021
C120  C     C_3   0.273395 0.647554 0.190687 0.028188
C121  C     C_3   0.789014 0.300274 0.713005 0.004167
C122  C     C_3   0.297849 0.207275 0.290901 -0.039798
C123  C     C_R   0.698702 0.610812 0.400866 0.664905
C124  C     C_3   0.645888 0.744396 0.803334 0.034889
C125  C     C_3   0.231227 0.150034 0.306620 0.018968
C126  C     C_3   0.713531 0.798421 0.783993 0.057113
C127  C     C_3   0.204239 0.700307 0.210068 -0.035784
C128  C     C_3   0.853348 0.240643 0.696607 0.019977
C129  C     C_3   0.771976 0.854269 0.312444 0.012568
C130  C     C_3   0.291035 0.199221 0.788430 -0.004124
C131  C     C_3   0.797165 0.291784 0.210790 -0.041679
C132  C     C_3   0.145394 0.757917 0.695445 0.028943
C133  C     C_3   0.230184 0.851712 0.691132 0.023254
C134  C     C_R   0.387807 0.299304 0.413190 0.631987
C135  C     C_3   0.710828 0.199873 0.212395 0.002975
C136  C     C_3   0.199005 0.285602 0.785415 -0.057133
C137  C     C_3   0.852160 0.756726 0.301618 0.013304
C138  C     C_3   0.766756 0.148509 0.694099 0.016794
C139  C     C_3   0.282296 0.799062 0.219516 0.042452
C140  C     C_3   0.794369 0.701831 0.790765 -0.050108
C141  C     C_3   0.148022 0.245267 0.301140 0.031168
C142  C     C_3   0.196664 0.207668 0.363667 -0.037851
C143  C     C_3   0.745076 0.738669 0.729004 -0.057121
C144  C     C_3   0.251111 0.737999 0.273062 -0.067974
H1    H     H_    0.332074 0.848729 0.572304 0.159228
H2    H     H_    0.121511 0.415455 0.479064 0.137008
H3    H     H_    0.748722 0.729402 0.613790 0.070821
H4    H     H_    0.249381 0.801906 0.370397 0.074265
H5    H     H_    0.162476 0.776339 0.339090 0.100685
H6    H     H_    0.880331 0.147256 0.570628 0.095219
H7    H     H_    0.790434 0.145478 0.536406 0.099885
H8    H     H_    0.869671 0.852484 0.438318 0.101759
H9    H     H_    0.863537 0.758192 0.458221 0.095410
H10   H     H_    0.184194 0.253443 0.635164 0.095762
H11   H     H_    0.205405 0.164243 0.663009 0.085045
H12   H     H_    0.831675 0.220070 0.342633 0.100445
H13   H     H_    0.169677 0.325676 0.465977 0.161091
H14   H     H_    0.757009 0.265254 0.385116 0.076188
H15   H     H_    0.117157 0.851011 0.568632 0.096130
H16   H     H_    0.206374 0.849031 0.532600 0.097754
H17   H     H_    0.710210 0.687302 0.977985 0.091586
H18   H     H_    0.629600 0.736793 0.957474 0.096389
H19   H     H_    0.338273 0.268091 0.155948 0.097319
H20   H     H_    0.256717 0.236406 0.114124 0.073599
H21   H     H_    0.668948 0.286523 0.840921 0.101694
H22   H     H_    0.736493 0.232211 0.884399 0.078666
H23   H     H_    0.291557 0.686072 0.024566 0.094220
H24   H     H_    0.141528 0.388405 0.386899 0.171968
H25   H     H_    0.368259 0.741381 0.045311 0.097556
H26   H     H_    0.357254 0.376057 0.925556 0.103038
H27   H     H_    0.350448 0.287543 0.962930 0.083191
H28   H     H_    0.676378 0.707040 0.160793 0.105301
H29   H     H_    0.761077 0.727460 0.119050 0.064703
H30   H     H_    0.333574 0.732369 0.843235 0.101723
H31   H     H_    0.249996 0.759715 0.884094 0.066371
H32   H     H_    0.619653 0.352604 0.070377 0.096947
H33   H     H_    0.709620 0.354296 0.036294 0.099695
H34   H     H_    0.786626 0.546598 0.832994 0.083974
H35   H     H_    0.664727 0.149687 0.574143 0.157395
H36   H     H_    0.695048 0.532670 0.800385 0.153719
H37   H     H_    0.177414 0.393183 0.221377 0.079341
H38   H     H_    0.266599 0.402957 0.255595 0.143204
H39   H     H_    0.599946 0.155162 0.684137 0.144782
H40   H     H_    0.590987 0.241213 0.729966 0.161271
H41   H     H_    0.431750 0.814231 0.148789 0.105092
H42   H     H_    0.462892 0.724430 0.170200 0.114565
H43   H     H_    0.194258 0.448757 0.784079 0.134110
H44   H     H_    0.290315 0.464051 0.797611 0.127196
H45   H     H_    0.848056 0.604021 0.266499 0.118214
H46   H     H_    0.666559 0.205888 0.487530 0.138425
H47   H     H_    0.774332 0.612717 0.205574 0.074338
H48   H     H_    0.398699 0.845885 0.680354 0.144216
H49   H     H_    0.407401 0.760765 0.727542 0.164808
H50   H     H_    0.553363 0.225255 0.132330 0.070517
H51   H     H_    0.535350 0.297984 0.191014 0.126501
H52   H     H_    0.792738 0.453699 0.204094 0.135941
H53   H     H_    0.695472 0.463969 0.194232 0.143497
H54   H     H_    0.164116 0.606028 0.766418 0.081679
H55   H     H_    0.255883 0.594896 0.739610 0.127892
H56   H     H_    0.603779 0.854548 0.324557 0.139625
H57   H     H_    0.596780 0.130048 0.504636 0.143272
H58   H     H_    0.591010 0.773948 0.271001 0.166767
H59   H     H_    0.444296 0.228691 0.866460 0.068604
H60   H     H_    0.458365 0.309873 0.817485 0.116238
H61   H     H_    0.221910 0.540791 0.193950 0.129045
H62   H     H_    0.319570 0.538652 0.188671 0.133449
H63   H     H_    0.835696 0.393282 0.768911 0.076883
H64   H     H_    0.744089 0.404363 0.742557 0.144537
H65   H     H_    0.398085 0.151362 0.321220 0.144911
H66   H     H_    0.410650 0.235293 0.273010 0.164087
H67   H     H_    0.564482 0.810141 0.856074 0.100472
H68   H     H_    0.464089 0.829972 0.406629 0.205165
H69   H     H_    0.535157 0.719826 0.833990 0.111907
H70   H     H_    0.287776 0.045795 0.299359 0.134117
H71   H     H_    0.190059 0.039054 0.306400 0.133699
H72   H     H_    0.670939 0.890096 0.722936 0.072175
H73   H     H_    0.763235 0.898983 0.749176 0.131181
H74   H     H_    0.107293 0.639824 0.177754 0.136807
H75   H     H_    0.089757 0.722179 0.227488 0.169588
H76   H     H_    0.946726 0.274888 0.633412 0.071868
H77   H     H_    0.964137 0.201278 0.690887 0.123565
H78   H     H_    0.711713 0.952858 0.341211 0.081436
H79   H     H_    0.374262 0.810109 0.361371 0.079820
H80   H     H_    0.799677 0.969537 0.301769 0.153359
H81   H     H_    0.341938 0.106163 0.735621 0.072254
H82   H     H_    0.252922 0.090584 0.766386 0.146793
H83   H     H_    0.899977 0.345470 0.184532 0.147729
H84   H     H_    0.909024 0.259226 0.229371 0.156732
H85   H     H_    0.055323 0.704380 0.641065 0.078686
H86   H     H_    0.035018 0.793233 0.674361 0.111442
H87   H     H_    0.293498 0.951448 0.673093 0.085915
H88   H     H_    0.201013 0.966800 0.703720 0.150671
H89   H     H_    0.659799 0.106986 0.264360 0.077682
H90   H     H_    0.455046 0.848422 0.310343 0.131469
H91   H     H_    0.754038 0.096522 0.246327 0.143476
H92   H     H_    0.092574 0.330648 0.810872 0.157984
H93   H     H_    0.090839 0.243239 0.766308 0.151630
H94   H     H_    0.933572 0.691406 0.354600 0.096184
H95   H     H_    0.962756 0.781616 0.332639 0.108802
H96   H     H_    0.706960 0.046352 0.703712 0.134642
H97   H     H_    0.804257 0.036155 0.693646 0.136492
H98   H     H_    0.327186 0.891554 0.278231 0.071323
H99   H     H_    0.232210 0.897951 0.259321 0.113949
H100  H     H_    0.894573 0.644691 0.819959 0.141411
H101  H     H_    0.157484 0.392559 0.673880 0.103585
H102  H     H_    0.907835 0.728646 0.771937 0.167187
H103  H     H_    0.058247 0.288891 0.362915 0.074296
H104  H     H_    0.035943 0.211203 0.311437 0.121711
H105  H     H_    0.331617 0.792465 0.485759 0.140797
H106  H     H_    0.201863 0.371494 0.585423 0.112462
H107  H     H_    0.150629 0.460759 0.601399 0.183390
H108  H     H_    0.767808 0.558116 0.521282 0.228782
H109  H     H_    0.787516 0.658657 0.500670 0.122757
H110  H     H_    0.860767 0.585854 0.486501 0.160543
H111  H     H_    0.332204 0.210027 0.516226 0.144000
H112  H     H_    0.400535 0.132562 0.499894 0.143087
H113  H     H_    0.331733 0.151584 0.430739 0.154159
H114  H     H_    0.535070 0.831626 0.597650 0.202246
H115  H     H_    0.626915 0.807462 0.638067 0.094709
H116  H     H_    0.399816 0.869925 0.503689 0.141892
H117  H     H_    0.548802 0.846183 0.693832 0.135281
H118  H     H_    0.851105 0.468417 0.326557 0.149365
H119  H     H_    0.815621 0.373428 0.344708 0.104013
H120  H     H_    0.813938 0.446551 0.416671 0.197946
H121  H     H_    0.206525 0.654593 0.483909 0.127179
H122  H     H_    0.151295 0.662960 0.570342 0.159140
H123  H     H_    0.129820 0.587714 0.508502 0.130048
H124  H     H_    0.674716 0.843888 0.434224 0.163714
H125  H     H_    0.668454 0.781026 0.515532 0.137022
H126  H     H_    0.605791 0.864018 0.502140 0.141457
H127  H     H_    0.536070 0.166194 0.402712 0.200603
H128  H     H_    0.465357 0.164043 0.602122 0.194858
H129  H     H_    0.373566 0.187448 0.642398 0.101853
H130  H     H_    0.453991 0.155719 0.699562 0.136466
H131  H     H_    0.154861 0.527999 0.308356 0.141997
H132  H     H_    0.185760 0.619381 0.343918 0.136684
H133  H     H_    0.177240 0.538876 0.404512 0.204496
H134  H     H_    0.806884 0.328583 0.501367 0.148373
H135  H     H_    0.854713 0.348054 0.591021 0.188345
H136  H     H_    0.875296 0.406360 0.515154 0.138022
H137  H     H_    0.835492 0.350768 0.074459 0.154424
H138  H     H_    0.626986 0.188566 0.359388 0.101418
H139  H     H_    0.833263 0.293803 0.988100 0.137109
H140  H     H_    0.903446 0.369493 0.004752 0.141808
H141  H     H_    0.039267 0.665647 0.900891 0.194836
H142  H     H_    0.128967 0.689296 0.856640 0.092967
H143  H     H_    0.047522 0.653109 0.803743 0.136778
H144  H     H_    0.315956 0.125970 0.156621 0.098146
H145  H     H_    0.319089 0.050063 0.087945 0.187484
H146  H     H_    0.350065 0.031803 0.180842 0.152942
H147  H     H_    0.726075 0.937446 0.025385 0.224030
H148  H     H_    0.708698 0.837636 0.999610 0.120577
H149  H     H_    0.545894 0.153095 0.305545 0.135555
H150  H     H_    0.635473 0.910321 0.985025 0.158519
H151  H     H_    0.170907 0.654837 0.067523 0.156544
H152  H     H_    0.159433 0.714269 0.983953 0.128893
H153  H     H_    0.097124 0.632714 0.004574 0.148650
H154  H     H_    0.964045 0.336022 0.901559 0.196863
H155  H     H_    0.871822 0.311195 0.862041 0.101978
H156  H     H_    0.950332 0.346421 0.804725 0.135644
H157  H     H_    0.670875 0.949224 0.222556 0.150949
H158  H     H_    0.686963 0.885406 0.143422 0.126216
H159  H     H_    0.658493 0.983219 0.131640 0.190414
H160  H     H_    0.811080 0.620156 0.645314 0.106551
H161  H     H_    0.373953 0.090172 0.984557 0.141862
H162  H     H_    0.301045 0.161788 0.007289 0.129027
H163  H     H_    0.351642 0.159646 0.917687 0.176920
H164  H     H_    0.843086 0.711100 0.016407 0.130074
H165  H     H_    0.904861 0.630333 0.991303 0.148102
H166  H     H_    0.829689 0.654713 0.930902 0.159845
H167  H     H_    0.037886 0.337387 0.096491 0.196105
H168  H     H_    0.130983 0.310663 0.133119 0.093091
H169  H     H_    0.055586 0.349124 0.192597 0.129760
H170  H     H_    0.338098 0.939455 0.786379 0.148589
H171  H     H_    0.840581 0.524026 0.624317 0.187568
H172  H     H_    0.312080 0.871896 0.859007 0.102816
H173  H     H_    0.345227 0.967579 0.879509 0.182308
H174  H     H_    0.691126 0.172401 0.003058 0.151256
H175  H     H_    0.644635 0.148724 0.092490 0.186982
H176  H     H_    0.624385 0.093002 0.014519 0.140583
H177  H     H_    0.160843 0.352631 0.919512 0.166722
H178  H     H_    0.172730 0.298730 0.006719 0.142957
H179  H     H_    0.099088 0.371710 0.994247 0.136289
H180  H     H_    0.963272 0.652756 0.190978 0.134225
H181  H     H_    0.956431 0.673699 0.094520 0.200666
H182  H     H_    0.833231 0.551044 0.717931 0.148511
H183  H     H_    0.874681 0.688789 0.153965 0.084094
H184  H     H_    0.649877 0.027292 0.826394 0.159269
H185  H     H_    0.683279 0.123809 0.840678 0.105987
H186  H     H_    0.686225 0.054481 0.915624 0.200215
H187  H     H_    0.268994 0.942582 0.980073 0.230398
H188  H     H_    0.290639 0.841864 0.999938 0.115940
H189  H     H_    0.362036 0.916097 0.015870 0.159364
H190  H     H_    0.116634 0.150078 0.425858 0.094404
H191  H     H_    0.205101 0.150819 0.463780 0.098615
H192  H     H_    0.832910 0.757525 0.653296 0.102837
N1    N     N_R   0.424590 0.632770 0.578330 -0.134005
N2    N     N_R   0.575410 0.632770 0.578330 -0.128772
N3    N     N_R   0.632770 0.424590 0.421670 -0.137130
N4    N     N_R   0.367230 0.575410 0.578330 -0.142433
N5    N     N_R   0.575410 0.632770 0.421670 -0.132607
N6    N     N_R   0.424590 0.367230 0.578330 -0.132073
N7    N     N_R   0.367230 0.575410 0.421670 -0.133534
N8    N     N_R   0.632770 0.424590 0.578330 -0.136831
N9    N     N_R   0.924590 0.132770 0.078330 -0.132626
N10   N     N_R   0.075410 0.867230 0.921670 -0.129151
N11   N     N_R   0.132770 0.075410 0.078330 -0.136722
N12   N     N_R   0.575410 0.367230 0.421670 -0.129909
N13   N     N_R   0.867230 0.924590 0.921670 -0.142246
N14   N     N_R   0.075410 0.867230 0.078330 -0.132211
N15   N     N_R   0.924590 0.132770 0.921670 -0.129178
N16   N     N_R   0.867230 0.924590 0.078330 -0.145716
N17   N     N_R   0.132770 0.075410 0.921670 -0.138560
N18   N     N_R   0.924590 0.867230 0.921670 -0.133136
N19   N     N_R   0.075410 0.132770 0.078330 -0.127862
N20   N     N_R   0.132770 0.924590 0.921670 -0.146470
N21   N     N_R   0.867230 0.075410 0.078330 -0.134944
N22   N     N_R   0.075410 0.132770 0.921670 -0.131007
N23   N     N_R   0.632770 0.575410 0.578330 -0.147935
N24   N     N_R   0.924590 0.867230 0.078330 -0.130016
N25   N     N_R   0.867230 0.075410 0.921670 -0.134187
N26   N     N_R   0.132770 0.924590 0.078330 -0.144531
N27   N     N_3   0.164672 0.185390 0.436146 -0.233277
N28   N     N_3   0.772805 0.764086 0.655568 -0.230448
N29   N     N_3   0.218847 0.755793 0.346941 -0.233601
N30   N     N_3   0.831151 0.181454 0.562007 -0.229447
N31   N     N_3   0.830943 0.806046 0.441359 -0.224237
N32   N     N_3   0.229499 0.219099 0.654756 -0.235252
N33   N     N_3   0.771398 0.225361 0.343389 -0.234796
N34   N     N_R   0.367230 0.424590 0.421670 -0.134977
N35   N     N_3   0.165224 0.815211 0.560056 -0.230375
N36   N     N_3   0.664309 0.690476 0.940233 -0.215507
N37   N     N_3   0.277906 0.272189 0.156587 -0.230412
N38   N     N_3   0.728251 0.274850 0.843904 -0.235166
N39   N     N_3   0.336815 0.692937 0.062600 -0.217111
N40   N     N_3   0.318926 0.330241 0.935067 -0.221500
N41   N     N_3   0.718722 0.749816 0.154432 -0.231866
N42   N     N_3   0.273433 0.726403 0.840851 -0.231720
N43   N     N_3   0.668832 0.318372 0.061687 -0.229522
N44   N     N_3   0.729611 0.566496 0.835458 -0.220411
N45   N     N_R   0.575410 0.367230 0.578330 -0.132506
N46   N     N_3   0.210613 0.384785 0.269255 -0.198211
N47   N     N_3   0.622092 0.189413 0.727193 -0.233743
N48   N     N_3   0.431259 0.771749 0.190411 -0.190833
N49   N     N_3   0.242477 0.431752 0.815111 -0.228954
N50   N     N_3   0.790188 0.620898 0.261435 -0.161572
N51   N     N_3   0.376251 0.812426 0.723657 -0.236314
N52   N     N_3   0.563680 0.244567 0.186790 -0.194421
N53   N     N_3   0.744033 0.433194 0.175780 -0.233705
N54   N     N_3   0.202079 0.616188 0.722396 -0.168186
N55   N     N_3   0.624162 0.823982 0.278182 -0.232959
N56   N     N_R   0.424590 0.632770 0.421670 -0.132892
N57   N     N_3   0.434372 0.254318 0.814543 -0.186007
N58   N     N_3   0.269891 0.566209 0.168479 -0.222602
N59   N     N_3   0.797853 0.383500 0.724690 -0.178254
N60   N     N_3   0.377871 0.184703 0.276783 -0.235809
N61   N     N_3   0.565575 0.767900 0.814022 -0.191546
N62   N     N_3   0.238988 0.068327 0.326083 -0.235159
N63   N     N_3   0.708564 0.881162 0.767474 -0.155075
N64   N     N_3   0.125326 0.673506 0.223001 -0.234224
N65   N     N_3   0.936204 0.254946 0.687513 -0.192498
N66   N     N_3   0.769260 0.934397 0.338960 -0.227280
N67   N     N_R   0.367230 0.424590 0.578330 -0.125797
N68   N     N_3   0.305601 0.116222 0.780900 -0.172369
N69   N     N_3   0.877705 0.310926 0.227158 -0.233056
N70   N     N_3   0.063041 0.741125 0.686884 -0.186909
N71   N     N_3   0.236133 0.933005 0.669111 -0.232830
N72   N     N_3   0.701916 0.116747 0.223938 -0.181473
N73   N     N_3   0.117415 0.297542 0.768362 -0.233782
N74   N     N_3   0.932496 0.733399 0.312530 -0.191802
N75   N     N_3   0.755631 0.066894 0.675478 -0.233402
N76   N     N_3   0.285814 0.881759 0.236979 -0.151921
N77   N     N_3   0.874189 0.678607 0.775988 -0.236337
N78   N     N_R   0.632770 0.575410 0.421670 -0.147371
N79   N     N_3   0.066092 0.263730 0.310275 -0.195075
N80   N     N_R   0.424590 0.367230 0.421670 -0.133018
Ni1   Ni    Ni4+2 0.500000 0.631570 0.500000 0.251379
Ni2   Ni    Ni4+2 0.500000 0.368430 0.500000 0.259088
Ni3   Ni    Ni4+2 0.631570 0.500000 0.500000 0.209437
Ni4   Ni    Ni4+2 0.368430 0.500000 0.500000 0.258981
Ni5   Ni    Ni4+2 0.000000 0.131570 0.000000 0.261361
Ni6   Ni    Ni4+2 0.000000 0.868430 0.000000 0.247641
Ni7   Ni    Ni4+2 0.131570 0.000000 0.000000 0.211156
Ni8   Ni    Ni4+2 0.868430 0.000000 0.000000 0.219921
O1    O     O_3   0.421863 0.768794 0.560540 -0.585056
O2    O     O_3   0.532276 0.732538 0.662603 -0.615697
O3    O     O_3   0.732485 0.462220 0.334211 -0.601865
O4    O     O_3   0.230610 0.573095 0.567582 -0.559536
O5    O     O_3   0.579272 0.769468 0.436758 -0.592675
O6    O     O_3   0.465681 0.267040 0.661848 -0.614112
O7    O     O_3   0.271363 0.532360 0.333019 -0.627151
O8    O     O_3   0.768520 0.425038 0.562706 -0.611336
O9    O     O_3   0.923336 0.269012 0.062970 -0.577010
O10   O     O_3   0.034375 0.766145 0.837897 -0.608530
O11   O     O_3   0.232111 0.037535 0.165980 -0.603896
O12   O     O_3   0.533149 0.266067 0.339216 -0.617332
O13   O     O_3   0.727847 0.919114 0.913537 -0.577474
O14   O     O_3   0.076102 0.730003 0.067550 -0.587164
O15   O     O_3   0.966078 0.234509 0.840001 -0.617114
O16   O     O_3   0.772633 0.971686 0.166185 -0.619103
O17   O     O_3   0.269441 0.073978 0.932224 -0.595875
O18   O     O_3   0.924361 0.730057 0.932050 -0.581285
O19   O     O_3   0.035514 0.236859 0.158931 -0.613559
O20   O     O_3   0.233428 0.964892 0.836840 -0.611535
O21   O     O_3   0.732071 0.074632 0.060145 -0.609986
O22   O     O_3   0.077044 0.268634 0.940416 -0.584070
O23   O     O_3   0.728397 0.530626 0.666292 -0.615763
O24   O     O_3   0.966805 0.768955 0.164769 -0.609974
O25   O     O_3   0.768285 0.036661 0.833905 -0.610305
O26   O     O_3   0.272096 0.917869 0.090425 -0.575622
O27   O     O_3   0.235614 0.425517 0.449836 -0.584606
O28   O     O_3   0.576585 0.231044 0.562477 -0.581373
O29   O     O_3   0.466845 0.733063 0.337965 -0.616012
O30   O     O_3   0.256777 0.455879 0.654274 -0.612035
O31   O     O_3   0.772247 0.581750 0.410251 -0.581091
O32   O     O_3   0.421593 0.231465 0.439584 -0.582519

loop_
_geom_bond_atom_site_label_1
_geom_bond_atom_site_label_2
_ccdc_geom_bond_type
C5    C136  S    
C51   H189  S    
C34   H140  S    
C81   C126  S    
C62   N17   A    
N5    Ni1   S    
C44   H168  S    
C78   C115  S    
H87   N71   S    
C83   C128  S    
N14   Ni6   S    
C41   H159  S    
C9    C108  S    
C72   C142  S    
N3    N12   A    
H36   N44   S    
C27   O2    S    
C2    O2    S    
N20   Ni7   S    
H45   N50   S    
C4    N31   S    
C7    C133  S    
C124  N61   S    
C2    N2    A    
C126  C143  S    
C119  C130  S    
H93   N73   S    
H59   N57   S    
C107  C140  S    
H67   N61   S    
C117  C132  S    
H30   N42   S    
C22   H90   S    
N13   Ni8   S    
C37   H146  S    
H14   N33   S    
C22   H68   S    
N2    N23   A    
C5    N32   S    
C36   H142  S    
C61   C105  A    
C18   H149  S    
C112  N67   A    
C81   C102  S    
C121  N59   S    
H41   N48   S    
C122  N60   S    
C21   O28   S    
C13   C91   A    
C29   H122  S    
C30   H125  S    
H86   N70   S    
C82   C141  S    
C20   H24   S    
N15   Ni5   S    
N10   N20   A    
C127  N64   S    
H81   N68   S    
C39   O14   S    
C8    C81   S    
C21   H57   S    
C40   H156  S    
C90   O28   S    
H70   N62   S    
C121  C128  S    
C69   C105  A    
C48   H178  S    
N17   Ni7   S    
C76   C118  S    
C118  N55   S    
H190  N27   S    
C31   O6    S    
C82   C125  S    
C32   H132  S    
C49   H180  S    
H84   N69   S    
C9    N37   S    
C114  N51   S    
H27   N40   S    
C11   N39   S    
C3    C138  S    
C17   H116  S    
C23   O30   S    
N9    Ni5   S    
C7    C132  S    
C5    C130  S    
C16   N43   S    
C51   H187  S    
C144  N29   S    
C47   H175  S    
C11   C84   S    
C20   H2    S    
C71   N26   A    
C5    C77   S    
C16   C115  S    
N1    N4    A    
N12   Ni2   S    
C80   C117  S    
H102  N77   S    
C56   N11   A    
H74   N64   S    
C88   C135  S    
C143  N28   S    
C74   C110  S    
H63   N59   S    
C62   C106  A    
N2    Ni1   S    
H99   N76   S    
N8    Ni3   S    
C74   C120  S    
C20   O27   S    
C48   O22   S    
C42   H163  S    
C65   O20   S    
C118  C129  S    
C26   H113  S    
C41   O16   S    
C142  N27   S    
C68   C92   A    
H39   N47   S    
C37   O11   S    
C73   C107  S    
C130  N68   S    
C119  N57   S    
C21   H35   S    
C46   C96   A    
C67   N22   A    
C50   H185  S    
C31   H128  S    
C32   H131  S    
H7    N30   S    
C19   H160  S    
H17   N36   S    
C26   H112  S    
C43   O18   S    
C31   H130  S    
C83   C138  S    
C32   H133  S    
H96   N75   S    
C87   C132  S    
H104  N79   S    
H5    N29   S    
H77   N65   S    
C10   N38   S    
C140  N77   S    
C28   O3    S    
C140  C143  S    
C125  N62   S    
C120  C127  S    
C129  N66   S    
H97   N75   S    
H62   N58   S    
H98   N76   S    
C23   H106  S    
C26   H111  S    
C111  C136  S    
C6    C78   S    
H12   N33   S    
C12   C119  S    
C10   C109  S    
C101  N56   A    
C38   H147  S    
N15   N25   A    
C4    C137  S    
H73   N63   S    
C52   N7    A    
C19   H171  S    
C72   C108  S    
C65   N20   A    
C51   O26   S    
N16   Ni8   S    
C45   O20   S    
H42   N48   S    
N6    Ni2   S    
C3    C75   S    
C13   N3    A    
N4    Ni4   S    
C54   O9    S    
H58   N55   S    
C24   N4    A    
C11   C110  S    
H38   N46   S    
C139  N76   S    
C63   C102  A    
C11   C120  S    
C1    O1    S    
C90   N45   A    
C137  N74   S    
C53   N8    A    
C33   H134  S    
C15   C114  S    
C42   H161  S    
C14   C86   S    
C25   H109  S    
C3    C128  S    
C19   H182  S    
H53   N53   S    
H76   N65   S    
C53   O8    S    
C109  C138  S    
C77   C96   S    
C6    C135  S    
H64   N59   S    
C132  N70   S    
C133  N71   S    
C138  N75   S    
C76   C113  S    
C134  O32   S    
H82   N68   S    
H15   N35   S    
N22   Ni5   S    
N16   N24   A    
C39   H151  S    
H95   N74   S    
C128  N65   S    
C85   C106  S    
C8    C107  S    
C126  N63   S    
H34   N44   S    
C124  C126  S    
C7    N35   S    
C71   C103  A    
N14   N26   A    
N9    N21   A    
C53   C94   A    
C12   N40   S    
N7    N56   A    
C109  N47   S    
C78   C116  S    
C73   C92   S    
H65   N60   S    
C41   H158  S    
C28   H119  S    
C30   O5    S    
N23   Ni3   S    
C36   H143  S    
C59   C103  A    
C66   C98   A    
C122  C125  S    
N11   N19   A    
C97   C123  A    
C50   H184  S    
C17   H105  S    
C85   C136  S    
C54   N9    A    
C37   H145  S    
H47   N50   S    
C55   C99   A    
C38   H150  S    
C88   C131  S    
C60   C104  A    
N13   N18   A    
C88   C98   S    
C95   C101  A    
N19   Ni5   S    
C33   H136  S    
C47   O21   S    
C59   O14   S    
C6    N33   S    
C25   O31   S    
C81   C140  S    
C29   H121  S    
C43   H166  S    
C30   H126  S    
C44   H169  S    
N6    N67   A    
C52   O7    S    
H26   N40   S    
C62   O17   S    
H23   N39   S    
N11   Ni7   S    
C110  C139  S    
H49   N51   S    
H50   N52   S    
N67   Ni4   S    
C70   C104  A    
C131  N69   S    
C120  N58   S    
H9    N31   S    
H22   N38   S    
C10   C83   S    
H61   N58   S    
C52   C95   A    
C45   H173  S    
C80   C89   S    
C77   C111  S    
H56   N55   S    
C23   H107  S    
C86   C137  S    
C84   C139  S    
C70   N25   A    
C58   C102  A    
C123  N78   A    
C9    C82   S    
H29   N41   S    
C10   C121  S    
H32   N43   S    
N7    Ni4   S    
C34   H139  S    
C44   H167  S    
C82   C100  S    
C36   H141  S    
C70   O25   S    
H91   N72   S    
C16   C116  S    
C108  C141  S    
C111  N49   S    
C90   C94   A    
C29   O4    S    
C64   O19   S    
C8    N36   S    
H33   N43   S    
C60   N15   A    
H75   N64   S    
C79   N34   A    
H43   N49   S    
C34   O9    S    
C76   C97   S    
H21   N38   S    
C15   C117  S    
C19   O23   S    
H6    N30   S    
C56   O11   S    
N80   Ni2   S    
C23   H101  S    
C17   H1    S    
N8    N45   A    
C85   C130  S    
H80   N66   S    
N34   Ni4   S    
C68   N23   A    
C13   O3    S    
C38   H148  S    
C9    C122  S    
C61   N16   A    
H100  N77   S    
C39   H153  S    
C65   C99   A    
N18   Ni6   S    
C38   O13   S    
C58   O13   S    
C72   C93   S    
C63   N18   A    
C20   H13   S    
C50   H186  S    
C29   H123  S    
C50   O25   S    
C101  O29   S    
C43   H164  S    
C30   H124  S    
N5    N78   A    
C3    N30   S    
C31   H129  S    
C66   O21   S    
H103  N79   S    
C73   C143  S    
H54   N54   S    
C27   H114  S    
C74   C144  S    
C57   C91   A    
C141  N79   S    
C40   H155  S    
C8    C124  S    
C6    C131  S    
C46   O6    S    
C67   C106  A    
C4    C129  S    
C48   H177  S    
C14   C113  S    
C26   O32   S    
H192  N28   S    
N25   Ni8   S    
C113  C137  S    
N26   Ni7   S    
H55   N54   S    
C18   O12   S    
C14   N41   S    
C49   H181  S    
H60   N57   S    
H25   N39   S    
H83   N69   S    
C107  N44   S    
C28   H118  S    
C112  O30   S    
H52   N53   S    
C25   H108  S    
H11   N32   S    
C127  C144  S    
H19   N37   S    
C35   O5    S    
H10   N32   S    
C64   C100  A    
C36   O10   S    
C51   H188  S    
C34   H137  S    
C110  N48   S    
C47   H176  S    
C16   C88   S    
C71   O26   S    
H66   N60   S    
C116  N53   S    
C68   O23   S    
C46   N6    A    
H92   N73   S    
C75   C94   S    
C7    C80   S    
C87   C133  S    
H72   N63   S    
N45   Ni2   S    
C63   O18   S    
C24   C89   A    
C45   H172  S    
C96   C112  A    
C115  C135  S    
C12   C85   S    
C42   H162  S    
C42   O17   S    
C15   N42   S    
C79   C93   A    
H16   N35   S    
C55   O10   S    
C69   N24   A    
H37   N46   S    
H4    N29   S    
C27   H117  S    
H88   N71   S    
H69   N61   S    
C61   O16   S    
C14   C118  S    
C57   O12   S    
N17   N22   A    
H48   N51   S    
C84   C127  S    
N10   Ni6   S    
C136  N73   S    
C35   N5    A    
C37   H144  S    
C18   H127  S    
C87   C99   S    
N56   Ni1   S    
C48   H179  S    
C24   O4    S    
C75   C109  S    
C83   C104  S    
C44   O19   S    
H18   N36   S    
H28   N41   S    
C93   C134  A    
C49   H183  S    
H40   N47   S    
C49   O24   S    
H89   N72   S    
C41   H157  S    
C108  N46   S    
C28   H120  S    
H44   N49   S    
N21   Ni8   S    
C134  N80   A    
C57   N12   A    
C139  C144  S    
C22   O29   S    
C18   H138  S    
C125  C142  S    
C73   C124  S    
N34   N80   A    
H3    N28   S    
C47   H174  S    
C67   O22   S    
H191  N27   S    
C2    C92   A    
H8    N31   S    
N78   Ni3   S    
H94   N74   S    
C123  O31   S    
C58   N13   A    
C80   C114  S    
C55   N10   A    
H71   N62   S    
C86   C105  S    
C56   C100  A    
C1    N1    A    
C135  N72   S    
C79   O27   S    
C15   C87   S    
C33   H135  S    
C33   O8    S    
N3    Ni3   S    
H31   N42   S    
C1    C89   A    
C72   C122  S    
C75   C121  S    
N1    Ni1   S    
C74   C95   S    
C43   H165  S    
C64   N19   A    
C77   C119  S    
H78   N66   S    
C25   H110  S    
C86   C129  S    
C59   N14   A    
C78   C91   S    
C27   H115  S    
C22   H79   S    
H51   N52   S    
C40   O15   S    
C60   O15   S    
C40   H154  S    
C141  C142  S    
H20   N37   S    
C66   N21   A    
C21   H46   S    
C116  C131  S    
C117  N54   S    
C69   O24   S    
C114  C133  S    
C17   O1    S    
C115  N52   S    
C32   O7    S    
C45   H170  S    
C4    C76   S    
C113  N50   S    
N24   Ni6   S    
H85   N70   S    
C39   H152  S    
C84   C103  S    
C54   C98   A    
C35   C97   A    
C12   C111  S    
