data_mof_unit_12994.cif
_audit_creation_date              2013-03-05T16:18:08-0500
_audit_creation_method            fapswitch 2.2
_symmetry_space_group_name_H-M    P1
_symmetry_Int_Tables_number       1
_space_group_crystal_system       triclinic
_cell_length_a                    10.923925
_cell_length_b                    10.108551
_cell_length_c                    15.757369
_cell_angle_alpha                 89.116763
_cell_angle_beta                  88.159847
_cell_angle_gamma                 89.162079
_cell_volume                      1738.73056007

loop_
_atom_site_label
_atom_site_type_symbol
_atom_site_description
_atom_site_fract_x
_atom_site_fract_y
_atom_site_fract_z
_atom_type_partial_charge
O1    O     O_R   0.314910 0.616040 0.499980 -0.523611
O2    O     O_R   0.314910 0.383960 0.499980 -0.519414
C1    C     C_R   0.258300 0.498531 0.505049 1.044972
O3    O     O_R   0.500120 0.616090 0.377110 -0.602742
O4    O     O_R   0.500120 0.383910 0.377110 -0.553413
C2    C     C_R   0.501296 0.501034 0.339097 0.845744
Zn1   Zn    Zn3+2 0.500150 0.654960 0.499960 1.103057
Zn2   Zn    Zn3+2 0.500150 0.345040 0.499960 1.157494
O5    O     O_R   0.685320 0.616040 0.499960 -0.574404
O6    O     O_R   0.685320 0.383960 0.499960 -0.454036
O7    O     O_R   0.500110 0.615990 0.622830 -0.537658
O8    O     O_R   0.500110 0.384010 0.622830 -0.554987
C3    C     C_R   0.741031 0.498800 0.499637 0.982071
C4    C     C_R   0.499388 0.499581 0.660726 0.808752
C5    C     C_3   0.436970 0.638589 0.050951 0.643441
C6    C     C_3   0.427594 0.381611 0.054360 0.711314
C7    C     C_3   0.438884 0.367641 0.953922 0.772516
C8    C     C_3   0.410630 0.625291 0.952750 0.797024
C9    C     C_1   0.494625 0.500530 0.749669 -0.159444
C10   C     C_3   0.503799 0.506204 0.082046 -0.308718
C11   C     C_3   0.491887 0.503751 0.917194 -0.337249
C12   C     C_3   0.630393 0.517957 0.942522 0.611917
C13   C     C_3   0.640522 0.498169 0.042650 0.746242
C14   C     C_1   0.490914 0.503425 0.825047 0.236501
C15   C     C_1   0.505949 0.506139 0.174313 0.141993
C16   C     C_1   0.504456 0.504073 0.249890 -0.233306
C17   C     C_3   0.068020 0.629912 0.536381 0.754049
C18   C     C_3   0.062943 0.387026 0.576007 0.612974
C19   C     C_3   0.923941 0.624362 0.547907 0.510412
C20   C     C_3   0.920763 0.372112 0.559272 0.679724
C21   C     C_3   0.077998 0.457597 0.415145 0.622221
C22   C     C_3   0.119110 0.492051 0.508517 -0.316303
C23   C     C_3   0.877347 0.494724 0.502430 -0.355508
C24   C     C_3   0.934391 0.475615 0.409330 0.501400
C25   C     C_3   0.373837 0.089928 0.509431 0.712616
C26   C     C_3   0.370979 0.929734 0.490001 0.576469
C27   C     C_3   0.555772 0.083808 0.415415 0.681399
C28   C     C_3   0.580529 0.922507 0.425446 0.652804
C29   C     C_3   0.574792 0.074571 0.569111 0.556147
C30   C     C_3   0.551470 0.914075 0.578458 0.596261
N1    N     N_3   0.499750 0.138610 0.498180 -0.168436
N2    N     N_3   0.499750 0.861390 0.498180 -0.177947
O9    O     O_3   0.282818 0.596838 0.946442 -0.546949
C31   C     C_3   0.229254 0.631850 0.868582 -0.200004
H1    H     H_    0.167421 0.551288 0.851557 0.192977
H2    H     H_    0.295194 0.649633 0.814916 0.165235
H3    H     H_    0.171032 0.721735 0.877275 0.133952
O10   O     O_3   0.320925 0.348353 0.918570 -0.602738
C32   C     C_3   0.266241 0.224987 0.938849 -0.283722
H4    H     H_    0.189973 0.239354 0.986033 0.209694
H5    H     H_    0.329701 0.147293 0.962065 0.137036
H6    H     H_    0.225734 0.186666 0.880598 0.142089
O11   O     O_3   0.875504 0.745919 0.518270 -0.692669
H7    H     H_    0.861408 0.740320 0.457219 0.384941
O12   O     O_3   0.893025 0.251144 0.520076 -0.669464
H8    H     H_    0.959785 0.220053 0.481490 0.393625
O13   O     O_3   0.140669 0.539393 0.354663 -0.753316
H9    H     H_    0.111536 0.519159 0.297332 0.340467
O14   O     O_3   0.113017 0.325712 0.398652 -0.751955
H10   H     H_    0.112092 0.310188 0.336663 0.330250
O15   O     O_3   0.907020 0.585825 0.357029 -0.866546
H11   H     H_    0.827916 0.569782 0.330156 0.330469
O16   O     O_3   0.883757 0.362364 0.372676 -0.732129
H12   H     H_    0.909665 0.361204 0.311671 0.316161
O17   O     O_3   0.307334 0.154423 0.445288 -0.614496
H13   H     H_    0.219311 0.143260 0.454765 0.391000
O18   O     O_3   0.336302 0.913455 0.404959 -0.722721
H14   H     H_    0.326573 0.817272 0.395962 0.407214
O19   O     O_3   0.324894 0.145108 0.588489 -0.545272
C33   C     C_3   0.299046 0.075547 0.666683 -0.247904
H15   H     H_    0.368552 0.090796 0.714397 0.192503
H16   H     H_    0.277070 0.971066 0.664747 0.223079
H17   H     H_    0.216335 0.120719 0.697005 0.120547
O20   O     O_3   0.276388 0.870733 0.541346 -0.519104
C34   C     C_3   0.160700 0.937367 0.526690 -0.082008
H18   H     H_    0.137923 0.948460 0.458682 0.199402
H19   H     H_    0.149073 0.030140 0.558347 0.122391
H20   H     H_    0.082871 0.889151 0.556621 0.204903
O21   O     O_3   0.471347 0.107543 0.348647 -0.540104
C35   C     C_3   0.520033 0.127095 0.265618 -0.092342
H21   H     H_    0.443574 0.118072 0.221825 0.187064
H22   H     H_    0.589034 0.052164 0.246223 0.122517
H23   H     H_    0.557750 0.227628 0.257991 0.180986
O22   O     O_3   0.550949 0.861752 0.347224 -0.581139
C36   C     C_3   0.651912 0.808780 0.299679 -0.208623
H24   H     H_    0.701324 0.733941 0.337495 0.207019
H25   H     H_    0.715280 0.886389 0.275474 0.111985
H26   H     H_    0.617522 0.757259 0.244515 0.168826
O23   O     O_3   0.700321 0.096717 0.550412 -0.617052
H27   H     H_    0.749282 0.075643 0.600905 0.342500
O24   O     O_3   0.662055 0.845541 0.594618 -0.623597
H28   H     H_    0.693718 0.875581 0.649293 0.298790
O25   O     O_3   0.547415 0.138613 0.645778 -0.733707
H29   H     H_    0.597715 0.097655 0.690689 0.272897
O26   O     O_3   0.469980 0.882561 0.646359 -0.761401
H30   H     H_    0.509669 0.897406 0.701070 0.321529
O27   O     O_3   0.664587 0.155696 0.397807 -0.656009
H31   H     H_    0.708646 0.121382 0.346768 0.290675
O28   O     O_3   0.704759 0.897937 0.444580 -0.704649
H32   H     H_    0.762019 0.944795 0.405354 0.332626
O29   O     O_3   0.320912 0.653411 0.096135 -0.546570
C37   C     C_3   0.312163 0.757602 0.155075 -0.187454
H33   H     H_    0.217752 0.759779 0.183173 0.187319
H34   H     H_    0.327775 0.855418 0.123784 0.155683
H35   H     H_    0.375076 0.741093 0.208243 0.183912
O30   O     O_3   0.300771 0.402010 0.078069 -0.554920
C38   C     C_3   0.259521 0.333735 0.152468 -0.191035
H36   H     H_    0.169152 0.375958 0.172589 0.157923
H37   H     H_    0.321397 0.344218 0.206162 0.197010
H38   H     H_    0.245605 0.227537 0.139325 0.119427
O31   O     O_3   0.477299 0.266917 0.093942 -0.778879
H39   H     H_    0.433144 0.188474 0.074943 0.324710
O32   O     O_3   0.512440 0.749670 0.061196 -0.814884
H40   H     H_    0.542603 0.749285 0.119473 0.348384
O33   O     O_3   0.521766 0.259365 0.935152 -0.574214
C39   C     C_3   0.521008 0.211977 0.850866 -0.176111
H41   H     H_    0.442533 0.245847 0.812931 0.162984
H42   H     H_    0.519393 0.102358 0.853462 0.140510
H43   H     H_    0.606827 0.240485 0.816367 0.223945
O34   O     O_3   0.443823 0.743137 0.905786 -0.604653
C40   C     C_3   0.375740 0.858026 0.929596 -0.237478
H44   H     H_    0.296575 0.839449 0.973930 0.182308
H45   H     H_    0.340462 0.906553 0.871457 0.129405
H46   H     H_    0.437512 0.928802 0.959229 0.209582
O35   O     O_3   0.712446 0.599329 0.079052 -0.666328
C41   C     C_3   0.837272 0.599710 0.051214 -0.249200
H47   H     H_    0.868055 0.511416 0.015069 0.178281
H48   H     H_    0.894897 0.605306 0.107737 0.179441
H49   H     H_    0.855347 0.689558 0.011767 0.198646
O36   O     O_3   0.691391 0.368265 0.057897 -0.539083
C42   C     C_3   0.750217 0.348935 0.136176 -0.150050
H50   H     H_    0.723979 0.251178 0.163023 0.162859
H51   H     H_    0.729117 0.424706 0.184722 0.154456
H52   H     H_    0.850845 0.344818 0.124415 0.133141
O37   O     O_3   0.675612 0.640833 0.911257 -0.754563
H53   H     H_    0.654090 0.712334 0.950968 0.397866
O38   O     O_3   0.700909 0.418170 0.901289 -0.687777
H54   H     H_    0.786901 0.447644 0.894535 0.364121
O39   O     O_3   0.103467 0.715732 0.469036 -0.740000
H55   H     H_    0.045579 0.720887 0.422707 0.369829
O40   O     O_3   0.117851 0.262845 0.567590 -0.761198
H56   H     H_    0.077612 0.206940 0.612380 0.320969
O41   O     O_3   0.135569 0.666469 0.609924 -0.550117
C43   C     C_3   0.078255 0.734496 0.679105 -0.127441
H57   H     H_    0.049210 0.663083 0.729660 0.212177
H58   H     H_    0.999911 0.799791 0.662615 0.174303
H59   H     H_    0.147341 0.797777 0.707651 0.115774
O42   O     O_3   0.074560 0.430975 0.661374 -0.580886
C44   C     C_3   0.191529 0.408756 0.695908 -0.250899
H60   H     H_    0.232034 0.504601 0.710763 0.159574
H61   H     H_    0.259521 0.357571 0.654581 0.232432
H62   H     H_    0.180487 0.350643 0.755821 0.178089
O43   O     O_3   0.886534 0.613126 0.634079 -0.704248
H63   H     H_    0.797622 0.633949 0.639620 0.396858
O44   O     O_3   0.853854 0.371011 0.637501 -0.678621
H64   H     H_    0.875733 0.288079 0.668453 0.346627

loop_
_geom_bond_atom_site_label_1
_geom_bond_atom_site_label_2
_geom_bond_distance
_ccdc_geom_bond_type
C5    C8    1.591043 S    
O12   H8    0.985402 S    
O25   H29   0.991682 S    
C17   C19   1.580264 S    
C8    C11   1.602702 S    
C26   N2    1.566247 S    
O26   H30   0.991768 S    
C7    O10   1.437198 S    
O9    C31   1.414037 S    
C42   H52   1.109170 S    
C27   O27   1.419823 S    
O27   H31   0.988745 S    
C26   O18   1.416857 S    
O37   H53   0.984257 S    
C29   N1    1.536655 S    
O11   H7    0.981734 S    
O34   C40   1.418767 S    
Zn1   O7    1.969804 S    
C27   O21   1.436335 S    
C12   O38   1.413621 S    
O29   C37   1.415089 S    
C19   O43   1.408749 S    
C6    C10   1.593880 S    
C28   N2    1.550174 S    
O2    C1    1.307222 A    
C44   H61   1.100693 S    
O4    C2    1.318630 A    
O7    C4    1.311346 A    
O30   C38   1.415615 S    
C25   O17   1.409740 S    
O33   C39   1.419116 S    
C19   C23   1.600550 S    
C39   H41   1.107896 S    
C37   H35   1.109672 S    
Zn1   N2    2.086408 S    
C21   O14   1.407330 S    
O5    C3    1.324317 A    
C29   O25   1.401140 S    
C40   H46   1.109010 S    
O40   H56   0.992843 S    
O22   C36   1.416491 S    
C21   C22   1.597037 S    
C6    C7    1.591772 S    
C32   H5    1.105766 S    
C17   O41   1.449165 S    
C38   H36   1.108582 S    
C5    O32   1.416961 S    
C33   H15   1.099628 S    
C20   C23   1.593501 S    
C31   H3    1.109136 S    
C6    O30   1.436043 S    
C13   O35   1.436151 S    
C30   N2    1.509464 S    
O14   H10   0.992096 S    
C11   C12   1.586213 S    
C38   H37   1.107040 S    
O19   C33   1.431454 S    
C43   H59   1.107186 S    
C31   H2    1.107369 S    
C36   H25   1.108968 S    
C5    C10   1.593118 S    
C18   O42   1.433165 S    
O20   C34   1.446795 S    
O16   H12   0.993510 S    
C37   H33   1.109279 S    
C18   C22   1.605260 S    
Zn2   N1    2.087400 S    
C43   H58   1.108183 S    
C44   H62   1.108405 S    
O24   H28   0.992147 S    
C35   H21   1.106031 S    
C5    O29   1.440998 S    
C41   H49   1.109147 S    
O3    Zn1   1.981205 S    
C15   C16   1.190364 T    
C36   H24   1.101617 S    
C24   O15   1.409788 S    
C17   O39   1.408438 S    
O18   H14   0.992440 S    
C13   O36   1.438183 S    
O1    C1    1.347282 A    
C25   C26   1.653581 S    
C34   H18   1.111505 S    
C3    C23   1.491113 S    
C27   C28   1.654885 S    
O28   H32   0.986141 S    
C10   C13   1.600354 S    
Zn2   O8    1.981702 S    
C32   H6    1.109239 S    
C33   H17   1.104585 S    
C23   C24   1.588791 S    
C21   C24   1.582062 S    
C1    C22   1.522065 S    
O42   C44   1.418351 S    
C37   H34   1.111029 S    
C34   H19   1.072993 S    
C40   H44   1.110427 S    
C26   O20   1.423892 S    
C35   H22   1.100422 S    
O10   C32   1.418209 S    
O8    C4    1.319998 A    
O17   H13   0.976254 S    
O35   C41   1.418983 S    
C38   H38   1.109981 S    
O3    C2    1.316119 A    
C30   O26   1.405448 S    
C42   H50   1.106900 S    
C8    O34   1.437498 S    
C29   C30   1.649562 S    
C31   H1    1.107181 S    
C7    O33   1.438398 S    
C35   H23   1.105549 S    
O32   H40   0.985456 S    
O38   H54   0.991611 S    
C36   H26   1.099348 S    
Zn1   O5    2.055034 S    
C20   O44   1.412741 S    
C41   H48   1.109659 S    
O31   H39   0.989352 S    
C28   O22   1.433729 S    
C17   C22   1.557785 S    
O1    Zn1   2.067067 S    
C4    C9    1.400975 S    
O2    Zn2   2.055773 S    
C28   O28   1.417155 S    
C42   H51   1.107483 S    
O6    C3    1.318447 A    
O4    Zn2   1.969331 S    
O39   H55   0.981340 S    
C20   O12   1.419394 S    
C39   H43   1.108051 S    
C12   O37   1.418787 S    
C43   H57   1.108660 S    
C21   O13   1.418091 S    
C18   C20   1.593405 S    
O36   C42   1.418579 S    
O43   H63   0.992179 S    
C44   H60   1.102464 S    
O13   H9    0.992620 S    
C2    C16   1.404851 S    
C19   O11   1.409632 S    
C41   H47   1.108445 S    
C24   O16   1.417574 S    
C39   H42   1.108595 S    
C9    C14   1.187943 T    
C30   O24   1.412060 S    
C27   N1    1.530794 S    
O15   H11   0.990980 S    
C25   N1    1.472053 S    
C34   H20   1.078008 S    
C7    C11   1.593880 S    
C40   H45   1.109827 S    
O21   C35   1.408544 S    
C25   O19   1.455607 S    
Zn2   O6    2.066329 S    
C32   H4    1.108164 S    
C10   C15   1.454814 S    
C11   C14   1.452433 S    
O44   H64   0.993372 S    
C12   C13   1.594490 S    
C33   H16   1.087608 S    
C18   O40   1.389646 S    
O23   H27   0.991590 S    
C8    O9    1.436505 S    
C29   O23   1.413614 S    
O41   C43   1.421213 S    
C6    O31   1.417421 S    
