data_mof_unit_23067.cif
_audit_creation_date              2013-03-05T15:51:32-0500
_audit_creation_method            fapswitch 2.2
_symmetry_space_group_name_H-M    P1
_symmetry_Int_Tables_number       1
_space_group_crystal_system       triclinic
_cell_length_a                    15.894609
_cell_length_b                    10.858507
_cell_length_c                    9.639291
_cell_angle_alpha                 90.322015
_cell_angle_beta                  89.688675
_cell_angle_gamma                 94.010176
_cell_volume                      1659.54121141

loop_
_atom_site_label
_atom_site_type_symbol
_atom_site_description
_atom_site_fract_x
_atom_site_fract_y
_atom_site_fract_z
_atom_type_partial_charge
O1    O     O_R   0.499990 0.319640 0.618810 -0.600567
O2    O     O_R   0.500000 0.319660 0.381240 -0.579772
C1    C     C_R   0.506415 0.263718 0.499267 0.793941
O3    O     O_R   0.379430 0.499990 0.618840 -0.592015
O4    O     O_R   0.379440 0.500020 0.381260 -0.543420
C2    C     C_R   0.340446 0.500129 0.500448 0.811444
Cu1   Cu    Cu3+1 0.499990 0.499990 0.640660 0.921747
Cu2   Cu    Cu3+1 0.500010 0.500010 0.359340 0.953267
O5    O     O_R   0.500000 0.680340 0.618760 -0.612832
O6    O     O_R   0.500010 0.680360 0.381190 -0.598013
O7    O     O_R   0.620560 0.499980 0.618740 -0.599285
O8    O     O_R   0.620570 0.500010 0.381160 -0.583644
C3    C     C_R   0.497518 0.737840 0.501867 0.782401
C4    C     C_R   0.659533 0.501116 0.499626 0.795017
C5    C     C_3   0.043274 0.455199 0.645385 -0.111348
C6    C     C_3   0.044117 0.402276 0.379487 0.599317
C7    C     C_3   0.945111 0.412345 0.380370 -0.433895
H1    H     H_    0.919060 0.348489 0.645859 0.204715
H2    H     H_    0.911418 0.320436 0.397337 0.190127
H3    H     H_    0.920660 0.441497 0.279262 0.237545
C8    C     C_1   0.749062 0.501865 0.498814 -0.140828
C9    C     C_3   0.082363 0.490738 0.498740 0.037331
C10   C     C_3   0.945235 0.445980 0.636611 -0.480021
C11   C     C_3   0.916551 0.499251 0.497590 0.075139
C12   C     C_3   0.960011 0.631754 0.483400 0.223352
C13   C     C_3   0.056803 0.624422 0.467639 -0.499721
C14   C     C_1   0.824486 0.501617 0.498166 0.004158
C15   C     C_1   0.175077 0.495379 0.501641 0.053887
C16   C     C_1   0.250734 0.498309 0.501654 -0.113072
H4    H     H_    0.088981 0.691504 0.541223 0.163954
H5    H     H_    0.078594 0.654416 0.362687 0.258826
H6    H     H_    0.948984 0.681519 0.582746 0.115904
H7    H     H_    0.061806 0.534228 0.715828 0.180539
H8    H     H_    0.919133 0.497449 0.725449 0.183788
H9    H     H_    0.471242 0.107747 0.285789 0.162588
C17   C     C_R   0.588078 0.131085 0.724114 -0.183259
H10   H     H_    0.618486 0.222458 0.709715 0.159967
C18   C     C_R   0.593029 0.076994 0.854147 -0.160474
H11   H     H_    0.625342 0.126776 0.938101 0.148369
C19   C     C_R   0.551188 0.962433 0.877940 -0.150398
H12   H     H_    0.548798 0.924383 0.981571 0.151261
C20   C     C_R   0.513979 0.895289 0.767624 -0.174692
H13   H     H_    0.479476 0.809837 0.794298 0.176534
C21   C     C_R   0.517253 0.943129 0.630900 0.101272
C22   C     C_R   0.541404 0.069591 0.616737 0.096758
C23   C     C_R   0.515818 0.130929 0.497356 -0.113105
C24   C     C_R   0.488877 0.062636 0.380218 -0.189657
H14   H     H_    0.466360 0.884784 0.289330 0.167342
C25   C     C_R   0.483542 0.935008 0.383607 -0.203376
C26   C     C_R   0.496545 0.873084 0.507978 -0.110105
H15   H     H_    0.404756 0.361616 0.136620 0.158305
C27   C     C_R   0.614946 0.663067 0.143479 -0.133853
H16   H     H_    0.618878 0.671817 0.253115 0.203292
C28   C     C_R   0.673344 0.739710 0.071475 -0.185197
H17   H     H_    0.718150 0.800876 0.127395 0.189861
C29   C     C_R   0.673874 0.738885 0.928360 -0.188976
H18   H     H_    0.718896 0.799734 0.872446 0.172788
C30   C     C_R   0.615181 0.662788 0.856279 -0.145630
H19   H     H_    0.618789 0.672237 0.746720 0.205291
C31   C     C_R   0.555492 0.581659 0.925167 0.155899
C32   C     C_R   0.556029 0.580740 0.074427 0.191186
N1    N     N_R   0.500800 0.501210 0.147910 -0.215416
C33   C     C_R   0.446387 0.424555 0.076891 -0.066920
C34   C     C_R   0.450184 0.415312 0.930109 0.180967
N2    N     N_R   0.500820 0.501290 0.852040 -0.207496
N3    N     N_R   0.924738 0.703411 0.371588 0.144370
O9    O     O_R   0.887864 0.803523 0.401664 -0.352020
O10   O     O_R   0.929565 0.669230 0.242510 -0.314572
C35   C     C_3   0.075497 0.339360 0.715907 -0.377428
C36   C     C_3   0.050425 0.334332 0.870156 -0.369573
C37   C     C_3   0.082096 0.222036 0.942279 -0.691787
H20   H     H_    0.062857 0.135974 0.884308 0.242325
H21   H     H_    0.151677 0.232394 0.951051 0.260045
H22   H     H_    0.055062 0.215000 0.048620 0.296311
H23   H     H_    0.077762 0.418835 0.922970 0.282692
H24   H     H_    0.980686 0.330886 0.881355 0.236522
H25   H     H_    0.048737 0.253888 0.664358 0.255183
H26   H     H_    0.145300 0.341553 0.708812 0.219175
C38   C     C_3   0.415032 0.288516 0.877996 -0.354822
C39   C     C_3   0.332013 0.282517 0.797095 -0.307302
C40   C     C_3   0.289242 0.151833 0.798267 -0.868259
H27   H     H_    0.331648 0.085801 0.751062 0.266988
H28   H     H_    0.273503 0.122202 0.905938 0.260730
H29   H     H_    0.230217 0.149242 0.736890 0.266898
H30   H     H_    0.288584 0.348523 0.841384 0.221724
H31   H     H_    0.344504 0.302559 0.687003 0.256598
H32   H     H_    0.463610 0.239970 0.824789 0.225883
H33   H     H_    0.403677 0.226034 0.968425 0.161389
N4    N     N_R   0.081647 0.440690 0.244131 0.100265
O11   O     O_R   0.157538 0.412043 0.211942 -0.344463
O12   O     O_R   0.042397 0.507460 0.157242 -0.380304
N5    N     N_R   0.062919 0.272132 0.401526 0.096777
O13   O     O_R   0.016352 0.184193 0.341327 -0.355441
O14   O     O_R   0.137966 0.246212 0.440373 -0.368995

loop_
_geom_bond_atom_site_label_1
_geom_bond_atom_site_label_2
_geom_bond_distance
_ccdc_geom_bond_type
N3    O10   1.299801 A    
C35   H25   1.109543 S    
C11   C14   1.465332 S    
H9    C24   1.083528 S    
C38   H32   1.089350 S    
C40   H27   1.111781 S    
Cu1   Cu2   2.711724 S    
C24   C25   1.383070 A    
C22   C23   1.408832 A    
C27   H16   1.062335 S    
Cu1   O7    1.926893 S    
N1    C33   1.344914 A    
C4    C8    1.422458 S    
C15   C16   1.200732 T    
C27   C32   1.414967 A    
C18   H11   1.082423 S    
O7    C4    1.301363 A    
C30   C31   1.414179 A    
C7    H3    1.107202 S    
C29   H18   1.082969 S    
O5    C3    1.293379 A    
C39   H31   1.098725 S    
C37   H22   1.110281 S    
C23   C24   1.399866 A    
C5    C9    1.579915 S    
C6    C7    1.585038 S    
C10   C11   1.546116 S    
C36   C37   1.524065 S    
N4    O12   1.300809 A    
C12   H6    1.115962 S    
C19   C20   1.396396 A    
N3    O9    1.301158 A    
C8    C14   1.199019 T    
C13   H5    1.110683 S    
C9    C15   1.471411 S    
C35   H26   1.109819 S    
C32   N1    1.382818 A    
C20   C21   1.418673 A    
O3    Cu1   1.928896 S    
C38   H33   1.113782 S    
C40   H28   1.110390 S    
C27   C28   1.388300 A    
C5    C35   1.552446 S    
C28   C29   1.379483 A    
C7    C11   1.554237 S    
H1    C10   1.113887 S    
H15   C33   1.083259 S    
C11   C12   1.558255 S    
O3    C2    1.301593 A    
C37   H21   1.107459 S    
C12   C13   1.552659 S    
C33   C34   1.419125 A    
C31   C32   1.438926 A    
O1    C1    1.306332 A    
C39   H30   1.111301 S    
Cu1   N2    2.037632 S    
Cu2   O8    1.928898 S    
C10   H8    1.113986 S    
N5    O14   1.302044 A    
C17   C22   1.413799 A    
Cu2   O6    1.968447 S    
C19   H12   1.082606 S    
O8    C4    1.301604 A    
C31   N2    1.381043 A    
C13   H4    1.114146 S    
C36   H24   1.111175 S    
C34   C38   1.532256 S    
C38   C39   1.533688 S    
C20   H13   1.076008 S    
C40   H29   1.110464 S    
C21   C22   1.406928 A    
C21   C26   1.431740 A    
Cu1   O5    1.970845 S    
C28   H17   1.082991 S    
H14   C25   1.083579 S    
C6    C9    1.589684 S    
O1    Cu1   1.968448 S    
O2    Cu2   1.970845 S    
C12   N3    1.469150 S    
C39   C40   1.530078 S    
O6    C3    1.318729 A    
O4    Cu2   1.926892 S    
C6    N5    1.481428 S    
C1    C23   1.459984 S    
C34   N2    1.407798 A    
C17   C18   1.392140 A    
O2    C1    1.300549 A    
C30   H19   1.062470 S    
C37   H20   1.111337 S    
C18   C19   1.388586 A    
O4    C2    1.302474 A    
C5    C10   1.557222 S    
N5    O13   1.302284 A    
C7    H2    1.111609 S    
C29   C30   1.388746 A    
C35   C36   1.537516 S    
C3    C26   1.470556 S    
C6    N4    1.481562 S    
C2    C16   1.424677 S    
C17   H10   1.082140 S    
C25   C26   1.401166 A    
C9    C13   1.565501 S    
C36   H23   1.109634 S    
N4    O11   1.302079 A    
C5    H7    1.115582 S    
Cu2   N1    2.038115 S    
