data_mof_unit_16318.cif
_audit_creation_date              2012-12-10T16:58:54-0500
_audit_creation_method            fapswitch 2.2
_symmetry_space_group_name_H-M    P1
_symmetry_Int_Tables_number       1
_space_group_crystal_system       triclinic
_cell_length_a                    9.741636
_cell_length_b                    10.919729
_cell_length_c                    17.21097
_cell_angle_alpha                 90.025576
_cell_angle_beta                  85.865892
_cell_angle_gamma                 90.070733
_cell_volume                      1826.06931758

loop_
_atom_site_label
_atom_site_type_symbol
_atom_type_description
_atom_site_fract_x
_atom_site_fract_y
_atom_site_fract_z
_atom_type_partial_charge
C1    C     C_R   0.500349 0.734587 0.499640 0.915190
C2    C     C_R   0.351154 0.498027 0.783518 0.316507
C3    C     C_R   0.415587 0.579189 0.148719 0.422777
C4    C     C_R   0.409572 0.559288 0.229086 -0.284892
C5    C     C_R   0.652107 0.507512 0.221111 -0.159568
C6    C     C_R   0.660618 0.525748 0.140709 0.342185
C7    C     C_R   0.540610 0.560708 0.104306 -0.103879
C8    C     C_2   0.487562 0.465283 0.983336 0.458847
C9    C     C_2   0.538629 0.564153 0.018412 0.369931
C10   C     C_R   0.526838 0.522126 0.265373 -0.147454
C11   C     C_2   0.616268 0.065312 0.492441 0.309682
C12   C     C_R   0.481980 0.497381 0.650392 0.808849
C13   C     C_2   0.501549 0.133020 0.488559 -0.379818
C14   C     C_2   0.610835 0.932517 0.476245 0.327010
C15   C     C_2   0.501572 0.866896 0.504448 -0.357388
C16   C     C_2   0.076081 0.595099 0.488294 0.557603
C17   C     C_2   0.923095 0.594822 0.515722 0.574141
C18   C     C_R   0.500394 0.265201 0.498338 0.880581
C19   C     C_R   0.518026 0.504456 0.349966 0.815027
C20   C     C_R   0.475574 0.487372 0.736061 -0.150649
C21   C     C_R   0.599106 0.464236 0.770956 -0.234765
C22   C     C_R   0.601012 0.453921 0.850884 -0.265322
C23   C     C_R   0.480147 0.468998 0.898085 -0.015157
C24   C     C_R   0.355101 0.494124 0.865727 0.337081
Cu1   Cu    Cu3+1 0.361370 0.499980 0.499980 1.012841
Cu2   Cu    Cu3+1 0.638630 0.500020 0.500020 1.042161
H1    H     H_    0.695604 0.453375 0.736393 0.195366
H2    H     H_    0.405789 0.091004 0.473595 0.113631
H3    H     H_    0.413723 0.910132 0.535728 0.100676
H4    H     H_    0.312947 0.573092 0.263180 0.167293
H5    H     H_    0.743671 0.480062 0.248778 0.185882
H6    H     H_    0.697568 0.436037 0.876344 0.160461
N1    N     N_2   0.152990 0.501340 0.500850 -0.033844
N2    N     N_2   0.846850 0.501370 0.500880 -0.041007
O1    O     O_R   0.382960 0.678040 0.499990 -0.556995
O2    O     O_R   0.617100 0.678080 0.500010 -0.489658
O3    O     O_R   0.369350 0.500000 0.613580 -0.563190
O4    O     O_R   0.603500 0.500040 0.613610 -0.580144
O5    O     O_R   0.382900 0.321920 0.499990 -0.618847
O6    O     O_R   0.617040 0.321960 0.500010 -0.528145
O7    O     O_R   0.396500 0.499960 0.386390 -0.567348
O8    O     O_R   0.630650 0.500000 0.386420 -0.608584
O9    O     O_3   0.786529 0.505515 0.100490 -0.714679
H7    H     H_    0.781023 0.524892 0.044695 0.330904
O10   O     O_3   0.738490 0.119053 0.511017 -0.694433
H8    H     H_    0.806301 0.053603 0.519302 0.327325
O11   O     O_3   0.718229 0.875586 0.433373 -0.713025
H9    H     H_    0.780594 0.939515 0.409972 0.320387
O12   O     O_3   0.136738 0.697777 0.453288 -0.609123
C25   C     C_3   0.067074 0.730037 0.387245 0.000386
H10   H     H_    0.963731 0.767939 0.404869 0.195524
H11   H     H_    0.056251 0.649794 0.348002 0.154774
C26   C     C_3   0.149524 0.828120 0.341779 -0.758703
H12   H     H_    0.253664 0.792931 0.323110 0.246940
H13   H     H_    0.096233 0.854195 0.289348 0.208797
H14   H     H_    0.160005 0.910493 0.378790 0.249947
O13   O     O_3   0.092824 0.416081 0.548390 -0.652674
H15   H     H_    0.167791 0.363692 0.564669 0.370753
O14   O     O_3   0.859587 0.695237 0.552740 -0.575944
C27   C     C_3   0.949266 0.760415 0.598723 0.016790
H16   H     H_    0.013095 0.825119 0.561666 0.186908
H17   H     H_    0.017142 0.698410 0.630238 0.148039
C28   C     C_3   0.863761 0.834402 0.659408 -0.744578
H18   H     H_    0.800514 0.771898 0.698348 0.251743
H19   H     H_    0.932578 0.888659 0.694979 0.201941
H20   H     H_    0.794521 0.897805 0.630413 0.250745
O15   O     O_3   0.906589 0.420923 0.449696 -0.640757
H21   H     H_    0.831372 0.370068 0.431746 0.388582
O16   O     O_3   0.591056 0.661812 0.972658 -0.602231
C29   C     C_3   0.605768 0.769997 0.016314 0.081438
H22   H     H_    0.689060 0.759303 0.056751 0.154450
H23   H     H_    0.507328 0.794458 0.049647 0.171578
C30   C     C_3   0.644712 0.874940 0.960942 -0.772376
H24   H     H_    0.562756 0.888907 0.920186 0.250412
H25   H     H_    0.657211 0.960539 0.994603 0.198220
H26   H     H_    0.743159 0.854124 0.926920 0.254966
O17   O     O_3   0.240152 0.515732 0.915775 -0.692528
H27   H     H_    0.164686 0.547542 0.885974 0.355419
O18   O     O_3   0.300431 0.614194 0.111819 -0.688807
H28   H     H_    0.221478 0.623010 0.151126 0.330155
O19   O     O_3   0.228072 0.519245 0.750414 -0.575883
C31   C     C_3   0.151563 0.408947 0.751070 0.064360
H29   H     H_    0.153880 0.357581 0.806982 0.132892
H30   H     H_    0.192829 0.348371 0.703034 0.154138
C32   C     C_3   0.001710 0.438190 0.739563 -0.741469
H31   H     H_    0.993345 0.490759 0.685033 0.270678
H32   H     H_    0.942052 0.351873 0.736177 0.202339
H33   H     H_    0.957028 0.493482 0.789316 0.230673
O20   O     O_3   0.433104 0.368593 0.029182 -0.568141
C33   C     C_3   0.430699 0.257487 0.987200 0.075383
H34   H     H_    0.532826 0.238082 0.956253 0.125640
H35   H     H_    0.349883 0.260423 0.944744 0.161557
C34   C     C_3   0.396797 0.153004 0.043787 -0.753199
H36   H     H_    0.295044 0.168864 0.075555 0.263922
H37   H     H_    0.393363 0.065216 0.011373 0.196809
H38   H     H_    0.476778 0.146517 0.086448 0.245967

loop_
_geom_bond_atom_site_label_1
_geom_bond_atom_site_label_2
_ccdc_geom_bond_type
C28   H19   S    
C34   H36   S    
C30   H24   S    
C18   O5    A    
C3    O18   S    
O19   C31   S    
O13   H15   S    
O17   H27   S    
C1    O1    A    
C22   H6    S    
C13   C18   S    
C27   C28   S    
C9    O16   S    
C3    C7    A    
C5    C6    A    
C11   C14   S    
C32   H33   S    
C8    C23   S    
C27   H17   S    
C12   O3    A    
C18   O6    A    
Cu1   O3    S    
Cu2   N2    S    
C8    C9    D    
C25   H11   S    
C23   C24   A    
C13   H2    S    
C29   H22   S    
C1    C15   S    
C19   O8    A    
C26   H13   S    
C21   H1    S    
C28   H20   S    
O14   C27   S    
C34   H37   S    
C21   C22   A    
C30   H25   S    
C15   H3    S    
C32   H32   S    
C25   C26   S    
C2    C20   A    
O15   H21   S    
C16   O12   S    
Cu1   O7    S    
Cu2   O4    S    
Cu1   Cu2   S    
C32   H31   S    
O18   H28   S    
C27   H16   S    
O9    H7    S    
C16   N1    D    
C33   H35   S    
O11   H9    S    
C10   C19   S    
C12   C20   S    
C29   C30   S    
C25   H10   S    
C14   O11   S    
C17   O14   S    
Cu2   O2    S    
Cu1   O1    S    
C31   H29   S    
C34   H38   S    
C31   H30   S    
C6    O9    S    
C2    C24   A    
C30   H26   S    
C11   O10   S    
C17   N2    D    
C4    C10   A    
C3    C4    A    
Cu2   O8    S    
C33   C34   S    
C26   H14   S    
C7    C9    S    
N1    O13   S    
C14   C15   D    
N2    O15   S    
C26   H12   S    
C6    C7    A    
C31   C32   S    
C5    C10   A    
Cu1   O5    S    
C11   C13   D    
Cu2   O6    S    
C33   H34   S    
C16   C17   S    
C12   O4    A    
O16   C29   S    
C28   H18   S    
O10   H8    S    
C24   O17   S    
C20   C21   A    
O12   C25   S    
C22   C23   A    
C2    O19   S    
C29   H23   S    
C8    O20   S    
O20   C33   S    
C4    H4    S    
C19   O7    A    
C1    O2    A    
Cu1   N1    S    
C5    H5    S    
