data_mof_unit_11855.cif
_audit_creation_date              2012-12-11T15:44:58-0500
_audit_creation_method            fapswitch 2.2
_symmetry_space_group_name_H-M    P1
_symmetry_Int_Tables_number       1
_space_group_crystal_system       triclinic
_cell_length_a                    18.995358
_cell_length_b                    10.925762
_cell_length_c                    18.776203
_cell_angle_alpha                 89.558706
_cell_angle_beta                  90.095491
_cell_angle_gamma                 89.816806
_cell_volume                      3896.64882778

loop_
_atom_site_label
_atom_site_type_symbol
_atom_type_description
_atom_site_fract_x
_atom_site_fract_y
_atom_site_fract_z
_atom_type_partial_charge
C1    C     C_R   0.776127 0.479650 0.638511 0.555302
C2    C     C_R   0.279816 0.926964 0.510237 -0.168830
C3    C     C_R   0.494126 0.951012 0.964432 -0.019199
C4    C     C_R   0.956612 0.235621 0.975391 -0.175442
C5    C     C_R   0.970648 0.235705 0.048663 -0.170693
C6    C     C_R   0.473051 0.733561 0.969779 -0.174173
C7    C     C_R   0.478078 0.736341 0.044094 -0.168329
C8    C     C_3   0.018687 0.571964 0.040522 0.143165
C9    C     C_3   0.008349 0.563211 0.960217 0.191246
C10   C     C_3   0.562735 0.044516 0.031946 0.169282
C11   C     C_3   0.547636 0.050120 0.952128 0.173309
C12   C     C_R   0.761370 0.529814 0.853263 0.529369
C13   C     C_R   0.313737 0.561146 0.456993 -0.169626
C14   C     C_R   0.240260 0.534594 0.148216 0.537439
C15   C     C_R   0.261315 0.029925 0.853189 0.541246
C16   C     C_R   0.740437 0.034629 0.148340 0.535138
C17   C     C_R   0.790183 0.171321 0.860093 0.547496
C18   C     C_R   0.227134 0.126348 0.146733 0.538573
C19   C     C_R   0.290244 0.671619 0.860126 0.560154
C20   C     C_R   0.727495 0.625796 0.146948 0.536020
C21   C     C_R   0.938940 0.350993 0.861079 0.554732
C22   C     C_R   0.027775 0.348010 0.147768 0.528701
C23   C     C_R   0.467616 0.846554 0.854975 0.564408
C24   C     C_R   0.779897 0.427033 0.510237 -0.168990
C25   C     C_R   0.529274 0.847497 0.147042 0.529221
C26   C     C_R   0.748911 0.083844 0.423796 -0.000112
C27   C     C_R   0.272895 0.014569 0.564344 0.029465
C28   C     C_R   0.248903 0.583812 0.423802 -0.000424
C29   C     C_R   0.772904 0.514590 0.564351 0.029064
C30   C     C_R   0.689342 0.103698 0.466196 0.027375
C31   C     C_R   0.265793 0.137320 0.545531 0.045744
C32   C     C_R   0.189339 0.603638 0.466207 0.027977
C33   C     C_R   0.765770 0.637332 0.545548 0.045990
C34   C     C_R   0.695475 0.111318 0.539378 0.002446
C35   C     C_3   0.637278 0.206440 0.463507 -0.274502
C36   C     C_R   0.253787 0.170254 0.475852 0.026712
C37   C     C_R   0.195474 0.611275 0.539384 0.002717
C38   C     C_R   0.753766 0.670278 0.475872 0.027071
C39   C     C_3   0.997801 0.692813 0.140276 -0.004018
C40   C     C_3   0.973325 0.817891 0.165360 -0.395702
C41   C     C_3   0.115296 0.445713 0.944204 -0.007507
C42   C     C_3   0.154848 0.389446 0.882151 -0.347175
C43   C     C_3   0.487057 0.188774 0.090488 -0.000725
C44   C     C_3   0.492039 0.283281 0.149384 -0.366902
C45   C     C_3   0.645931 0.919904 0.923310 -0.014394
C46   C     C_3   0.216390 0.232042 0.573213 -0.269434
C47   C     C_3   0.674108 0.861439 0.855868 -0.350311
C48   C     C_3   0.137198 0.706280 0.463511 -0.274498
C49   C     C_3   0.716369 0.732022 0.573244 -0.270275
C50   C     C_3   0.644536 0.215041 0.543809 -0.267596
C51   C     C_3   0.202299 0.267133 0.496131 -0.269665
C52   C     C_3   0.144453 0.714896 0.543816 -0.267682
C53   C     C_R   0.239072 0.534600 0.353478 0.543923
C54   C     C_3   0.702282 0.767146 0.496162 -0.269584
C55   C     C_R   0.760405 0.092267 0.572510 0.000272
C56   C     C_R   0.249381 0.082385 0.422698 0.030350
C57   C     C_R   0.260405 0.592304 0.572508 0.000525
C58   C     C_R   0.749379 0.582420 0.422712 0.030374
C59   C     C_R   0.986314 0.329016 0.418634 -0.043752
C60   C     C_R   0.990524 0.347011 0.568411 -0.034546
C61   C     C_R   0.486391 0.829004 0.418697 -0.043994
C62   C     C_R   0.490647 0.847004 0.568472 -0.033037
C63   C     C_R   0.002475 0.104811 0.430019 -0.084238
C64   C     C_R   0.276126 0.979649 0.638509 0.553781
C65   C     C_R   0.028238 0.129823 0.574979 -0.099013
C66   C     C_R   0.502595 0.604800 0.430100 -0.084094
C67   C     C_R   0.528341 0.629841 0.575062 -0.098841
C68   C     C_R   0.021934 0.003094 0.470769 -0.131178
C69   C     C_R   0.036672 0.016281 0.542745 -0.127972
C70   C     C_R   0.522054 0.503096 0.470862 -0.131103
C71   C     C_R   0.536781 0.516298 0.542840 -0.127925
C72   C     C_R   0.004869 0.233227 0.535438 -0.008477
C73   C     C_R   0.997495 0.222386 0.460756 0.001463
C74   C     C_R   0.504987 0.733230 0.535506 -0.007881
C75   C     C_R   0.739072 0.034603 0.353476 0.541545
C76   C     C_R   0.497609 0.722382 0.460823 0.001420
C77   C     C_R   0.974813 0.452686 0.524401 0.018542
C78   C     C_R   0.963115 0.436698 0.451044 0.016100
C79   C     C_R   0.474962 0.952671 0.524466 0.019144
C80   C     C_R   0.463208 0.936679 0.451124 0.015252
C81   C     C_R   0.774206 0.126827 0.645179 0.545104
C82   C     C_R   0.227896 0.122326 0.352686 0.539353
C83   C     C_R   0.274214 0.626850 0.645171 0.545760
C84   C     C_R   0.727893 0.622343 0.352695 0.539647
C85   C     C_R   0.970614 0.575192 0.549847 -0.080840
C86   C     C_R   0.818936 0.060900 0.530267 -0.164538
C87   C     C_R   0.933590 0.532790 0.409635 -0.076348
C88   C     C_R   0.470806 0.075165 0.549916 -0.080519
C89   C     C_R   0.433623 0.032756 0.409755 -0.076288
C90   C     C_R   0.944666 0.670689 0.507533 -0.142821
C91   C     C_R   0.924155 0.648670 0.438013 -0.121629
C92   C     C_R   0.444794 0.170654 0.507643 -0.143039
C93   C     C_R   0.424194 0.148625 0.438153 -0.121418
C94   C     C_R   0.758826 0.095038 0.081163 -0.004498
C95   C     C_R   0.254416 0.064071 0.927245 0.008823
C96   C     C_R   0.258371 0.597659 0.081670 0.001408
C97   C     C_R   0.266846 0.960527 0.439025 -0.160856
C98   C     C_R   0.754590 0.563856 0.927415 -0.000937
C99   C     C_R   0.815290 0.046584 0.042814 0.019574
C100  C     C_R   0.196659 0.018081 0.963745 0.019379
C101  C     C_R   0.318220 0.557505 0.045239 0.028400
C102  C     C_R   0.697427 0.516938 0.964077 0.017386
C103  C     C_R   0.825034 0.074082 0.972379 0.004394
C104  C     C_R   0.191746 0.026173 0.036182 0.028347
C105  C     C_R   0.327889 0.583440 0.974378 0.017531
C106  C     C_R   0.692796 0.525039 0.036566 0.026693
C107  C     C_R   0.728090 0.215438 0.975901 -0.128894
C108  C     C_R   0.318914 0.560977 0.530270 -0.164692
C109  C     C_R   0.306841 0.116294 0.041531 -0.175801
C110  C     C_R   0.224659 0.711353 0.974672 -0.139315
C111  C     C_R   0.807790 0.616042 0.041605 -0.169436
C112  C     C_R   0.718577 0.188440 0.048895 -0.151173
C113  C     C_R   0.312271 0.106582 0.967232 -0.164387
C114  C     C_R   0.213916 0.683070 0.047335 -0.173498
C115  C     C_R   0.811896 0.608850 0.967021 -0.163278
C116  C     C_3   0.835814 0.916003 0.031369 -0.265856
C117  C     C_3   0.120366 0.042123 0.951695 -0.281400
C118  C     C_3   0.345851 0.430263 0.036760 -0.275095
C119  C     C_R   0.766917 0.460602 0.439027 -0.160772
C120  C     C_3   0.621322 0.541341 0.951992 -0.282023
C121  C     C_3   0.848160 0.947438 0.954202 -0.267259
C122  C     C_3   0.114504 0.053037 0.031647 -0.262665
C123  C     C_3   0.355641 0.458239 0.958738 -0.273140
C124  C     C_3   0.615830 0.553522 0.031795 -0.259013
C125  C     C_R   0.779549 0.152329 0.936207 0.010043
C126  C     C_R   0.244512 0.082747 0.076053 0.018346
C127  C     C_R   0.279533 0.653953 0.936513 0.006841
C128  C     C_R   0.745575 0.581595 0.076439 0.004740
C129  C     C_R   0.969088 0.347977 0.644655 0.533355
C130  C     C_R   0.813763 0.061134 0.456991 -0.169159
C131  C     C_R   0.025615 0.344053 0.351049 0.531551
C132  C     C_R   0.469136 0.847970 0.644686 0.526831
C133  C     C_R   0.525637 0.844050 0.351074 0.528704
C134  C     C_R   0.986015 0.346385 0.082903 -0.019449
C135  C     C_R   0.954050 0.346133 0.936909 0.002967
C136  C     C_R   0.498517 0.845129 0.077124 -0.013782
C137  C     C_R   0.484455 0.840654 0.929369 0.018371
C138  C     C_R   0.973590 0.457570 0.046226 0.005736
C139  C     C_R   0.960927 0.455551 0.973958 -0.011644
C140  C     C_R   0.503556 0.952030 0.036403 -0.050776
Cr1   Cr    Cr6+3 0.885860 0.491680 0.749630 1.008068
Cr2   Cr    Cr6+3 0.112430 0.179310 0.249850 0.995596
Cr3   Cr    Cr6+3 0.387570 0.679310 0.750150 0.992562
Cr4   Cr    Cr6+3 0.612430 0.679310 0.249850 0.994735
Cr5   Cr    Cr6+3 0.114140 0.491680 0.250370 0.978833
Cr6   Cr    Cr6+3 0.385860 0.991680 0.749630 1.011691
Cr7   Cr    Cr6+3 0.614140 0.991680 0.250370 1.017705
Cr8   Cr    Cr6+3 0.730490 0.332970 0.748720 1.005410
Cr9   Cr    Cr6+3 0.269510 0.332970 0.251280 0.989390
Cr10  Cr    Cr6+3 0.230490 0.832970 0.748720 1.009232
Cr11  Cr    Cr6+3 0.769510 0.832970 0.251280 0.982994
Cr12  Cr    Cr6+3 0.887570 0.179310 0.750150 0.991068
H1    H     H_    0.870553 0.044376 0.553066 0.164180
H2    H     H_    0.360699 0.134103 0.941396 0.131563
H3    H     H_    0.168217 0.719586 0.074306 0.128228
H4    H     H_    0.858696 0.640745 0.940325 0.134827
H5    H     H_    0.790421 0.853883 0.039700 0.146613
H6    H     H_    0.092597 0.960846 0.930305 0.151659
H7    H     H_    0.304701 0.360531 0.046831 0.159607
H8    H     H_    0.593341 0.459882 0.931120 0.148038
H9    H     H_    0.885127 0.890770 0.059004 0.167091
H10   H     H_    0.110069 0.129537 0.922765 0.136815
H11   H     H_    0.396159 0.417206 0.065770 0.131411
H12   H     H_    0.268157 0.891853 0.397759 0.108713
H13   H     H_    0.611331 0.628146 0.922416 0.132294
H14   H     H_    0.904616 0.943048 0.938907 0.141505
H15   H     H_    0.102361 0.147656 0.048897 0.156920
H16   H     H_    0.411770 0.457628 0.942356 0.129599
H17   H     H_    0.604961 0.648571 0.048842 0.159244
H18   H     H_    0.811790 0.899656 0.917495 0.148384
H19   H     H_    0.082244 0.979605 0.056328 0.141843
H20   H     H_    0.319958 0.404370 0.924045 0.151247
H21   H     H_    0.582968 0.481551 0.056654 0.145227
H22   H     H_    0.952802 0.149311 0.948074 0.142736
H23   H     H_    0.370510 0.544520 0.553077 0.164234
H24   H     H_    0.976935 0.149036 0.076350 0.131333
H25   H     H_    0.462593 0.647869 0.943791 0.140041
H26   H     H_    0.472996 0.652108 0.074426 0.130382
H27   H     H_    0.074316 0.561590 0.057846 0.127991
H28   H     H_    0.978872 0.642467 0.937696 0.152907
H29   H     H_    0.613727 0.001765 0.046738 0.137120
H30   H     H_    0.521141 0.136760 0.935669 0.141413
H31   H     H_    0.859993 0.037401 0.426359 0.140893
H32   H     H_    0.291568 0.832584 0.523329 0.118826
H33   H     H_    0.359952 0.537425 0.426362 0.140827
H34   H     H_    0.768283 0.391959 0.397753 0.108835
H35   H     H_    0.791710 0.332675 0.523320 0.118842
H36   H     H_    0.084487 0.674479 0.446085 0.162528
H37   H     H_    0.744300 0.804427 0.603378 0.146426
H38   H     H_    0.584550 0.174760 0.446079 0.162184
H39   H     H_    0.244332 0.304466 0.603333 0.147434
H40   H     H_    0.668562 0.301828 0.561615 0.164781
H41   H     H_    0.147928 0.246753 0.478037 0.159290
H42   H     H_    0.168413 0.801753 0.561621 0.164664
H43   H     H_    0.647922 0.746777 0.478056 0.159068
H44   H     H_    0.026133 0.914043 0.446242 0.107758
H45   H     H_    0.692657 0.278765 0.949708 0.161792
H46   H     H_    0.053763 0.938015 0.574003 0.115352
H47   H     H_    0.526254 0.414039 0.446346 0.108043
H48   H     H_    0.553866 0.438041 0.574107 0.115020
H49   H     H_    0.919020 0.518501 0.354499 0.114731
H50   H     H_    0.990725 0.602795 0.600816 0.145009
H51   H     H_    0.418991 0.018454 0.354640 0.116984
H52   H     H_    0.490968 0.102723 0.600873 0.144627
H53   H     H_    0.941026 0.762365 0.528749 0.111621
H54   H     H_    0.903039 0.722247 0.405382 0.124930
H55   H     H_    0.441164 0.262322 0.528867 0.111517
H56   H     H_    0.348365 0.158167 0.071451 0.103864
H57   H     H_    0.403013 0.222189 0.405558 0.125382
H58   H     H_    0.055105 0.685782 0.152348 0.157311
H59   H     H_    0.967380 0.624156 0.171323 0.169716
H60   H     H_    0.914967 0.820644 0.168038 0.159824
H61   H     H_    0.993958 0.834783 0.219827 0.087063
H62   H     H_    0.992905 0.890938 0.129186 0.148135
H63   H     H_    0.088447 0.370503 0.972996 0.119237
H64   H     H_    0.154570 0.486122 0.980590 0.135955
H65   H     H_    0.184271 0.461281 0.852647 0.187968
H66   H     H_    0.192777 0.319777 0.902329 0.083526
H67   H     H_    0.187260 0.770034 0.947406 0.162492
H68   H     H_    0.117170 0.344748 0.845358 0.171690
H69   H     H_    0.459190 0.109813 0.114733 0.157011
H70   H     H_    0.456417 0.227121 0.045145 0.109564
H71   H     H_    0.513861 0.370131 0.128547 0.131412
H72   H     H_    0.438850 0.301536 0.171481 0.097257
H73   H     H_    0.526451 0.248389 0.192978 0.162582
H74   H     H_    0.618509 0.848316 0.954772 0.103820
H75   H     H_    0.690911 0.952265 0.955439 0.140799
H76   H     H_    0.703397 0.930108 0.823729 0.190870
H77   H     H_    0.710196 0.785141 0.869834 0.088756
H78   H     H_    0.850234 0.657588 0.071043 0.177406
H79   H     H_    0.629870 0.825090 0.823674 0.154086
H80   H     H_    0.657048 0.288143 0.434408 0.138514
H81   H     H_    0.170115 0.191951 0.600759 0.151136
H82   H     H_    0.156913 0.788034 0.434410 0.138306
H83   H     H_    0.670109 0.691903 0.600787 0.150157
H84   H     H_    0.596385 0.189484 0.573196 0.126971
H85   H     H_    0.221672 0.359243 0.482054 0.156845
H86   H     H_    0.096315 0.689208 0.573205 0.127243
H87   H     H_    0.721662 0.859256 0.482098 0.156755
H88   H     H_    0.989246 0.089710 0.374746 0.127604
H89   H     H_    0.677422 0.234014 0.078289 0.185526
H90   H     H_    0.042182 0.136201 0.630660 0.133146
H91   H     H_    0.489363 0.589678 0.374833 0.128013
H92   H     H_    0.542266 0.636238 0.630749 0.130826
O1    O     O_R   0.957020 0.451640 0.669920 -0.529412
O2    O     O_R   0.168040 0.093290 0.169870 -0.522759
O3    O     O_R   0.331960 0.593290 0.830130 -0.522608
O4    O     O_R   0.668040 0.593290 0.169870 -0.520355
O5    O     O_R   0.945600 0.250580 0.824860 -0.520483
O6    O     O_R   0.054400 0.250580 0.175140 -0.508228
O7    O     O_R   0.445600 0.750580 0.824860 -0.529508
O8    O     O_R   0.554400 0.750580 0.175140 -0.515745
O9    O     O_3   0.834640 0.334650 0.749500 -0.306372
O10   O     O_3   0.165360 0.334650 0.250500 -0.232198
O11   O     O_3   0.334640 0.834650 0.749500 -0.288320
O12   O     O_R   0.042980 0.451640 0.330080 -0.518911
O13   O     O_3   0.665360 0.834650 0.250500 -0.239026
O14   O     O_R   0.821450 0.543440 0.674610 -0.491869
O15   O     O_R   0.178550 0.543440 0.325390 -0.494136
O16   O     O_R   0.321450 0.043440 0.674610 -0.492228
O17   O     O_R   0.678550 0.043440 0.325390 -0.495188
O18   O     O_R   0.715320 0.458650 0.668100 -0.530422
O19   O     O_R   0.284680 0.458650 0.331900 -0.527916
O20   O     O_R   0.215320 0.958650 0.668100 -0.530647
O21   O     O_R   0.784680 0.958650 0.331900 -0.529094
O22   O     O_R   0.737170 0.209590 0.674530 -0.510824
O23   O     O_R   0.457020 0.951640 0.669920 -0.532383
O24   O     O_R   0.262830 0.209590 0.325470 -0.504296
O25   O     O_R   0.237170 0.709590 0.674530 -0.512444
O26   O     O_R   0.762830 0.709590 0.325470 -0.504853
O27   O     O_R   0.832710 0.092740 0.669580 -0.522379
O28   O     O_R   0.167290 0.092740 0.330420 -0.514288
O29   O     O_R   0.332710 0.592740 0.669580 -0.521922
O30   O     O_R   0.667290 0.592740 0.330420 -0.513635
O31   O     O_R   0.946290 0.250060 0.676040 -0.500056
O32   O     O_R   0.053710 0.250060 0.323960 -0.504635
O33   O     O_R   0.446290 0.750060 0.676040 -0.504603
O34   O     O_R   0.542980 0.951640 0.330080 -0.517480
O35   O     O_R   0.553710 0.750060 0.323960 -0.506172
O36   O     O_R   0.956270 0.452200 0.830470 -0.474920
O37   O     O_R   0.043730 0.452200 0.169530 -0.559005
O38   O     O_R   0.456270 0.952200 0.830470 -0.495588
O39   O     O_R   0.543730 0.952200 0.169530 -0.507281
O40   O     O_R   0.820760 0.543950 0.823440 -0.523451
O41   O     O_R   0.179240 0.543950 0.176560 -0.523021
O42   O     O_R   0.320760 0.043950 0.823440 -0.507432
O43   O     O_R   0.679240 0.043950 0.176560 -0.489404
O44   O     O_R   0.714570 0.459210 0.828640 -0.518841
O45   O     O_R   0.736470 0.210100 0.823360 -0.477119
O46   O     O_R   0.285430 0.459210 0.171360 -0.520178
O47   O     O_R   0.214570 0.959210 0.828640 -0.519012
O48   O     O_R   0.785430 0.959210 0.171360 -0.528042
O49   O     O_3   0.984302 0.678348 0.066717 -0.613444
O50   O     O_3   0.069287 0.538398 0.917836 -0.546403
O51   O     O_3   0.555435 0.159808 0.066483 -0.575623
O52   O     O_3   0.603026 0.021071 0.903802 -0.546825
O53   O     O_R   0.263530 0.210100 0.176640 -0.513997
O54   O     O_R   0.236470 0.710100 0.823360 -0.491989
O55   O     O_R   0.763530 0.710100 0.176640 -0.517152
O56   O     O_R   0.831960 0.093290 0.830130 -0.528329

loop_
_geom_bond_atom_site_label_1
_geom_bond_atom_site_label_2
_ccdc_geom_bond_type
C99   C103  A    
C87   C91   A    
C107  C112  A    
C136  C140  A    
C61   C133  S    
C129  O1    A    
C135  C139  A    
C121  H14   S    
C59   C131  S    
Cr10  O54   S    
Cr3   O7    S    
C48   H36   S    
C43   O51   S    
Cr6   O11   S    
C8    O49   S    
C60   C72   A    
C61   C80   A    
C29   C33   A    
Cr3   O33   S    
C105  C123  S    
Cr4   O30   S    
C9    O50   S    
C47   H76   S    
Cr2   O2    S    
C14   O46   A    
Cr1   O14   S    
C57   C83   S    
C44   H73   S    
C59   C73   A    
C26   C130  A    
C17   O56   A    
C96   C114  A    
C11   O52   S    
C10   C140  S    
C45   C47   S    
C13   H33   S    
C116  C121  S    
C27   C31   A    
C62   C132  S    
C28   C32   A    
C43   H70   S    
Cr11  O55   S    
C99   C116  S    
C30   C34   A    
C72   C73   A    
C98   C102  A    
C109  H56   S    
C43   C44   S    
C90   H53   S    
C67   H92   S    
C97   H12   S    
C66   C76   A    
C1    C29   S    
C67   C74   A    
C85   H50   S    
C12   O40   A    
C4    C135  A    
C35   H38   S    
C6    H25   S    
C5    H24   S    
Cr5   O10   S    
C103  C121  S    
C91   H54   S    
C1    O14   A    
C75   O21   A    
C23   O38   A    
C122  H15   S    
C16   C94   S    
C4    C5    A    
C42   H66   S    
C85   C90   A    
C6    C7    A    
C42   H68   S    
C33   C38   A    
C133  O35   A    
C55   C86   A    
C119  H34   S    
C66   C70   A    
C58   C119  A    
Cr6   O23   S    
C3    C11   S    
C27   C64   S    
C48   C52   S    
Cr8   O44   S    
C18   O53   A    
C106  C124  S    
C120  H8    S    
C31   C36   A    
C100  C117  S    
C14   O41   A    
Cr8   O18   S    
Cr9   O19   S    
C37   C57   A    
C78   C87   A    
C75   O17   A    
Cr5   O15   S    
Cr6   O16   S    
C100  C104  A    
C46   H39   S    
Cr5   O37   S    
C71   H48   S    
C74   C76   A    
C24   H35   S    
C101  C118  S    
C8    C138  S    
C22   O6    A    
C130  H31   S    
C41   H63   S    
C104  C122  S    
C66   H91   S    
C108  H23   S    
C35   H80   S    
C45   H75   S    
C31   C46   S    
Cr1   O1    S    
Cr5   O12   S    
C55   C81   S    
C110  C114  A    
C123  H20   S    
C52   H86   S    
C45   H74   S    
Cr7   O43   S    
C121  H18   S    
C77   C85   A    
Cr3   O11   S    
C56   C97   A    
C13   C108  A    
C59   C78   A    
C61   C76   A    
C105  C127  A    
C116  H9    S    
C107  C125  A    
C51   H41   S    
C39   C40   S    
C37   C52   S    
C86   C130  A    
C46   C51   S    
C117  C122  S    
Cr1   O40   S    
C110  H67   S    
C26   C75   S    
C32   C37   A    
C88   H52   S    
C16   O43   A    
C50   H84   S    
Cr4   O13   S    
C36   C51   S    
C2    C27   A    
C3    C137  A    
C123  H16   S    
C26   C30   A    
C69   H46   S    
C40   H62   S    
Cr5   O41   S    
Cr11  O13   S    
C63   C68   A    
Cr9   O46   S    
C117  H6    S    
C60   C129  S    
C56   C82   S    
C117  H10   S    
C65   C72   A    
C84   O30   A    
Cr2   O10   S    
C6    C137  A    
C7    C136  A    
C92   H55   S    
C18   C126  S    
C132  O23   A    
Cr10  O11   S    
Cr9   O53   S    
C15   O47   A    
C21   C135  S    
Cr4   O35   S    
C89   C93   A    
C103  C125  A    
C48   H82   S    
C10   C11   S    
C1    O18   A    
C109  C126  A    
C57   C108  A    
C122  H19   S    
C111  C128  A    
C82   O24   A    
C83   O29   A    
Cr10  O20   S    
C115  H4    S    
C41   C42   S    
C113  H2    S    
C77   C78   A    
C53   O15   A    
C43   H69   S    
C54   H87   S    
C15   C95   S    
Cr12  O9    S    
Cr12  O27   S    
C33   C49   S    
C106  C128  A    
C20   O55   A    
Cr8   O22   S    
C80   C89   A    
C24   C29   A    
C23   O7    A    
C38   C58   A    
C124  H17   S    
C2    C97   A    
C68   C69   A    
C39   O49   S    
C13   C28   A    
C70   C71   A    
C44   H72   S    
C50   H40   S    
C12   C98   S    
Cr6   O38   S    
C34   C55   A    
C4    H22   S    
C96   C101  A    
C32   C48   S    
C118  H7    S    
C11   H30   S    
C14   C96   S    
C79   C88   A    
C120  H13   S    
C118  H11   S    
C63   H88   S    
C107  H45   S    
C95   C100  A    
C63   C73   A    
C133  O34   A    
C39   H58   S    
Cr7   O13   S    
C36   C56   A    
Cr7   O39   S    
C38   C54   S    
C68   H44   S    
C2    H32   S    
C112  H89   S    
C45   O52   S    
C129  O31   A    
Cr2   O32   S    
C114  H3    S    
Cr7   O34   S    
C102  C120  S    
C24   C119  A    
C54   H43   S    
C131  O12   A    
Cr1   O36   S    
Cr12  O31   S    
C53   O19   A    
C28   C53   S    
C64   O20   A    
Cr11  O26   S    
C20   C128  S    
C40   H60   S    
C19   O54   A    
C84   O26   A    
Cr1   O9    S    
C9    C139  S    
C8    H27   S    
C90   C91   A    
C65   C69   A    
C92   C93   A    
Cr3   O3    S    
C67   C71   A    
C118  C123  S    
Cr12  O56   S    
C138  C139  A    
C131  O32   A    
C47   H79   S    
C7    H26   S    
Cr3   O29   S    
C10   H29   S    
C62   C74   A    
Cr9   O24   S    
C87   H49   S    
C12   O44   A    
C70   H47   S    
Cr2   O6    S    
C42   H65   S    
C98   C115  A    
C19   O3    A    
C132  O33   A    
C30   C35   S    
C22   C134  S    
C86   H1    S    
Cr11  O48   S    
C21   O5    A    
C25   O8    A    
C49   H37   S    
C49   C54   S    
C81   O27   A    
C15   O42   A    
C82   O28   A    
C94   C112  A    
C83   O25   A    
C25   C136  S    
Cr11  O21   S    
C88   C92   A    
C8    C9    S    
C40   H61   S    
C109  C113  A    
C110  C127  A    
C41   O50   S    
Cr4   O8    S    
Cr8   O9    S    
C16   O48   A    
Cr10  O47   S    
Cr10  O25   S    
Cr12  O5    S    
C101  C105  A    
C5    C134  A    
C60   C77   A    
C34   C50   S    
C46   H81   S    
C62   C79   A    
C52   H42   S    
C21   O36   A    
C44   H71   S    
C41   H64   S    
C124  H21   S    
Cr9   O10   S    
Cr6   O42   S    
C58   C84   S    
C18   O2    A    
C35   C50   S    
C39   H59   S    
C51   H85   S    
C9    H28   S    
C89   H51   S    
Cr4   O4    S    
C93   H57   S    
C81   O22   A    
Cr7   O17   S    
C23   C137  S    
C22   O37   A    
C25   O39   A    
C134  C138  A    
C47   H77   S    
C65   H90   S    
C116  H5    S    
C49   H83   S    
C17   C125  S    
C17   O45   A    
C94   C99   A    
C95   C113  A    
Cr8   O45   S    
C19   C127  S    
C102  C106  A    
Cr2   O28   S    
C79   C80   A    
C64   O16   A    
C20   O4    A    
C104  C126  A    
C111  H78   S    
C111  C115  A    
C3    C140  A    
C120  C124  S    
C10   O51   S    
