data_mof_unit_33813.cif
_audit_creation_date              2012-12-10T19:05:51-0500
_audit_creation_method            fapswitch 2.2
_symmetry_space_group_name_H-M    P1
_symmetry_Int_Tables_number       1
_space_group_crystal_system       triclinic
_cell_length_a                    19.335153
_cell_length_b                    10.843642
_cell_length_c                    9.558449
_cell_angle_alpha                 89.715051
_cell_angle_beta                  89.357619
_cell_angle_gamma                 90.557584
_cell_volume                      2003.81092138

loop_
_atom_site_label
_atom_site_type_symbol
_atom_type_description
_atom_site_fract_x
_atom_site_fract_y
_atom_site_fract_z
_atom_type_partial_charge
C1    C     C_R   0.501076 0.262418 0.500255 0.788335
C2    C     C_R   0.291707 0.497483 0.502099 -0.177737
C3    C     C_R   0.929976 0.497930 0.497805 0.405570
C4    C     C_R   0.070125 0.496381 0.499888 0.433613
C5    C     C_R   0.816895 0.520587 0.621790 -0.149566
C6    C     C_R   0.744893 0.520377 0.622316 -0.185369
C7    C     C_R   0.708577 0.499825 0.498129 -0.031358
C8    C     C_R   0.745549 0.478607 0.373423 -0.189479
C9    C     C_R   0.817668 0.477109 0.373296 -0.148919
C10   C     C_R   0.853918 0.498518 0.497450 0.060031
C11   C     C_R   0.505869 0.063150 0.626072 -0.000213
C12   C     C_R   0.367703 0.499257 0.500701 0.743721
C13   C     C_R   0.507265 0.129454 0.500429 -0.103531
C14   C     C_R   0.516866 0.065438 0.374277 -0.161389
C15   C     C_R   0.516065 0.936928 0.373917 -0.180656
C16   C     C_R   0.505702 0.871119 0.499556 -0.085322
C17   C     C_R   0.504462 0.935909 0.625415 0.063505
C18   C     C_3   0.453198 0.929530 0.743701 -0.422346
C19   C     C_3   0.455587 0.069689 0.745803 -0.150680
C20   C     C_R   0.556191 0.542471 0.071820 0.248542
C21   C     C_R   0.448813 0.443188 0.077214 -0.052764
C22   C     C_R   0.448671 0.442215 0.928864 0.015253
C23   C     C_R   0.500449 0.737713 0.499749 0.792010
C24   C     C_R   0.556381 0.541885 0.924792 0.237287
C25   C     C_3   0.589044 0.666667 0.916647 -0.486212
C26   C     C_3   0.587924 0.668129 0.075659 -0.494348
C27   C     C_R   0.632547 0.500044 0.499299 0.784917
C28   C     C_R   0.254721 0.587843 0.578381 -0.004165
C29   C     C_R   0.182285 0.584588 0.578364 -0.103045
C30   C     C_R   0.146221 0.496226 0.501002 -0.043630
C31   C     C_R   0.182872 0.407958 0.424877 -0.101529
C32   C     C_R   0.255325 0.405837 0.426184 -0.014890
Cu1   Cu    Cu3+1 0.500000 0.499980 0.640670 0.946205
Cu2   Cu    Cu3+1 0.500000 0.500020 0.359330 0.954009
H1    H     H_    0.520481 0.889989 0.274867 0.163033
H2    H     H_    0.402183 0.892441 0.710962 0.202974
H3    H     H_    0.474336 0.885125 0.838715 0.199623
H4    H     H_    0.405872 0.113256 0.717240 0.180437
H5    H     H_    0.407171 0.398690 0.135565 0.159585
H6    H     H_    0.642201 0.664001 0.871571 0.188328
H7    H     H_    0.554966 0.736313 0.868970 0.215283
H8    H     H_    0.640396 0.667621 0.121987 0.195169
H9    H     H_    0.153684 0.653823 0.635583 0.197314
H10   H     H_    0.552169 0.737816 0.119209 0.212664
H11   H     H_    0.154667 0.338244 0.367353 0.196690
H12   H     H_    0.843525 0.536660 0.719192 0.154678
H13   H     H_    0.717758 0.536727 0.720020 0.143276
H14   H     H_    0.718810 0.462286 0.276177 0.148415
H15   H     H_    0.845009 0.460413 0.275823 0.154895
H16   H     H_    0.521857 0.114015 0.275337 0.192856
N1    N     N_R   0.034908 0.441975 0.394356 -0.219100
N2    N     N_R   0.966115 0.443043 0.393121 -0.227347
N3    N     N_R   0.965212 0.551980 0.603460 -0.228572
N4    N     N_R   0.033961 0.551571 0.604254 -0.219587
N5    N     N_R   0.500440 0.500930 0.147930 -0.196601
N6    N     N_R   0.500440 0.500890 0.852020 -0.216788
O1    O     O_R   0.500000 0.319640 0.618810 -0.593146
O2    O     O_R   0.500010 0.319680 0.381230 -0.580960
O3    O     O_R   0.400140 0.499970 0.618830 -0.578174
O4    O     O_R   0.400150 0.500010 0.381250 -0.581543
O5    O     O_R   0.499990 0.680320 0.618770 -0.583679
O6    O     O_R   0.500000 0.680360 0.381190 -0.576545
O7    O     O_R   0.599850 0.499990 0.618750 -0.582737
O8    O     O_R   0.599860 0.500030 0.381170 -0.582725
C33   C     C_2   0.290603 0.689492 0.653464 0.384634
H17   H     H_    0.345489 0.706000 0.638418 0.066831
O9    O     O_2   0.258969 0.757357 0.732606 -0.524049
C34   C     C_2   0.487845 0.121299 0.875713 0.391317
H18   H     H_    0.537427 0.169078 0.870311 0.071548
O10   O     O_2   0.457803 0.111452 0.988248 -0.544826
C35   C     C_1   0.392726 0.377146 0.863203 0.348964
N7    N     N_1   0.347180 0.324344 0.812550 -0.269870
C36   C     C_2   0.291809 0.304242 0.352577 0.385911
H19   H     H_    0.346264 0.287757 0.369735 0.076881
O11   O     O_2   0.261117 0.236240 0.272315 -0.510904

loop_
_geom_bond_atom_site_label_1
_geom_bond_atom_site_label_2
_ccdc_geom_bond_type
C11   C13   A    
C36   H19   S    
C2    C12   S    
C26   H10   S    
C7    C8    A    
N3    N4    A    
C11   C19   S    
C5    C6    A    
C28   C29   A    
C18   H3    S    
C25   H6    S    
C30   C31   A    
C15   C16   A    
Cu2   O6    S    
C7    C27   S    
C2    C32   A    
C18   C19   S    
C15   H1    S    
C34   H18   S    
C12   O3    A    
C23   O6    A    
C20   C24   A    
C8    C9    A    
C33   O9    D    
C9    C10   A    
Cu1   N6    S    
Cu2   N5    S    
Cu1   O3    S    
C13   C14   A    
C29   H9    S    
Cu2   O4    S    
C36   O11   D    
C20   N5    A    
C5    C10   A    
C17   C18   S    
C6    H13   S    
C4    N1    A    
N1    N2    A    
C9    H15   S    
C24   C25   S    
C25   H7    S    
C32   C36   S    
C21   N5    A    
C16   C17   A    
C22   N6    A    
C25   C26   S    
C8    H14   S    
C29   C30   A    
C19   H4    S    
C1    O1    A    
C31   C32   A    
C21   H5    S    
Cu1   O7    S    
Cu2   O8    S    
Cu1   Cu2   S    
C19   C34   S    
C27   O7    A    
C34   O10   D    
C16   C23   S    
C1    C13   S    
C22   C35   S    
C26   H8    S    
C11   C17   A    
Cu1   O1    S    
C4    N4    A    
C3    N2    A    
C6    C7    A    
C24   N6    A    
C5    H12   S    
C28   C33   S    
C35   N7    T    
C3    C10   S    
C1    O2    A    
C3    N3    A    
C14   H16   S    
C20   C26   S    
C27   O8    A    
C12   O4    A    
C23   O5    A    
Cu1   O5    S    
C33   H17   S    
C31   H11   S    
Cu2   O2    S    
C14   C15   A    
C2    C28   A    
C21   C22   A    
C18   H2    S    
C4    C30   S    
