data_mof_unit_10347.cif
_audit_creation_date              2012-12-11T15:47:02-0500
_audit_creation_method            fapswitch 2.2
_symmetry_space_group_name_H-M    P1
_symmetry_Int_Tables_number       1
_space_group_crystal_system       triclinic
_cell_length_a                    20.100571
_cell_length_b                    7.269487
_cell_length_c                    13.629138
_cell_angle_alpha                 90.000036
_cell_angle_beta                  103.135558
_cell_angle_gamma                 90.0
_cell_volume                      1939.39369827

loop_
_atom_site_label
_atom_site_type_symbol
_atom_type_description
_atom_site_fract_x
_atom_site_fract_y
_atom_site_fract_z
_atom_type_partial_charge
O1    O     O_R   0.449560 0.506810 0.599700 -0.535097
O2    O     O_R   0.550440 0.006810 0.400300 -0.535097
O3    O     O_R   0.587960 0.180060 0.595760 -0.545991
O4    O     O_R   0.412040 0.680060 0.404240 -0.545992
C1    C     C_R   0.614876 0.344190 0.617460 0.683968
C2    C     C_R   0.385124 0.844190 0.382541 0.683969
O5    O     O_R   0.452380 0.177430 0.611700 -0.538874
O6    O     O_R   0.547620 0.677430 0.388300 -0.538873
O7    O     O_R   0.413900 0.001890 0.416350 -0.540946
O8    O     O_R   0.586100 0.501890 0.583650 -0.540947
C3    C     C_R   0.435306 0.345518 0.636047 0.686045
C4    C     C_R   0.564694 0.845518 0.363952 0.686045
O9    O     O_3   0.487530 0.337490 0.435890 -0.379808
O10   O     O_3   0.512470 0.837490 0.564110 -0.379807
V1    V     V_3+5 0.502310 0.064660 0.511890 1.408451
V2    V     V_3+5 0.497690 0.564660 0.488110 1.408449
C5    C     C_R   0.610884 0.867514 0.113370 -0.164438
C6    C     C_R   0.389116 0.367537 0.886628 -0.164438
H1    H     H_    0.517213 0.861763 0.163233 0.106220
H2    H     H_    0.482787 0.361776 0.836766 0.106219
H3    H     H_    0.693204 0.878040 0.987598 0.122360
H4    H     H_    0.306796 0.378072 0.012400 0.122363
H5    H     H_    0.584497 0.873288 0.034662 0.115837
H6    H     H_    0.415503 0.373317 0.965336 0.115838
C7    C     C_R   0.605182 0.853533 0.287828 -0.024298
C8    C     C_R   0.394818 0.353535 0.712172 -0.024296
C9    C     C_R   0.935023 0.852806 0.316212 -0.311955
C10   C     C_R   0.064977 0.352799 0.683789 -0.311955
C11   C     C_R   0.901097 0.849082 0.395986 0.478161
C12   C     C_R   0.098903 0.349088 0.604013 0.478165
C13   C     C_R   0.829295 0.850553 0.372206 -0.210811
C14   C     C_R   0.170704 0.350577 0.627791 -0.210806
C15   C     C_R   0.790415 0.856918 0.271139 0.002057
C16   C     C_R   0.209585 0.356936 0.728859 0.002056
C17   C     C_R   0.826353 0.862359 0.192563 0.065831
C18   C     C_R   0.173647 0.362371 0.807435 0.065831
C19   C     C_R   0.717167 0.858507 0.245052 0.096157
C20   C     C_R   0.282833 0.358525 0.754946 0.096156
C21   C     C_R   0.682504 0.866139 0.141552 0.144063
C22   C     C_R   0.317495 0.366163 0.858446 0.144063
C23   C     C_R   0.719299 0.872097 0.066458 -0.206272
C24   C     C_R   0.280701 0.372124 0.933540 -0.206271
C25   C     C_R   0.789969 0.870139 0.091308 -0.171863
C26   C     C_R   0.210031 0.370158 0.908691 -0.171863
C27   C     C_R   0.676688 0.852390 0.317462 -0.215066
C28   C     C_R   0.323312 0.352395 0.682537 -0.215070
C29   C     C_R   0.572486 0.861037 0.186147 -0.173267
C30   C     C_R   0.427514 0.361049 0.813853 -0.173268
C31   C     C_R   0.898354 0.860172 0.216431 -0.108351
C32   C     C_R   0.101646 0.360173 0.783568 -0.108352
H7    H     H_    0.698850 0.845966 0.397205 0.095507
H8    H     H_    0.301149 0.345960 0.602796 0.095511
H9    H     H_    0.990155 0.850655 0.329586 0.096362
H10   H     H_    0.009846 0.350635 0.670415 0.096364
H11   H     H_    0.805369 0.847085 0.435324 0.133186
H12   H     H_    0.194630 0.347129 0.564671 0.133185
H13   H     H_    0.815869 0.874720 0.029833 0.113042
H14   H     H_    0.184130 0.374738 0.970165 0.113044
C33   C     C_R   0.217191 0.022890 0.223855 -0.147916
C34   C     C_R   0.782837 0.522879 0.776065 -0.147943
H15   H     H_    0.193154 0.155554 0.205121 0.122785
H16   H     H_    0.806898 0.655535 0.794733 0.122813
C35   C     C_R   0.282476 0.018442 0.287290 -0.159504
C36   C     C_R   0.717551 0.518432 0.712632 -0.159493
H17   H     H_    0.306436 0.147272 0.315537 0.119197
H18   H     H_    0.693614 0.647255 0.684321 0.119200
C37   C     C_R   0.316112 0.850139 0.313934 -0.040129
C38   C     C_R   0.683887 0.350141 0.686067 -0.040128
C39   C     C_R   0.282687 0.686367 0.275245 -0.156413
C40   C     C_R   0.717286 0.186378 0.724834 -0.156428
H19   H     H_    0.306827 0.553818 0.293971 0.119186
H20   H     H_    0.693122 0.053838 0.706174 0.119191
C41   C     C_R   0.217406 0.690774 0.211798 -0.152021
C42   C     C_R   0.782567 0.190783 0.788279 -0.151996
H21   H     H_    0.193556 0.561843 0.183504 0.120441
H22   H     H_    0.806394 0.061861 0.816638 0.120425
C43   C     C_R   0.183665 0.859076 0.185313 -0.036388
C44   C     C_R   0.816336 0.359074 0.814685 -0.036388
O11   O     O_R   0.913920 0.203370 0.916260 -0.539676
O12   O     O_R   0.086080 0.703370 0.083740 -0.539678
O13   O     O_R   0.047620 0.535540 0.888290 -0.539940
O14   O     O_R   0.952380 0.035540 0.111710 -0.539940
C45   C     C_R   0.063072 0.368227 0.862112 0.706160
C46   C     C_R   0.936928 0.868226 0.137888 0.706162
O15   O     O_R   0.912040 0.532780 0.904220 -0.545416
O16   O     O_R   0.087960 0.032780 0.095780 -0.545415
O17   O     O_R   0.949550 0.708160 0.099720 -0.536526
O18   O     O_R   0.050450 0.208160 0.900280 -0.536527
C47   C     C_R   0.885504 0.364920 0.883011 0.674973
C48   C     C_R   0.114496 0.864921 0.116989 0.674972
O19   O     O_3   0.012480 0.375300 0.064060 -0.378760
O20   O     O_3   0.987520 0.875300 0.935940 -0.378758
V3    V     V_3+5 0.997690 0.648180 0.988110 1.407939
V4    V     V_3+5 0.002310 0.148180 0.011890 1.407940
O21   O     O_3   0.933628 0.843074 0.498314 -0.564044
C49   C     C_3   0.005941 0.850429 0.518766 0.035920
H23   H     H_    0.024274 0.975329 0.486582 0.152822
H24   H     H_    0.027495 0.729376 0.487465 0.147373
C50   C     C_3   0.033962 0.853143 0.632268 -0.655295
H25   H     H_    0.017516 0.727760 0.666747 0.221146
H26   H     H_    0.090658 0.857973 0.649527 0.184081
H27   H     H_    0.014613 0.975837 0.665501 0.219782
O22   O     O_3   0.066371 0.343070 0.501687 -0.564045
C51   C     C_3   0.994059 0.350428 0.481234 0.035914
H28   H     H_    0.975726 0.475327 0.513421 0.152818
H29   H     H_    0.972504 0.229372 0.512532 0.147378
C52   C     C_3   0.966038 0.353150 0.367732 -0.655286
H30   H     H_    0.982488 0.227772 0.333250 0.221149
H31   H     H_    0.909341 0.357968 0.350471 0.184080
H32   H     H_    0.985385 0.475853 0.334503 0.219777

loop_
_geom_bond_atom_site_label_1
_geom_bond_atom_site_label_2
_ccdc_geom_bond_type
C12   C14   A    
C35   H17   S    
O14   V4    S    
C9    C11   A    
C41   H21   S    
O15   V3    S    
O21   C49   S    
O1    C3    A    
C46   O17   A    
O2    C4    A    
C33   C43   A    
C2    O7    A    
C51   H29   S    
C18   C32   A    
C21   C23   A    
O5    C3    A    
C34   C44   A    
C5    H5    S    
C42   H22   S    
C6    H6    S    
C36   C38   A    
C31   C46   S    
H1    C29   S    
C27   H7    S    
C49   C50   S    
C28   H8    S    
C34   H16   S    
C5    C21   A    
C39   H19   S    
C6    C22   A    
O16   V4    S    
C10   C32   A    
C26   H14   S    
C49   H24   S    
C12   O22   S    
C40   C42   A    
C52   H30   S    
C13   C15   A    
C39   C41   A    
C17   C25   A    
C7    C29   A    
C8    C30   A    
O5    V1    S    
C45   O18   A    
O6    V2    S    
C23   C25   A    
C24   C26   A    
C1    C38   S    
C51   H28   S    
O13   C45   A    
C32   C45   S    
C52   H31   S    
O18   V4    S    
C44   C47   S    
C19   C21   A    
C35   C37   A    
C43   C48   S    
C33   H15   S    
C20   C28   A    
O11   V4    S    
O4    C2    A    
O16   C48   A    
C11   O21   S    
O15   C47   A    
C3    C8    S    
C15   C19   A    
C37   C39   A    
C14   C16   A    
O4    V2    S    
C17   C31   A    
O13   V3    S    
C50   H25   S    
O6    C4    A    
C49   H23   S    
O1    V2    S    
O2    V1    S    
H2    C30   S    
H3    C23   S    
C2    C37   S    
C50   H26   S    
O14   C46   A    
C52   H32   S    
C18   C26   A    
C19   C27   A    
C7    C27   A    
O3    V1    S    
C10   H10   S    
C16   C20   A    
C5    C29   A    
O3    C1    A    
C6    C30   A    
C9    H9    S    
C33   C35   A    
C4    C7    S    
C34   C36   A    
C10   C12   A    
O7    V1    S    
C1    O8    A    
C11   C13   A    
O8    V2    S    
O19   V4    S    
C20   C22   A    
H4    C24   S    
O17   V3    S    
C22   C24   A    
O20   V3    S    
C15   C17   A    
C16   C18   A    
O12   C48   A    
O11   C47   A    
C25   H13   S    
C50   H27   S    
C38   C40   A    
C42   C44   A    
O9    V2    S    
O22   C51   S    
C41   C43   A    
O10   V1    S    
C40   H20   S    
C13   H11   S    
O12   V3    S    
C8    C28   A    
C14   H12   S    
C51   C52   S    
C9    C31   A    
C36   H18   S    
