data_mof_unit_55746.cif
_audit_creation_date              2012-12-10T18:20:37-0500
_audit_creation_method            fapswitch 2.2
_symmetry_space_group_name_H-M    P1
_symmetry_Int_Tables_number       1
_space_group_crystal_system       triclinic
_cell_length_a                    14.027769
_cell_length_b                    13.628397
_cell_length_c                    15.011285
_cell_angle_alpha                 89.939335
_cell_angle_beta                  90.03191
_cell_angle_gamma                 83.001464
_cell_volume                      2848.41311887

loop_
_atom_site_label
_atom_site_type_symbol
_atom_type_description
_atom_site_fract_x
_atom_site_fract_y
_atom_site_fract_z
_atom_type_partial_charge
C1    C     C_R   0.499965 0.499900 0.326484 0.896293
C2    C     C_R   0.499977 0.499754 0.673520 0.896416
C3    C     C_R   0.499707 0.498114 0.953670 0.061261
C4    C     C_R   0.499713 0.498201 0.046353 0.061087
C5    C     C_R   0.587865 0.488013 0.907402 0.121023
C6    C     C_R   0.411568 0.508904 0.092660 0.118794
C7    C     C_R   0.324346 0.518549 0.953630 -0.218772
C8    C     C_R   0.675079 0.476930 0.046380 -0.224591
C9    C     C_R   0.324346 0.518981 0.046207 -0.219944
C10   C     C_R   0.675070 0.477439 0.953853 -0.222357
C11   C     C_R   0.803927 0.446155 0.561975 -0.049642
C12   C     C_R   0.195929 0.554492 0.438598 -0.049342
C13   C     C_R   0.791332 0.553034 0.437639 -0.046231
C14   C     C_R   0.208952 0.446685 0.562265 -0.045155
C15   C     C_R   0.892301 0.554562 0.434699 -0.023295
C16   C     C_R   0.108035 0.445069 0.565353 -0.030861
C17   C     C_R   0.949555 0.500079 0.500258 -0.004081
C18   C     C_R   0.050487 0.500693 0.500705 -0.002011
C19   C     C_R   0.905449 0.443352 0.564172 -0.030222
C20   C     C_R   0.094366 0.558490 0.437548 -0.031139
C21   C     C_R   0.936324 0.609642 0.368724 0.136172
C22   C     C_R   0.064239 0.389616 0.631011 0.135589
C23   C     C_R   0.517133 0.314121 0.500126 0.904421
C24   C     C_R   0.482856 0.685883 0.499934 0.904552
C25   C     C_R   0.036775 0.617742 0.374769 0.130774
C26   C     C_R   0.962907 0.385754 0.628303 0.136123
C27   C     C_1   0.469710 0.789649 0.500158 -0.186952
C28   C     C_1   0.530214 0.210362 0.500387 -0.186050
C29   C     C_2   0.458442 0.981270 0.500755 -0.159295
C30   C     C_2   0.541315 0.018760 0.500722 -0.161164
C31   C     C_1   0.538640 0.122589 0.500590 0.005658
C32   C     C_1   0.461178 0.877428 0.500432 0.005328
C33   C     C_R   0.587197 0.488768 0.815282 -0.258546
C34   C     C_R   0.412301 0.509431 0.184818 -0.257038
C35   C     C_R   0.499807 0.499030 0.769411 -0.073566
C36   C     C_R   0.499827 0.499230 0.230601 -0.074104
C37   C     C_R   0.412261 0.508443 0.815094 -0.260805
C38   C     C_R   0.587230 0.488031 0.184842 -0.259702
C39   C     C_R   0.411559 0.508340 0.907264 0.118727
C40   C     C_R   0.587881 0.487638 0.092724 0.121002
H1    H     H_    0.610080 0.972301 0.500561 0.156821
H2    H     H_    0.389669 0.027721 0.500870 0.158220
H3    H     H_    0.654657 0.481156 0.779408 0.158724
H4    H     H_    0.344781 0.518016 0.220736 0.157515
H5    H     H_    0.344657 0.516412 0.779126 0.158106
H6    H     H_    0.654722 0.479233 0.220779 0.161188
H7    H     H_    0.256408 0.526380 0.918340 0.143477
H8    H     H_    0.743026 0.468327 0.081605 0.151716
H9    H     H_    0.256410 0.527158 0.081406 0.149614
H10   H     H_    0.743003 0.469668 0.918723 0.153153
H11   H     H_    0.765500 0.406792 0.609650 0.150693
H12   H     H_    0.234241 0.592836 0.390030 0.148675
H13   H     H_    0.743521 0.594248 0.391074 0.152908
H14   H     H_    0.257123 0.404927 0.608158 0.152773
N1    N     N_R   0.750030 0.500040 0.500070 -0.110225
N2    N     N_R   0.249970 0.499960 0.499930 -0.109847
O1    O     O_R   0.580280 0.500020 0.367860 -0.630849
O2    O     O_R   0.419720 0.499980 0.632140 -0.631919
O3    O     O_R   0.419730 0.500030 0.367840 -0.629153
O4    O     O_R   0.580270 0.499970 0.632160 -0.629371
O5    O     O_R   0.591830 0.359650 0.500030 -0.613051
O6    O     O_R   0.408170 0.640350 0.499970 -0.613108
O7    O     O_R   0.431280 0.359660 0.500010 -0.611240
O8    O     O_R   0.568720 0.640340 0.499990 -0.611616
Zn1   Zn    Zn3+2 0.607200 0.499990 0.500020 0.940828
Zn2   Zn    Zn3+2 0.392800 0.500010 0.499980 0.940987
C41   C     C_3   0.876521 0.655169 0.290176 -0.406989
C42   C     C_3   0.850900 0.575364 0.225893 -0.886466
H15   H     H_    0.917174 0.536537 0.195546 0.261642
H16   H     H_    0.812341 0.519814 0.259964 0.253735
H17   H     H_    0.804259 0.610162 0.171893 0.250007
H18   H     H_    0.810894 0.701102 0.314224 0.186670
H19   H     H_    0.912877 0.706659 0.249429 0.219603
C43   C     C_3   0.125332 0.337415 0.705473 -0.421941
C44   C     C_3   0.173408 0.235986 0.675795 -0.873130
H20   H     H_    0.118547 0.187366 0.657444 0.254308
H21   H     H_    0.220751 0.242492 0.617457 0.259285
H22   H     H_    0.217608 0.200726 0.731185 0.254278
H23   H     H_    0.180040 0.383598 0.729275 0.187629
H24   H     H_    0.083245 0.328548 0.766620 0.217034
C45   C     C_3   0.081873 0.693104 0.318176 -0.409759
C46   C     C_3   0.119378 0.648975 0.229505 -0.876541
H25   H     H_    0.156506 0.703940 0.192673 0.251154
H26   H     H_    0.171057 0.581768 0.240781 0.247646
H27   H     H_    0.059559 0.628841 0.187716 0.264886
H28   H     H_    0.031548 0.761190 0.307129 0.191668
H29   H     H_    0.140876 0.722912 0.354478 0.192626
C47   C     C_3   0.916306 0.318029 0.691876 -0.404201
C48   C     C_3   0.874224 0.374450 0.773582 -0.909143
H30   H     H_    0.932035 0.400836 0.814264 0.255707
H31   H     H_    0.823430 0.439482 0.753592 0.253152
H32   H     H_    0.835311 0.325028 0.815293 0.255560
H33   H     H_    0.860096 0.281735 0.657370 0.191504
H34   H     H_    0.966952 0.253978 0.713939 0.216705

loop_
_geom_bond_atom_site_label_1
_geom_bond_atom_site_label_2
_ccdc_geom_bond_type
C2    C35   S    
C14   N2    A    
C8    C10   A    
C29   H2    S    
C24   C27   S    
C6    C9    A    
C45   C46   S    
C11   C19   A    
C35   C37   A    
C29   C32   S    
C1    O3    A    
O3    Zn2   S    
C30   C31   S    
C33   C35   A    
C2    O4    A    
C20   C25   A    
C7    C9    A    
C41   H18   S    
C19   C26   A    
N1    Zn1   S    
O2    Zn2   S    
C4    C40   A    
C42   H15   S    
C5    C33   A    
C16   C22   A    
C30   H1    S    
C41   H19   S    
C48   H31   S    
C34   C36   A    
C45   H28   S    
C23   O7    A    
O7    Zn2   S    
C3    C39   A    
C24   O8    A    
C43   H24   S    
C21   C41   S    
C25   C45   S    
C12   H12   S    
C13   H13   S    
C47   H34   S    
C43   C44   S    
O6    Zn2   S    
C41   C42   S    
C33   H3    S    
C34   H4    S    
C4    C6    A    
C6    C34   A    
C7    H7    S    
C44   H20   S    
C8    H8    S    
C29   C30   D    
C1    O1    A    
C15   C21   A    
C12   C20   A    
C17   C18   A    
C9    H9    S    
C45   H29   S    
C23   C28   S    
C48   H32   S    
C44   H21   S    
C12   N2    A    
C26   C47   S    
C14   H14   S    
O4    Zn1   S    
C46   H26   S    
C43   H23   S    
C13   C15   A    
C14   C16   A    
C22   C43   S    
C37   H5    S    
C3    C4    A    
C10   H10   S    
C11   N1    A    
C15   C17   A    
C21   C25   A    
C47   H33   S    
C24   O6    A    
C27   C32   T    
C28   C31   T    
O1    Zn1   S    
C3    C5    A    
C2    O2    A    
C46   H27   S    
O8    Zn1   S    
C36   C38   A    
C5    C10   A    
C37   C39   A    
C38   C40   A    
C42   H17   S    
N2    Zn2   S    
C17   C19   A    
C18   C20   A    
C44   H22   S    
C38   H6    S    
C11   H11   S    
O5    Zn1   S    
C23   O5    A    
C47   C48   S    
C16   C18   A    
C46   H25   S    
C22   C26   A    
C42   H16   S    
C7    C39   A    
C8    C40   A    
C48   H30   S    
C1    C36   S    
C13   N1    A    
