data_mof_unit_65969.cif
_audit_creation_date              2012-12-10T21:03:36-0500
_audit_creation_method            fapswitch 2.2
_symmetry_space_group_name_H-M    P1
_symmetry_Int_Tables_number       1
_space_group_crystal_system       triclinic
_cell_length_a                    15.849686
_cell_length_b                    15.059759
_cell_length_c                    23.446944
_cell_angle_alpha                 90.000011
_cell_angle_beta                  89.988353
_cell_angle_gamma                 89.999932
_cell_volume                      5596.60842523

loop_
_atom_site_label
_atom_site_type_symbol
_atom_type_description
_atom_site_fract_x
_atom_site_fract_y
_atom_site_fract_z
_atom_type_partial_charge
C1    C     C_R   0.338846 0.499999 0.500027 0.917242
C2    C     C_R   0.498489 0.580615 0.703036 -0.214656
C3    C     C_R   0.502205 0.580619 0.237886 -0.134753
C4    C     C_R   0.497841 0.580620 0.762114 -0.134733
C5    C     C_R   0.501704 0.500377 0.208066 0.296177
C6    C     C_R   0.498310 0.500378 0.791934 0.296159
C7    C     C_R   0.956257 0.580810 0.498850 -0.175664
C8    C     C_R   0.043743 0.419174 0.501144 -0.176602
C9    C     C_R   0.043744 0.580810 0.498863 -0.175663
C10   C     C_R   0.956256 0.419174 0.501131 -0.176601
C11   C     C_R   0.913153 0.499992 0.499984 0.169551
C12   C     C_R   0.661154 0.499999 0.499973 0.917243
C13   C     C_R   0.086847 0.499993 0.500011 0.169549
C14   C     C_1   0.824377 0.499993 0.499975 -0.065115
C15   C     C_1   0.175623 0.499994 0.500022 -0.065116
C16   C     C_1   0.250456 0.499997 0.500027 -0.174540
C17   C     C_1   0.749544 0.499997 0.499971 -0.174539
C18   C     C_R   0.500048 0.499997 0.388986 0.887072
C19   C     C_R   0.499952 0.499997 0.611014 0.887075
C20   C     C_R   0.474004 0.953110 0.451601 -0.161106
C21   C     C_R   0.525994 0.046901 0.548399 -0.161849
C22   C     C_R   0.525995 0.953110 0.548398 -0.161062
C23   C     C_R   0.500458 0.418596 0.237298 0.213332
C24   C     C_R   0.474006 0.046901 0.451601 -0.161808
C25   C     C_R   0.500000 0.905051 0.500000 0.081396
C26   C     C_R   0.500000 0.094957 0.500000 0.082135
C27   C     C_1   0.500000 0.807195 0.500000 0.040610
C28   C     C_1   0.500000 0.192807 0.500000 0.038126
C29   C     C_R   0.574504 0.504331 0.880343 0.507865
C30   C     C_R   0.425511 0.504370 0.119657 0.507857
C31   C     C_R   0.423516 0.504316 0.880933 0.485784
C32   C     C_R   0.576500 0.504275 0.119067 0.485782
C33   C     C_R   0.422358 0.505365 0.940468 -0.014439
C34   C     C_R   0.499517 0.418596 0.762702 0.213333
C35   C     C_R   0.577658 0.505324 0.059532 -0.014438
C36   C     C_R   0.499756 0.505469 0.970046 -0.022698
C37   C     C_R   0.500260 0.505469 0.029954 -0.022695
C38   C     C_R   0.576653 0.505292 0.939859 -0.017499
C39   C     C_R   0.423364 0.505333 0.060140 -0.017496
C40   C     C_R   0.346120 0.505754 0.970925 -0.159140
C41   C     C_R   0.653897 0.505672 0.029074 -0.159141
C42   C     C_R   0.346618 0.505736 0.030292 -0.163004
C43   C     C_R   0.653398 0.505655 0.969708 -0.162999
C44   C     C_3   0.500208 0.330476 0.206315 -0.421928
C45   C     C_R   0.500032 0.419339 0.296845 -0.232298
C46   C     C_3   0.414185 0.285450 0.210647 -0.826788
C47   C     C_3   0.499730 0.330476 0.793685 -0.421894
C48   C     C_3   0.585726 0.285398 0.789341 -0.826843
C49   C     C_R   0.499938 0.419340 0.703155 -0.232343
C50   C     C_R   0.500461 0.499999 0.326779 -0.079067
C51   C     C_R   0.499542 0.500000 0.673222 -0.079077
C52   C     C_R   0.501552 0.580614 0.296965 -0.214720
H1    H     H_    0.285947 0.505750 0.949037 0.192929
H2    H     H_    0.497170 0.643092 0.784994 0.145834
H3    H     H_    0.077655 0.643293 0.497987 0.145919
H4    H     H_    0.922344 0.356691 0.502008 0.145435
H5    H     H_    0.922347 0.643293 0.497964 0.145930
H6    H     H_    0.077654 0.356692 0.502030 0.145451
H7    H     H_    0.453650 0.081936 0.413681 0.133869
H8    H     H_    0.546355 0.918078 0.586317 0.135011
H9    H     H_    0.546350 0.081936 0.586319 0.133854
H10   H     H_    0.453645 0.918077 0.413683 0.134994
H11   H     H_    0.398092 0.271511 0.255872 0.252910
H12   H     H_    0.714069 0.505636 0.050963 0.192929
H13   H     H_    0.364648 0.328460 0.191708 0.292763
H14   H     H_    0.415554 0.221584 0.187006 0.248912
H15   H     H_    0.516174 0.338316 0.160514 0.214189
H16   H     H_    0.549182 0.286444 0.225057 0.210314
H17   H     H_    0.601791 0.271435 0.744115 0.252881
H18   H     H_    0.635295 0.328385 0.808265 0.292758
H19   H     H_    0.584334 0.221540 0.812990 0.248918
H20   H     H_    0.483782 0.338326 0.839488 0.214184
H21   H     H_    0.450726 0.286474 0.774950 0.210300
H22   H     H_    0.286816 0.505717 0.052658 0.192340
H23   H     H_    0.713200 0.505604 0.947341 0.192340
H24   H     H_    0.499562 0.356774 0.319683 0.167008
H25   H     H_    0.500378 0.356774 0.680317 0.166999
H26   H     H_    0.501927 0.643637 0.319215 0.169962
H27   H     H_    0.498139 0.643638 0.680786 0.169978
H28   H     H_    0.502905 0.643091 0.215006 0.145826
N1    N     N_R   0.498781 0.503081 0.852542 -0.359740
N2    N     N_R   0.501234 0.503080 0.147457 -0.359737
N3    N     N_1   0.500000 0.270550 0.500000 -0.089880
N4    N     N_1   0.500000 0.729450 0.500000 -0.089342
O1    O     O_R   0.378020 0.573650 0.500020 -0.608088
O2    O     O_2   0.352840 0.504487 0.149680 -0.562971
O3    O     O_2   0.350366 0.503930 0.851470 -0.557861
O4    O     O_2   0.649649 0.503851 0.148531 -0.557864
O5    O     O_R   0.621980 0.426350 0.499980 -0.608776
O6    O     O_R   0.621980 0.573650 0.499980 -0.608093
O7    O     O_R   0.378020 0.426350 0.500020 -0.608782
O8    O     O_R   0.499980 0.573680 0.416160 -0.617915
O9    O     O_R   0.500020 0.426320 0.583840 -0.620243
O10   O     O_R   0.500020 0.573680 0.583840 -0.617877
O11   O     O_R   0.499980 0.426320 0.416160 -0.620206
O12   O     O_2   0.647176 0.504408 0.850320 -0.562962
Zn1   Zn    Zn3+2 0.500000 0.598370 0.500000 0.982373
Zn2   Zn    Zn3+2 0.500000 0.401630 0.500000 0.979254

loop_
_geom_bond_atom_site_label_1
_geom_bond_atom_site_label_2
_ccdc_geom_bond_type
C21   C26   A    
C30   N2    A    
C8    C13   A    
C23   C45   A    
C48   H17   S    
O11   Zn2   S    
C7    C11   A    
C45   H24   S    
N4    Zn1   S    
C12   O6    A    
C36   C37   A    
C35   C37   A    
C24   C26   A    
C46   H14   S    
C22   H8    S    
C11   C14   S    
C20   C25   A    
C15   C16   T    
C32   O4    S    
C33   C36   A    
C9    C13   A    
C2    H27   S    
C8    H6    S    
C20   C24   A    
C49   C51   A    
N3    Zn2   S    
C12   C17   S    
C50   C52   A    
C31   C33   A    
C9    H3    S    
C30   O2    S    
C10   H4    S    
O6    Zn1   S    
C21   H9    S    
C19   O9    A    
C40   C42   A    
C1    O7    A    
C6    N1    S    
C21   C22   A    
C28   N3    T    
C43   H23   S    
C18   O11   A    
C41   C43   A    
C14   C17   T    
C52   H26   S    
C3    H28   S    
C44   C46   S    
O8    Zn1   S    
C39   C42   A    
C1    O1    A    
C42   H22   S    
C33   C40   A    
C31   O3    S    
C32   C35   A    
C12   O5    A    
C47   H21   S    
C46   H13   S    
C4    C6    A    
C10   C11   A    
O10   Zn1   S    
C22   C25   A    
C23   C44   S    
C6    C34   A    
C29   C38   A    
C2    C4    A    
C29   N1    A    
C47   C48   S    
C5    C23   A    
C1    C16   S    
C19   O10   A    
C13   C15   S    
C44   H16   S    
C48   H19   S    
C18   C50   S    
C7    C9    A    
C27   N4    T    
C34   C49   A    
C4    H2    S    
C48   H18   S    
C3    C5    A    
C29   O12   S    
C3    C52   A    
C25   C27   S    
C32   N2    A    
C46   H11   S    
C26   C28   S    
C31   N1    A    
O5    Zn2   S    
C18   O8    A    
C36   C38   A    
C38   C43   A    
C37   C39   A    
C5    N2    S    
C45   C50   A    
C24   H7    S    
C49   H25   S    
C30   C39   A    
O7    Zn2   S    
C20   H10   S    
C35   C41   A    
C47   H20   S    
O1    Zn1   S    
C2    C51   A    
C19   C51   S    
C8    C10   A    
C40   H1    S    
C44   H15   S    
C34   C47   S    
C41   H12   S    
O9    Zn2   S    
C7    H5    S    
