data_mof_unit_28062.cif
_audit_creation_date              2012-10-26T20:22:24-0400
_audit_creation_method            fapswitch 2.2
_symmetry_space_group_name_H-M    P1
_symmetry_Int_Tables_number       1
_space_group_crystal_system       triclinic
_cell_length_a                    9.583049
_cell_length_b                    10.825354
_cell_length_c                    17.076822
_cell_angle_alpha                 91.373227
_cell_angle_beta                  84.816227
_cell_angle_gamma                 89.468409
_cell_volume                      1763.6789731

loop_
_atom_site_label
_atom_site_type_symbol
_atom_type_description
_atom_site_fract_x
_atom_site_fract_y
_atom_site_fract_z
_atom_type_partial_charge
C1    C     C_R   0.499637 0.737733 0.500167 0.537381
C2    C     C_R   0.083334 0.410936 0.459775 0.064837
C3    C     C_R   0.063863 0.589383 0.541267 0.328984
C4    C     C_R   0.936033 0.410594 0.458738 0.333735
C5    C     C_R   0.480169 0.503576 0.650363 0.587980
C6    C     C_R   0.519508 0.499332 0.349356 0.578971
C7    C     C_R   0.463306 0.525243 0.735498 0.011147
C8    C     C_R   0.531675 0.507970 0.263311 0.008681
C9    C     C_R   0.544656 0.462635 0.786268 0.206957
C10   C     C_R   0.423719 0.466368 0.219198 0.210300
C11   C     C_R   0.523576 0.489730 0.867393 -0.153625
C12   C     C_R   0.500354 0.262263 0.499866 0.562609
C13   C     C_R   0.429091 0.493092 0.139035 -0.180320
C14   C     C_R   0.421153 0.577017 0.898122 0.041854
C15   C     C_R   0.537086 0.565657 0.103012 -0.000396
C16   C     C_R   0.332932 0.631410 0.846559 0.260311
C17   C     C_R   0.656256 0.586852 0.144958 0.262161
C18   C     C_R   0.361632 0.611232 0.765769 -0.171921
C19   C     C_R   0.649554 0.563271 0.225198 -0.170153
C20   C     C_2   0.408979 0.607682 0.983986 0.269323
C21   C     C_2   0.528304 0.613232 0.021514 0.252400
C22   C     C_3   0.661744 0.781973 0.987941 0.019952
C23   C     C_R   0.626306 0.935050 0.501645 -0.135537
C24   C     C_3   0.603806 0.849038 0.919461 -0.286489
C25   C     C_3   0.631752 0.987437 0.924161 -0.482570
C26   C     C_3   0.239285 0.734718 0.049180 0.017579
C27   C     C_3   0.259003 0.758401 0.136298 -0.281269
C28   C     C_3   0.189987 0.880092 0.166447 -0.472864
C29   C     C_3   0.096899 0.648021 0.880428 0.015879
C30   C     C_3   0.032635 0.632182 0.801462 -0.290046
C31   C     C_3   0.883453 0.584334 0.813069 -0.461098
C32   C     C_3   0.857245 0.535602 0.068318 0.039148
C33   C     C_3   0.951920 0.468203 0.121514 -0.274254
C34   C     C_R   0.373661 0.064928 0.498439 -0.131368
C35   C     C_3   0.039384 0.367870 0.075117 -0.478949
C36   C     C_R   0.626751 0.062822 0.501463 -0.123901
C37   C     C_R   0.373214 0.937155 0.498631 -0.130757
C38   C     C_R   0.500446 0.128301 0.499876 0.023952
C39   C     C_R   0.499526 0.871682 0.500199 0.018629
C40   C     C_R   0.916608 0.588955 0.540305 0.051582
Cu1   Cu    Cu3+1 0.359340 0.499980 0.500000 0.972921
Cu2   Cu    Cu3+1 0.640660 0.500020 0.500000 0.966484
H1    H     H_    0.736945 0.589759 0.257791 0.149717
H2    H     H_    0.146043 0.340147 0.427032 0.164663
H3    H     H_    0.688895 0.339271 0.799563 0.313130
H4    H     H_    0.245935 0.381068 0.216833 0.314831
H5    H     H_    0.775169 0.802596 0.987480 0.166233
H6    H     H_    0.611459 0.819677 0.045270 0.138961
H7    H     H_    0.652938 0.810877 0.862563 0.169834
H8    H     H_    0.489223 0.835545 0.920718 0.175115
H9    H     H_    0.581035 0.028300 0.980013 0.144365
H10   H     H_    0.588019 0.033506 0.874231 0.165720
H11   H     H_    0.746216 0.004467 0.920868 0.147988
H12   H     H_    0.302807 0.663046 0.726164 0.130623
H13   H     H_    0.126240 0.746763 0.041416 0.165418
H14   H     H_    0.295227 0.806430 0.012949 0.144727
H15   H     H_    0.212254 0.681989 0.171749 0.186432
H16   H     H_    0.372308 0.763240 0.144488 0.155084
H17   H     H_    0.235454 0.958226 0.132127 0.146277
H18   H     H_    0.208137 0.895598 0.229217 0.163853
H19   H     H_    0.075265 0.877342 0.161621 0.161853
H20   H     H_    0.022746 0.704763 0.920371 0.143818
H21   H     H_    0.106894 0.556571 0.908331 0.144065
H22   H     H_    0.032250 0.722204 0.771520 0.194905
H23   H     H_    0.347452 0.457103 0.105702 0.156184
H24   H     H_    0.094233 0.563754 0.762885 0.169008
H25   H     H_    0.881666 0.493871 0.842518 0.152081
H26   H     H_    0.840861 0.572488 0.755011 0.189498
H27   H     H_    0.816122 0.651135 0.849370 0.184793
H28   H     H_    0.924710 0.577564 0.020282 0.153041
H29   H     H_    0.789781 0.467952 0.039369 0.141495
H30   H     H_    0.022755 0.535437 0.147382 0.183765
H31   H     H_    0.887097 0.424206 0.170124 0.163510
H32   H     H_    0.970075 0.299750 0.048830 0.140151
H33   H     H_    0.104879 0.318366 0.114826 0.141677
H34   H     H_    0.587041 0.442083 0.906821 0.113758
H35   H     H_    0.109123 0.409179 0.027526 0.178515
H36   H     H_    0.206784 0.654613 0.601799 0.365765
H37   H     H_    0.793750 0.345938 0.397229 0.372376
H38   H     H_    0.725212 0.886211 0.502947 0.138691
H39   H     H_    0.274757 0.113766 0.497126 0.140408
H40   H     H_    0.725755 0.109998 0.502652 0.170364
H41   H     H_    0.274211 0.889975 0.497447 0.167500
H42   H     H_    0.853881 0.659653 0.573130 0.139373
N1    N     N_R   0.147930 0.499970 0.499980 -0.271701
N2    N     N_R   0.852070 0.500030 0.500020 -0.269713
O1    O     O_R   0.381260 0.680340 0.500000 -0.505891
O2    O     O_3   0.314286 0.400376 0.255413 -0.689397
O3    O     O_3   0.649559 0.651974 0.978945 -0.603443
O4    O     O_3   0.276972 0.611577 0.025026 -0.621422
O5    O     O_3   0.225644 0.712311 0.873168 -0.574559
O6    O     O_3   0.779876 0.632880 0.109675 -0.563526
O7    O     O_3   0.117340 0.683024 0.584821 -0.737752
O8    O     O_3   0.882344 0.316983 0.415189 -0.723402
O9    O     O_R   0.618740 0.319660 0.500000 -0.490856
O10   O     O_R   0.618830 0.680370 0.500010 -0.526321
O11   O     O_R   0.381170 0.319630 0.499990 -0.515684
O12   O     O_R   0.367440 0.500000 0.613600 -0.544195
O13   O     O_R   0.632560 0.500000 0.386400 -0.549446
O14   O     O_R   0.605010 0.500030 0.613600 -0.454348
O15   O     O_R   0.394990 0.499970 0.386400 -0.436785
O16   O     O_3   0.642158 0.375404 0.755797 -0.689366

loop_
_geom_bond_atom_site_label_1
_geom_bond_atom_site_label_2
_ccdc_geom_bond_type
C1    O1    A    
C22   H6    S    
C29   H21   S    
C35   H32   S    
C30   H22   S    
C3    N1    A    
C34   C37   A    
Cu1   Cu2   S    
C40   H42   S    
C26   H13   S    
C13   H23   S    
C31   H25   S    
C35   H33   S    
C26   C27   S    
Cu2   O10   S    
C25   H11   S    
C11   H34   S    
C30   C31   S    
C11   C14   A    
C4    N2    A    
H36   O7    S    
C2    N1    A    
C7    C9    A    
C6    O15   A    
C40   N2    A    
Cu1   O11   S    
C33   H30   S    
C17   C19   A    
C2    H2    S    
C9    O16   S    
C12   O9    A    
Cu2   N2    S    
C34   H39   S    
C23   H38   S    
C28   H19   S    
C22   H5    S    
C17   O6    S    
C19   H1    S    
C32   H29   S    
H4    O2    S    
C28   H18   S    
C24   H8    S    
C31   H26   S    
Cu1   O1    S    
C8    C19   A    
Cu2   O9    S    
C14   C20   S    
C24   C25   S    
H37   O8    S    
C27   H15   S    
C36   H40   S    
C5    C7    S    
C18   H12   S    
C32   H28   S    
C20   O4    S    
C35   H35   S    
C2    C4    A    
C25   H9    S    
C29   C30   S    
Cu2   O14   S    
C5    O14   A    
C31   H27   S    
C7    C18   A    
C10   O2    S    
C3    O7    S    
C16   C18   A    
C5    O12   A    
C9    C11   A    
C12   O11   A    
C30   H24   S    
C4    O8    S    
C33   H31   S    
C3    C40   A    
C13   C15   A    
C22   C24   S    
C29   O5    S    
C28   H17   S    
C24   H7    S    
C15   C17   A    
C29   H20   S    
C34   C38   A    
C21   O3    S    
C10   C13   A    
C26   H14   S    
C6    C8    S    
C26   O4    S    
Cu1   N1    S    
C6    O13   A    
C36   C38   A    
C25   H10   S    
C37   C39   A    
Cu2   O13   S    
C32   C33   S    
C32   O6    S    
C27   H16   S    
C1    O10   A    
C23   C39   A    
C33   C35   S    
C22   O3    S    
Cu1   O15   S    
C14   C16   A    
C12   C38   S    
H3    O16   S    
C1    C39   S    
C15   C21   S    
C20   C21   D    
C16   O5    S    
C8    C10   A    
C23   C36   A    
C27   C28   S    
Cu1   O12   S    
C37   H41   S    
