data_mof_unit_12602.cif
_audit_creation_date              2012-12-11T14:54:40-0500
_audit_creation_method            fapswitch 2.2
_symmetry_space_group_name_H-M    P1
_symmetry_Int_Tables_number       1
_space_group_crystal_system       triclinic
_cell_length_a                    18.981656
_cell_length_b                    10.978038
_cell_length_c                    18.865667
_cell_angle_alpha                 90.183273
_cell_angle_beta                  89.972279
_cell_angle_gamma                 89.854345
_cell_volume                      3931.21969536

loop_
_atom_site_label
_atom_site_type_symbol
_atom_type_description
_atom_site_fract_x
_atom_site_fract_y
_atom_site_fract_z
_atom_type_partial_charge
C1    C     C_R   0.729188 0.375018 0.645034 0.562078
C2    C     C_R   0.307511 0.870454 0.462221 0.263005
C3    C     C_R   0.038763 0.577799 0.452787 -0.182488
C4    C     C_3   0.575679 0.859672 0.060394 -0.075634
C5    C     C_3   0.388497 0.705486 0.961465 -0.073929
C6    C     C_3   0.089573 0.362251 0.087348 -0.086794
C7    C     C_3   0.893066 0.215830 0.960486 -0.080526
C8    C     C_3   0.960058 0.040078 0.388584 -0.082450
C9    C     C_3   0.994574 0.996050 0.650026 -0.093400
C10   C     C_3   0.460088 0.540015 0.388540 -0.081387
C11   C     C_3   0.494599 0.496139 0.649984 -0.093865
C12   C     C_3   0.613993 0.744256 0.580415 -0.123610
C13   C     C_R   0.212927 0.340847 0.542296 0.248138
C14   C     C_3   0.428312 0.829567 0.460699 -0.123095
C15   C     C_3   0.113952 0.244212 0.580329 -0.123413
C16   C     C_3   0.928308 0.329780 0.460633 -0.123156
C17   C     C_R   0.807498 0.370431 0.462216 0.263208
C18   C     C_R   0.716401 0.823170 0.469032 -0.127080
C19   C     C_R   0.302410 0.860811 0.536530 -0.146916
C20   C     C_R   0.216377 0.323197 0.469027 -0.127376
C21   C     C_R   0.802407 0.360801 0.536525 -0.146885
C22   C     C_R   0.749206 0.910230 0.425465 -0.011645
C23   C     C_R   0.243550 0.907084 0.571940 0.003280
C24   C     C_R   0.249205 0.410240 0.425463 -0.011844
C25   C     C_R   0.269701 0.375772 0.354255 0.561762
C26   C     C_R   0.743553 0.407088 0.571940 0.003223
C27   C     C_R   0.775221 0.017574 0.454397 -0.107569
C28   C     C_R   0.189098 0.961807 0.533669 -0.103872
C29   C     C_R   0.275245 0.517563 0.454400 -0.107434
C30   C     C_R   0.689103 0.461825 0.533672 -0.103838
C31   C     C_R   0.774523 0.033171 0.526870 -0.169604
C32   C     C_R   0.191463 0.967054 0.461527 -0.195105
C33   C     C_R   0.274551 0.533151 0.526872 -0.169709
C34   C     C_R   0.691464 0.467069 0.461529 -0.195301
C35   C     C_R   0.745427 0.943989 0.571270 0.030483
C36   C     C_R   0.229187 0.875016 0.645034 0.562279
C37   C     C_R   0.250843 0.925532 0.425067 0.043716
C38   C     C_R   0.245430 0.443988 0.571269 0.030451
C39   C     C_R   0.750836 0.425524 0.425065 0.043602
C40   C     C_R   0.457604 0.090481 0.951970 -0.110385
C41   C     C_R   0.443680 0.088710 0.023974 -0.139645
C42   C     C_R   0.974114 0.566359 0.955444 -0.123532
C43   C     C_R   0.963725 0.562156 0.027510 -0.121268
C44   C     C_R   0.482072 0.162787 0.070707 0.024531
C45   C     C_R   0.508663 0.169627 0.926104 0.070760
C46   C     C_R   0.983842 0.660350 0.070782 0.037619
C47   C     C_R   0.769702 0.875769 0.354257 0.559814
C48   C     C_R   0.006683 0.667528 0.925497 0.063025
C49   C     C_R   0.531200 0.245107 0.044854 -0.107139
C50   C     C_R   0.544424 0.248885 0.972414 -0.080174
C51   C     C_R   0.012889 0.764429 0.040784 -0.115363
C52   C     C_R   0.025826 0.767323 0.968288 -0.066643
C53   C     C_R   0.533404 0.154672 0.645559 0.566696
C54   C     C_R   0.469012 0.156411 0.352684 0.552990
C55   C     C_R   0.033409 0.654674 0.645557 0.566723
C56   C     C_R   0.969015 0.656412 0.352683 0.555040
C57   C     C_R   0.814052 0.902817 0.954632 0.194765
C58   C     C_3   0.480043 0.391622 0.472226 0.187198
C59   C     C_R   0.188579 0.972765 0.034678 0.206750
C60   C     C_R   0.311974 0.394551 0.954390 0.189772
C61   C     C_R   0.689996 0.476906 0.033668 0.196961
C62   C     C_R   0.820449 0.889543 0.027058 -0.157174
C63   C     C_R   0.191070 0.971209 0.962343 -0.150596
C64   C     C_R   0.318478 0.378524 0.026733 -0.150781
C65   C     C_R   0.692886 0.476918 0.961255 -0.157657
C66   C     C_R   0.760946 0.896832 0.071352 0.018090
C67   C     C_R   0.244888 0.910184 0.926228 0.011553
C68   C     C_R   0.260657 0.398288 0.072001 0.013326
C69   C     C_3   0.466519 0.382288 0.551178 0.169405
C70   C     C_R   0.746347 0.414827 0.925071 0.012496
C71   C     C_R   0.693283 0.909633 0.042963 0.257258
C72   C     C_R   0.301084 0.856030 0.963880 0.243107
C73   C     C_R   0.194468 0.427944 0.044629 0.245835
C74   C     C_R   0.803189 0.362440 0.962496 0.251273
C75   C     C_R   0.687539 0.928041 0.969652 -0.173159
C76   C     C_R   0.301313 0.866761 0.038285 -0.186926
C77   C     C_R   0.188120 0.444950 0.971736 -0.149527
C78   C     C_R   0.803593 0.373534 0.036904 -0.180269
C79   C     C_R   0.747740 0.926341 0.925982 0.005475
C80   C     C_3   0.980025 0.891623 0.472231 0.187530
C81   C     C_R   0.246356 0.927077 0.073707 0.005273
C82   C     C_R   0.246828 0.429688 0.926786 0.000065
C83   C     C_R   0.747746 0.430967 0.072593 -0.001378
C84   C     C_R   0.740542 0.972944 0.646038 0.579368
C85   C     C_R   0.258884 0.969230 0.352776 0.564134
C86   C     C_R   0.240542 0.472947 0.646037 0.579994
C87   C     C_R   0.758882 0.469226 0.352774 0.561470
C88   C     C_R   0.729952 0.378718 0.852532 0.566861
C89   C     C_R   0.271522 0.375598 0.146542 0.582342
C90   C     C_R   0.229602 0.877644 0.852960 0.569648
C91   C     C_3   0.966505 0.882281 0.551183 0.169242
C92   C     C_R   0.772025 0.874248 0.146001 0.584510
C93   C     C_R   0.533381 0.157611 0.853857 0.563616
C94   C     C_R   0.465225 0.156360 0.145322 0.548084
C95   C     C_R   0.033317 0.657459 0.853829 0.563839
C96   C     C_R   0.964735 0.655951 0.145016 0.556260
C97   C     C_R   0.740798 0.971601 0.854378 0.595774
C98   C     C_R   0.257967 0.970454 0.145794 0.568505
C99   C     C_R   0.240650 0.472186 0.854595 0.597013
C100  C     C_R   0.758249 0.471288 0.145424 0.566329
C101  C     C_R   0.498925 0.171098 0.422961 -0.009209
C102  C     C_R   0.712950 0.840824 0.542299 0.248095
C103  C     C_R   0.513286 0.157626 0.571285 0.032919
C104  C     C_R   0.998932 0.671112 0.422958 -0.008983
C105  C     C_R   0.013302 0.657638 0.571281 0.032815
C106  C     C_R   0.467144 0.257144 0.467811 0.033349
C107  C     C_R   0.469637 0.246778 0.541207 -0.028653
C108  C     C_R   0.967138 0.757140 0.467811 0.033120
C109  C     C_R   0.969636 0.746771 0.541208 -0.028840
C110  C     C_R   0.547279 0.073145 0.525890 -0.171270
C111  C     C_R   0.538721 0.077745 0.452795 -0.182590
C112  C     C_R   0.047326 0.573203 0.525882 -0.171193
Cl1   Cl    Cl    0.890005 0.892581 0.901399 -0.652172
Cl2   Cl    Cl    0.110728 0.035893 0.071149 -0.700578
Cl3   Cl    Cl    0.386571 0.373740 0.900219 -0.638679
Cl4   Cl    Cl    0.611040 0.535433 0.070696 -0.665976
Cr1   Cr    Cr6+3 0.771950 0.169480 0.750100 1.054360
Cr2   Cr    Cr6+3 0.383410 0.010620 0.249390 1.043464
Cr3   Cr    Cr6+3 0.116590 0.510620 0.750610 1.024883
Cr4   Cr    Cr6+3 0.883410 0.510620 0.249390 1.035751
Cr5   Cr    Cr6+3 0.228050 0.169480 0.249900 1.040979
Cr6   Cr    Cr6+3 0.271950 0.669480 0.750100 1.052464
Cr7   Cr    Cr6+3 0.728050 0.669480 0.249900 1.067339
Cr8   Cr    Cr6+3 0.614930 0.323340 0.749170 1.041551
Cr9   Cr    Cr6+3 0.385070 0.323340 0.250830 1.037459
Cr10  Cr    Cr6+3 0.114930 0.823340 0.749170 1.039923
Cr11  Cr    Cr6+3 0.885070 0.823340 0.250830 1.031565
Cr12  Cr    Cr6+3 0.616590 0.010620 0.750610 1.022635
H1    H     H_    0.583060 0.005712 0.546590 0.130936
H2    H     H_    0.346007 0.834587 0.068501 0.124354
H3    H     H_    0.138308 0.477538 0.950982 0.148282
H4    H     H_    0.848108 0.341203 0.067229 0.119744
H5    H     H_    0.536212 0.413374 0.459599 0.104746
H6    H     H_    0.411995 0.412194 0.565986 0.135225
H7    H     H_    0.036191 0.913389 0.459601 0.104929
H8    H     H_    0.911979 0.912175 0.565993 0.135166
H9    H     H_    0.697995 0.737710 0.447124 0.143065
H10   H     H_    0.342648 0.814199 0.566709 0.110418
H11   H     H_    0.197957 0.237750 0.447114 0.143226
H12   H     H_    0.562449 0.007846 0.419794 0.126608
H13   H     H_    0.842648 0.314177 0.566694 0.110532
H14   H     H_    0.799885 0.085789 0.421378 0.180098
H15   H     H_    0.142388 0.996641 0.559008 0.205930
H16   H     H_    0.299927 0.585764 0.421384 0.180304
H17   H     H_    0.642399 0.496673 0.559013 0.205955
H18   H     H_    0.797128 0.115375 0.548415 0.146588
H19   H     H_    0.147681 0.010536 0.434743 0.125141
H20   H     H_    0.297178 0.615338 0.548419 0.146571
H21   H     H_    0.647685 0.510566 0.434748 0.125077
H22   H     H_    0.429921 0.028780 0.916851 0.169131
H23   H     H_    0.083134 0.505812 0.546581 0.130890
H24   H     H_    0.403877 0.027829 0.043742 0.135873
H25   H     H_    0.959581 0.488150 0.923567 0.174119
H26   H     H_    0.939389 0.481702 0.049268 0.129731
H27   H     H_    0.560492 0.302326 0.080914 0.179329
H28   H     H_    0.585081 0.308784 0.952902 0.146915
H29   H     H_    0.025710 0.841675 0.073679 0.193365
H30   H     H_    0.051884 0.845986 0.946018 0.171907
H31   H     H_    0.588451 0.774227 0.031330 0.173930
H32   H     H_    0.547427 0.922863 0.024780 0.112206
H33   H     H_    0.539474 0.836216 0.104426 0.168631
H34   H     H_    0.062510 0.507925 0.419782 0.126016
H35   H     H_    0.349121 0.645691 0.987753 0.137327
H36   H     H_    0.428175 0.739142 0.000054 0.103205
H37   H     H_    0.417029 0.648950 0.921934 0.198528
H38   H     H_    0.112775 0.276711 0.107997 0.205274
H39   H     H_    0.067949 0.348276 0.033105 0.118699
H40   H     H_    0.045034 0.386298 0.122685 0.154669
H41   H     H_    0.855284 0.154195 0.987665 0.139197
H42   H     H_    0.932249 0.253438 0.998340 0.098079
H43   H     H_    0.922670 0.160215 0.921330 0.200208
H44   H     H_    0.987131 0.988081 0.345779 0.129942
H45   H     H_    0.872307 0.872364 0.048841 0.173259
H46   H     H_    0.998052 0.101813 0.415518 0.075054
H47   H     H_    0.918943 0.097539 0.363600 0.174855
H48   H     H_    0.958188 0.938836 0.682073 0.147200
H49   H     H_    0.967192 0.080086 0.631874 0.089892
H50   H     H_    0.038479 0.023177 0.685391 0.149933
H51   H     H_    0.487126 0.487955 0.345738 0.130537
H52   H     H_    0.498116 0.601735 0.415437 0.075333
H53   H     H_    0.418981 0.597495 0.363559 0.175535
H54   H     H_    0.458156 0.439034 0.682024 0.146954
H55   H     H_    0.467290 0.580207 0.631786 0.089626
H56   H     H_    0.147067 0.011895 0.934402 0.179792
H57   H     H_    0.538496 0.523207 0.685373 0.149683
H58   H     H_    0.596365 0.724644 0.525289 0.083475
H59   H     H_    0.588852 0.828207 0.601234 0.139747
H60   H     H_    0.595275 0.669469 0.614482 0.148791
H61   H     H_    0.434690 0.750623 0.496851 0.110702
H62   H     H_    0.433486 0.916721 0.490434 0.133549
H63   H     H_    0.471872 0.825907 0.421562 0.138811
H64   H     H_    0.096394 0.224464 0.525194 0.083304
H65   H     H_    0.088764 0.328182 0.601064 0.139548
H66   H     H_    0.095215 0.169469 0.614426 0.148927
H67   H     H_    0.369167 0.351082 0.047820 0.178081
H68   H     H_    0.934790 0.250971 0.496861 0.110757
H69   H     H_    0.933427 0.417035 0.490275 0.133828
H70   H     H_    0.971837 0.326112 0.421462 0.137932
H71   H     H_    0.648703 0.517141 0.933367 0.181779
H72   H     H_    0.636850 0.951185 0.947147 0.137356
O1    O     O_R   0.787510 0.042610 0.670410 -0.544695
O2    O     O_R   0.454250 0.051070 0.169440 -0.521787
O3    O     O_R   0.045750 0.551070 0.830560 -0.530849
O4    O     O_R   0.954250 0.551070 0.169440 -0.534224
O5    O     O_R   0.681210 0.959150 0.825320 -0.519303
O6    O     O_R   0.318790 0.959150 0.174680 -0.529188
O7    O     O_R   0.181210 0.459150 0.825320 -0.516853
O8    O     O_R   0.818790 0.459150 0.174680 -0.529131
O9    O     O_3   0.667820 0.167810 0.749960 -0.280699
O10   O     O_3   0.332180 0.167810 0.250040 -0.271898
O11   O     O_3   0.167820 0.667810 0.749960 -0.279706
O12   O     O_R   0.212490 0.042610 0.329590 -0.546804
O13   O     O_3   0.832180 0.667810 0.250040 -0.274299
O14   O     O_R   0.765670 0.292090 0.675090 -0.520096
O15   O     O_R   0.234330 0.292090 0.324910 -0.519768
O16   O     O_R   0.265670 0.792090 0.675090 -0.520432
O17   O     O_R   0.734330 0.792090 0.324910 -0.519532
O18   O     O_R   0.670220 0.409020 0.668560 -0.499533
O19   O     O_R   0.329780 0.409020 0.331440 -0.479062
O20   O     O_R   0.170220 0.909020 0.668560 -0.499214
O21   O     O_R   0.829780 0.909020 0.331440 -0.479984
O22   O     O_R   0.556580 0.251590 0.674980 -0.453120
O23   O     O_R   0.287510 0.542610 0.670410 -0.544852
O24   O     O_R   0.443420 0.251590 0.325020 -0.487507
O25   O     O_R   0.056580 0.751590 0.674980 -0.453013
O26   O     O_R   0.943420 0.751590 0.325020 -0.485996
O27   O     O_R   0.545890 0.049670 0.670030 -0.543851
O28   O     O_R   0.454110 0.049670 0.329970 -0.502929
O29   O     O_R   0.045890 0.549670 0.670030 -0.543563
O30   O     O_R   0.954110 0.549670 0.329970 -0.504332
O31   O     O_R   0.681340 0.957860 0.676500 -0.480695
O32   O     O_R   0.318660 0.957860 0.323500 -0.443107
O33   O     O_R   0.181340 0.457860 0.676500 -0.480424
O34   O     O_R   0.712490 0.542610 0.329590 -0.547672
O35   O     O_R   0.818660 0.457860 0.323500 -0.444275
O36   O     O_R   0.787380 0.044010 0.830940 -0.450794
O37   O     O_R   0.212620 0.044010 0.169060 -0.445740
O38   O     O_R   0.287380 0.544010 0.830940 -0.456070
O39   O     O_R   0.712620 0.544010 0.169060 -0.437069
O40   O     O_R   0.765540 0.293390 0.823910 -0.443675
O41   O     O_R   0.234460 0.293390 0.176090 -0.483689
O42   O     O_R   0.265540 0.793390 0.823910 -0.444389
O43   O     O_R   0.734460 0.793390 0.176090 -0.447155
O44   O     O_R   0.670090 0.410410 0.829090 -0.545832
O45   O     O_R   0.556450 0.252890 0.823790 -0.486463
O46   O     O_R   0.329910 0.410410 0.170910 -0.531525
O47   O     O_R   0.170090 0.910410 0.829090 -0.545688
O48   O     O_R   0.829910 0.910410 0.170910 -0.543752
O49   O     O_3   0.636004 0.916464 0.088999 -0.550692
O50   O     O_3   0.356619 0.804065 0.925763 -0.561346
O51   O     O_3   0.139305 0.457128 0.089525 -0.568416
O52   O     O_3   0.858572 0.310789 0.923965 -0.560678
O53   O     O_3   0.927794 0.960433 0.437295 -0.561922
O54   O     O_3   0.022303 0.930830 0.591658 -0.590257
O55   O     O_3   0.427819 0.460446 0.437289 -0.562531
O56   O     O_R   0.443550 0.252890 0.176210 -0.503189
O57   O     O_3   0.522322 0.430814 0.591656 -0.590077
O58   O     O_3   0.687938 0.749982 0.586182 -0.557859
O59   O     O_3   0.363745 0.821477 0.423877 -0.561673
O60   O     O_3   0.187889 0.250028 0.586182 -0.557623
O61   O     O_3   0.863718 0.321404 0.423879 -0.562027
O62   O     O_R   0.056450 0.752890 0.823790 -0.492744
O63   O     O_R   0.943550 0.752890 0.176210 -0.509987
O64   O     O_R   0.545750 0.051070 0.830560 -0.529581

loop_
_geom_bond_atom_site_label_1
_geom_bond_atom_site_label_2
_ccdc_geom_bond_type
C3    C104  A    
C44   C49   A    
C15   H64   S    
C6    H38   S    
C69   H6    S    
C48   C95   S    
C7    H43   S    
Cr9   O56   S    
C82   C99   S    
C55   O29   A    
C54   C101  S    
C9    O54   S    
C39   C87   S    
C21   C26   A    
C35   C102  A    
C45   C93   S    
C110  H1    S    
C36   O20   A    
Cr7   O43   S    
C69   C107  S    
C8    H47   S    
C9    H49   S    
C57   C62   A    
Cr6   O42   S    
C98   O37   A    
Cr6   O38   S    
C75   H72   S    
C89   O46   A    
Cr5   O41   S    
C60   C64   A    
C85   O32   A    
Cr6   O16   S    
C87   O34   A    
C12   O58   S    
C6    O51   S    
C9    H48   S    
C103  C110  A    
C10   H51   S    
C11   O57   S    
C20   H11   S    
C37   C85   S    
Cr2   O6    S    
C13   O60   S    
C4    O49   S    
Cr10  O11   S    
C59   Cl2   S    
Cr4   O35   S    
C17   C39   A    
C92   O43   A    
C8    H46   S    
C4    H31   S    
C81   C98   S    
C95   O3    A    
C65   C70   A    
C88   O40   A    
C64   H67   S    
C29   C33   A    
C8    O53   S    
C27   H14   S    
C87   O35   A    
C108  C109  A    
Cr10  O62   S    
C100  O39   A    
C67   C72   A    
C18   C102  A    
Cr5   O12   S    
Cr8   O45   S    
C49   C50   A    
C84   O31   A    
C78   H4    S    
C110  C111  A    
C6    H40   S    
C3    H34   S    
Cr8   O9    S    
C24   C29   A    
C99   O38   A    
C76   H2    S    
C78   C83   A    
Cr3   O33   S    
C95   O62   A    
C91   H8    S    
C20   C24   A    
Cr1   O40   S    
C50   H28   S    
Cr7   O13   S    
C14   O59   S    
C70   C74   A    
Cr11  O26   S    
C9    H50   S    
C64   C68   A    
C1    O18   A    
C94   O2    A    
C5    H37   S    
C74   O52   S    
Cr8   O44   S    
C43   H26   S    
C42   C43   A    
C41   H24   S    
C72   C76   A    
C93   O64   A    
C22   C47   S    
C47   O21   A    
C70   C88   S    
C65   H71   S    
C4    H33   S    
C17   O61   S    
C31   H18   S    
C12   H60   S    
Cr9   O46   S    
Cr2   O2    S    
C11   H54   S    
C60   C82   A    
C57   C79   A    
Cr1   O1    S    
C46   C96   S    
C43   C46   A    
C34   H21   S    
Cr10  O20   S    
C111  H12   S    
C96   O4    A    
Cr7   O39   S    
C58   H5    S    
C52   H30   S    
C40   C45   A    
C63   C67   A    
C86   O33   A    
C80   O53   S    
C30   C34   A    
C27   C31   A    
C51   C52   A    
Cr4   O8    S    
C5    H36   S    
C62   H45   S    
C28   C32   A    
C42   H25   S    
Cr3   O3    S    
C24   C25   S    
C56   C104  S    
C61   C83   A    
Cr2   O32   S    
C100  O8    A    
C62   C66   A    
Cr11  O13   S    
C66   C92   S    
Cr1   O36   S    
Cr2   O28   S    
C68   C73   A    
Cr5   O10   S    
C12   H59   S    
C46   C51   A    
C51   H29   S    
C67   C90   S    
C17   C21   A    
C102  O58   S    
C99   O7    A    
C58   C106  S    
C14   H62   S    
C18   H9    S    
C19   C23   A    
C16   H69   S    
C16   H68   S    
C33   H20   S    
C94   O56   A    
Cr12  O9    S    
C53   O22   A    
Cr7   O34   S    
C47   O17   A    
C54   O24   A    
C66   C71   A    
C25   O15   A    
C3    C112  A    
Cr9   O10   S    
C12   H58   S    
C90   O47   A    
Cr12  O27   S    
C61   Cl4   S    
C68   C89   S    
C112  H23   S    
C40   H22   S    
C58   O55   S    
C28   H15   S    
C42   C48   A    
C32   C37   A    
C97   O5    A    
C80   H7    S    
C54   O28   A    
C13   C38   A    
C93   O45   A    
C92   O48   A    
C16   O61   S    
Cr9   O19   S    
C40   C41   A    
C105  C112  A    
Cr8   O22   S    
C26   C30   A    
Cr12  O31   S    
C22   C27   A    
C90   O42   A    
Cr8   O18   S    
C74   C78   A    
C1    C26   S    
Cr4   O4    S    
C41   C44   A    
C31   C35   A    
C25   O19   A    
Cr10  O25   S    
C23   C28   A    
C86   O23   A    
C14   H63   S    
Cr4   O30   S    
C38   C86   S    
C85   O12   A    
C5    H35   S    
C104  C108  A    
C16   H70   S    
C30   H17   S    
C69   O57   S    
Cr9   O24   S    
C101  C106  A    
C14   H61   S    
C84   O1    A    
C105  C109  A    
C6    H39   S    
C83   C100  S    
C63   H56   S    
C13   C20   A    
C2    C19   A    
C18   C22   A    
C59   C63   A    
C5    O50   S    
C79   C97   S    
C77   H3    S    
C59   C81   A    
C76   C81   A    
C88   O44   A    
C11   H55   S    
C57   Cl1   S    
C35   C84   S    
C34   C39   A    
C58   C69   S    
C15   H66   S    
C56   O30   A    
C91   O54   S    
C96   O63   A    
C80   C108  S    
Cr3   O11   S    
C33   C38   A    
C56   O26   A    
C7    O52   S    
Cr2   O10   S    
C10   O55   S    
C10   H52   S    
C91   C109  S    
C80   C91   S    
C7    H41   S    
Cr4   O13   S    
C21   H13   S    
C53   O27   A    
C71   C75   A    
C29   H16   S    
C2    C37   A    
C55   O25   A    
C4    H32   S    
Cr10  O47   S    
C77   C82   A    
C53   C103  S    
C19   H10   S    
Cr5   O37   S    
C101  C111  A    
Cr1   O9    S    
C32   H19   S    
C55   C105  S    
C11   H57   S    
C2    O59   S    
C89   O41   A    
Cr12  O64   S    
C49   H27   S    
Cr1   O14   S    
Cr7   O17   S    
Cr6   O23   S    
C44   C94   S    
Cr3   O29   S    
C15   H65   S    
C61   C65   A    
Cr12  O5    S    
C48   C52   A    
Cr3   O7    S    
C7    H42   S    
Cr5   O15   S    
C23   C36   S    
C106  C107  A    
Cr11  O21   S    
C97   O36   A    
C1    O14   A    
C10   H53   S    
C73   C77   A    
Cr6   O11   S    
C98   O6    A    
C60   Cl3   S    
C103  C107  A    
C45   C50   A    
C72   O50   S    
Cr11  O48   S    
C75   C79   A    
C71   O49   S    
C36   O16   A    
C15   O60   S    
C8    H44   S    
C73   O51   S    
Cr11  O63   S    
