data_mof_unit_7876.cif
_audit_creation_date              2012-12-11T16:57:22-0500
_audit_creation_method            fapswitch 2.2
_symmetry_space_group_name_H-M    P1
_symmetry_Int_Tables_number       1
_space_group_crystal_system       triclinic
_cell_length_a                    14.542006
_cell_length_b                    16.171311
_cell_length_c                    6.929261
_cell_angle_alpha                 89.999415
_cell_angle_beta                  98.989067
_cell_angle_gamma                 90.000315
_cell_volume                      1609.4945601

loop_
_atom_site_label
_atom_site_type_symbol
_atom_type_description
_atom_site_fract_x
_atom_site_fract_y
_atom_site_fract_z
_atom_type_partial_charge
O1    O     O_R   0.584990 0.413650 0.534420 -0.550080
O2    O     O_R   0.584990 0.586350 0.534420 -0.550055
O3    O     O_R   0.596190 0.585230 0.208380 -0.540187
O4    O     O_R   0.596190 0.414770 0.208380 -0.540153
O5    O     O_R   0.415010 0.586420 0.976930 -0.539807
O6    O     O_R   0.415010 0.413580 0.976930 -0.539781
C1    C     C_R   0.618551 0.614409 0.384273 0.722833
C2    C     C_R   0.618552 0.385594 0.384276 0.722802
O7    O     O_3   0.440560 0.500000 0.319140 -0.364927
V1    V     V_3+5 0.511030 0.500000 0.068070 1.419702
O8    O     O_R   0.403810 0.414840 0.643540 -0.537600
O9    O     O_R   0.403810 0.585160 0.643540 -0.537575
C3    C     C_R   0.381310 0.386164 0.805408 0.754009
C4    C     C_R   0.381310 0.613836 0.805407 0.753981
V2    V     V_3+5 0.488970 0.500000 0.560620 1.425605
O10   O     O_3   0.559440 0.500000 0.859420 -0.385812
H1    H     H_    0.186699 0.804969 0.807809 0.105194
H2    H     H_    0.186699 0.195033 0.807808 0.105209
H3    H     H_    0.321412 0.693456 0.100055 0.199377
H4    H     H_    0.321413 0.306543 0.100056 0.199371
C5    C     C_2   0.311907 0.681401 0.794810 -0.354475
C6    C     C_2   0.311907 0.318600 0.794811 -0.354521
C7    C     C_2   0.288629 0.715698 0.957921 -0.073201
C8    C     C_2   0.288629 0.284302 0.957922 -0.073180
C9    C     C_2   0.196439 0.817901 0.115020 0.181451
C10   C     C_2   0.196440 0.182097 0.115020 0.181510
C11   C     C_2   0.219374 0.783420 0.950766 -0.122898
C12   C     C_2   0.219374 0.216580 0.950765 -0.122879
H5    H     H_    0.279847 0.703528 0.652124 0.169068
H6    H     H_    0.279847 0.296473 0.652125 0.169074
C13   C     C_R   0.681453 0.745679 0.553443 0.102086
C14   C     C_R   0.681465 0.254321 0.553422 0.101813
C15   C     C_R   0.686181 0.684098 0.413272 -0.215502
C16   C     C_R   0.686197 0.315917 0.413290 -0.215481
C17   C     C_R   0.755848 0.692789 0.294204 -0.148675
C18   C     C_R   0.755891 0.307264 0.294283 -0.148546
H7    H     H_    0.761207 0.647222 0.181958 0.136968
H8    H     H_    0.761256 0.352851 0.182077 0.136982
C19   C     C_R   0.825195 0.754786 0.330196 0.333995
C20   C     C_R   0.825251 0.245278 0.330264 0.334108
C21   C     C_R   0.821870 0.814661 0.480993 -0.198545
C22   C     C_R   0.821906 0.185368 0.480999 -0.198577
C23   C     C_R   0.746742 0.809279 0.585049 0.005276
C24   C     C_R   0.746765 0.190730 0.585024 0.005440
C25   C     C_3   0.746285 0.808682 0.800300 -0.338479
C26   C     C_3   0.746286 0.191305 0.800276 -0.338484
C27   C     C_3   0.675206 0.739053 0.765957 0.194570
C28   C     C_3   0.675192 0.260921 0.765932 0.194571
H9    H     H_    0.718445 0.867282 0.852171 0.199587
H10   H     H_    0.718452 0.132693 0.852111 0.199562
H11   H     H_    0.814266 0.788750 0.882703 0.180594
H12   H     H_    0.814255 0.211246 0.882730 0.180460
H13   H     H_    0.699945 0.678964 0.833572 0.082925
H14   H     H_    0.699906 0.321009 0.833593 0.083056
O11   O     O_R   0.921430 0.915960 0.371040 -0.529307
O12   O     O_R   0.921430 0.084040 0.371040 -0.529493
O13   O     O_R   0.910450 0.087500 0.697310 -0.538721
O14   O     O_R   0.910450 0.912500 0.697310 -0.538744
O15   O     O_R   0.091710 0.087460 0.928430 -0.549246
O16   O     O_R   0.091710 0.912540 0.928430 -0.549246
C29   C     C_R   0.890182 0.116045 0.519957 0.705905
C30   C     C_R   0.890162 0.883969 0.519952 0.706089
O17   O     O_3   0.065970 0.000000 0.586140 -0.378391
V3    V     V_3+5 0.995640 0.000000 0.837400 1.442447
O18   O     O_R   0.103020 0.915700 0.261710 -0.546493
O19   O     O_R   0.103020 0.084300 0.261710 -0.546534
C31   C     C_R   0.125797 0.885875 0.101049 0.653746
C32   C     C_R   0.125797 0.114124 0.101049 0.653603
V4    V     V_3+5 0.017940 0.000000 0.344880 1.426115
O20   O     O_3   0.947330 0.000000 0.046180 -0.356038
O21   O     O_3   0.239392 0.788682 0.294612 -0.652861
H15   H     H_    0.216588 0.820101 0.400172 0.290615
O22   O     O_3   0.239394 0.211315 0.294611 -0.652861
H16   H     H_    0.216590 0.179896 0.400172 0.290624
O23   O     O_3   0.897876 0.750202 0.224299 -0.657614
H17   H     H_    0.954201 0.774432 0.302329 0.283168
O24   O     O_3   0.897952 0.249935 0.224424 -0.657627
H18   H     H_    0.954212 0.225374 0.302023 0.283259
O25   O     O_3   0.587852 0.764051 0.805691 -0.617719
H19   H     H_    0.547346 0.714526 0.784541 0.295644
O26   O     O_3   0.587837 0.235900 0.805619 -0.617718
H20   H     H_    0.547263 0.285374 0.784067 0.295638

loop_
_geom_bond_atom_site_label_1
_geom_bond_atom_site_label_2
_ccdc_geom_bond_type
O14   C30   A    
O19   C32   A    
O1    C2    A    
C1    C15   S    
O22   H16   S    
C17   C19   A    
O2    C1    A    
C9    C31   S    
C27   O25   S    
O4    C2    A    
O26   H20   S    
C19   C21   A    
O24   H18   S    
C28   H14   S    
O15   V3    S    
C13   C23   A    
C4    C5    S    
C17   H7    S    
O3    C1    A    
O19   V4    S    
C25   H11   S    
V2    O10   S    
O11   C30   A    
C26   H12   S    
C10   O22   S    
C28   O26   S    
O8    V2    S    
H4    C8    S    
O16   C31   A    
O18   C31   A    
C13   C15   A    
C9    O21   S    
V3    O20   S    
O7    V1    S    
C27   H13   S    
C20   C22   A    
C13   C27   S    
C21   C23   A    
C22   C24   A    
C21   C30   S    
C24   C26   S    
C7    C11   S    
C25   C27   S    
O14   V3    S    
C26   C28   S    
H1    C11   S    
O17   V4    S    
C18   C20   A    
H2    C12   S    
C5    H5    S    
O25   H19   S    
C14   C16   A    
H3    C7    S    
O23   H17   S    
O15   C32   A    
O9    V2    S    
C25   H9    S    
C14   C24   A    
C2    C16   S    
O2    V2    S    
C23   C25   S    
C22   C29   S    
O5    C4    A    
O11   V4    S    
O1    V2    S    
O9    C4    A    
C19   O23   S    
C5    C7    D    
C6    C8    D    
O4    V1    S    
O13   V3    S    
C6    H6    S    
C20   O24   S    
C8    C12   S    
O6    V1    S    
O13   C29   A    
C9    C11   D    
C26   H10   S    
C10   C12   D    
O16   V3    S    
C10   C32   S    
C18   H8    S    
O7    V2    S    
O5    V1    S    
O3    V1    S    
V1    O10   S    
O6    C3    A    
O8    C3    A    
C14   C28   S    
O18   V4    S    
C15   C17   A    
C3    C6    S    
C16   C18   A    
V4    O20   S    
O17   V3    S    
O21   H15   S    
O12   V4    S    
O12   C29   A    
