data_mof_unit_38751.cif
_audit_creation_date              2012-12-11T16:45:24-0500
_audit_creation_method            fapswitch 2.2
_symmetry_space_group_name_H-M    P1
_symmetry_Int_Tables_number       1
_space_group_crystal_system       triclinic
_cell_length_a                    20.075759
_cell_length_b                    17.12441
_cell_length_c                    15.398158
_cell_angle_alpha                 89.999811
_cell_angle_beta                  52.147445
_cell_angle_gamma                 90.000096
_cell_volume                      4179.83722526

loop_
_atom_site_label
_atom_site_type_symbol
_atom_type_description
_atom_site_fract_x
_atom_site_fract_y
_atom_site_fract_z
_atom_type_partial_charge
C1    C     C_R   0.881261 0.695593 0.987117 0.441465
C2    C     C_R   0.195613 0.333780 0.003414 -0.421671
C3    C     C_R   0.304386 0.833780 0.996587 -0.421672
C4    C     C_R   0.695613 0.833780 0.003414 -0.421673
C5    C     C_R   0.808560 0.637735 0.325584 0.063985
C6    C     C_R   0.191440 0.637737 0.674416 0.063981
C7    C     C_R   0.308560 0.137735 0.325584 0.063985
C8    C     C_R   0.691440 0.137736 0.674417 0.063982
C9    C     C_R   0.708136 0.637272 0.529957 -0.125518
C10   C     C_R   0.291882 0.637265 0.470042 -0.125504
C11   C     C_R   0.208138 0.137272 0.529956 -0.125521
C12   C     C_R   0.118739 0.695593 0.012884 0.441468
C13   C     C_R   0.791874 0.137268 0.470043 -0.125509
C14   C     C_R   0.730137 0.663384 0.429041 -0.006359
C15   C     C_R   0.269868 0.663385 0.570961 -0.006355
C16   C     C_R   0.230137 0.163383 0.429042 -0.006361
C17   C     C_R   0.769866 0.163384 0.570960 -0.006359
C18   C     C_R   0.181668 0.223756 0.430856 -0.277847
C19   C     C_R   0.818330 0.223760 0.569148 -0.277848
C20   C     C_R   0.681669 0.723757 0.430855 -0.277851
C21   C     C_R   0.318328 0.723764 0.569152 -0.277844
C22   C     C_R   0.129134 0.269385 0.525783 0.832070
C23   C     C_R   0.381261 0.195593 0.987117 0.441465
C24   C     C_R   0.870867 0.269388 0.474220 0.832060
C25   C     C_R   0.629134 0.769386 0.525782 0.832065
C26   C     C_R   0.370865 0.769392 0.474223 0.832055
C27   C     C_R   0.125647 0.254241 0.618627 -0.067987
C28   C     C_R   0.874359 0.254240 0.381372 -0.067980
C29   C     C_R   0.625646 0.754241 0.618627 -0.067985
C30   C     C_R   0.374362 0.754240 0.381371 -0.067979
C31   C     C_R   0.656612 0.682207 0.623118 -0.007826
C32   C     C_R   0.343409 0.682199 0.376877 -0.007869
C33   C     C_R   0.156615 0.182208 0.623118 -0.007821
C34   C     C_R   0.618739 0.195593 0.012883 0.441467
C35   C     C_R   0.843399 0.182203 0.376880 -0.007854
C36   C     C_3   0.703565 0.661114 0.666744 -0.351701
C37   C     C_3   0.296475 0.661082 0.333232 -0.351603
C38   C     C_3   0.203570 0.161117 0.666741 -0.351709
C39   C     C_3   0.796457 0.161097 0.333244 -0.351646
C40   C     C_R   0.906866 0.301304 0.204590 0.779660
C41   C     C_R   0.093136 0.301304 0.795410 0.779657
C42   C     C_R   0.406867 0.801304 0.204590 0.779659
C43   C     C_R   0.593135 0.801304 0.795410 0.779659
C44   C     C_3   0.760055 0.611849 0.565271 1.004564
C45   C     C_R   0.893127 0.315177 0.302351 -0.106584
C46   C     C_3   0.239981 0.611821 0.434709 1.004516
C47   C     C_3   0.260059 0.111852 0.565269 1.004569
C48   C     C_3   0.739964 0.111834 0.434719 1.004542
C49   C     C_2   0.689046 0.242792 0.087338 0.340014
C50   C     C_2   0.310953 0.242793 0.912662 0.340012
C51   C     C_2   0.189046 0.742793 0.087339 0.340015
C52   C     C_2   0.810953 0.742793 0.912662 0.340013
C53   C     C_2   0.248811 0.782860 0.996210 0.756085
C54   C     C_2   0.751188 0.782860 0.003792 0.756091
C55   C     C_2   0.748811 0.282860 0.996209 0.756086
C56   C     C_R   0.106875 0.315178 0.697649 -0.106580
C57   C     C_2   0.251189 0.282861 0.003791 0.756090
C58   C     C_R   0.839163 0.401552 0.936218 0.827012
C59   C     C_R   0.160837 0.401552 0.063781 0.827009
C60   C     C_R   0.339163 0.901552 0.936219 0.827013
C61   C     C_R   0.660837 0.901552 0.063781 0.827010
C62   C     C_R   0.858711 0.577849 0.315245 0.032215
C63   C     C_R   0.141289 0.577851 0.684755 0.032218
C64   C     C_R   0.358711 0.077849 0.315245 0.032216
C65   C     C_R   0.641289 0.077850 0.684755 0.032218
C66   C     C_R   0.852004 0.310168 0.027799 0.426594
C67   C     C_R   0.393128 0.815177 0.302351 -0.106582
C68   C     C_R   0.147996 0.310168 0.972202 0.426596
C69   C     C_R   0.352004 0.810168 0.027800 0.426595
C70   C     C_R   0.647996 0.810168 0.972202 0.426600
C71   C     C_R   0.849962 0.670886 0.221798 -0.030758
C72   C     C_R   0.150038 0.670886 0.778203 -0.030774
C73   C     C_R   0.349962 0.170885 0.221798 -0.030755
C74   C     C_R   0.650038 0.170885 0.778203 -0.030767
C75   C     C_R   0.906790 0.394026 0.304411 -0.154659
C76   C     C_R   0.093211 0.394027 0.695588 -0.154641
C77   C     C_R   0.406790 0.894026 0.304411 -0.154663
C78   C     C_R   0.606874 0.815178 0.697649 -0.106582
C79   C     C_R   0.593210 0.894027 0.695589 -0.154649
C80   C     C_R   0.871213 0.606202 0.891269 0.527015
C81   C     C_R   0.128786 0.606201 0.108732 0.527018
C82   C     C_R   0.371213 0.106202 0.891269 0.527018
C83   C     C_R   0.628786 0.106201 0.108732 0.527019
C84   C     C_R   0.854406 0.683272 0.926153 -0.235273
C85   C     C_R   0.145593 0.683272 0.073848 -0.235275
C86   C     C_R   0.354406 0.183272 0.926153 -0.235273
C87   C     C_R   0.645593 0.183272 0.073848 -0.235271
C88   C     C_R   0.804387 0.333780 0.996586 -0.421672
Cl1   Cl    Cl    0.914391 0.786777 0.001188 -0.450182
Cl2   Cl    Cl    0.341172 0.263646 0.780267 -0.479172
Cl3   Cl    Cl    0.158826 0.763647 0.219734 -0.479147
Cl4   Cl    Cl    0.841173 0.763647 0.780267 -0.479174
Cl5   Cl    Cl    0.862967 0.212827 0.053463 -0.421378
Cl6   Cl    Cl    0.137031 0.212826 0.946541 -0.421375
Cl7   Cl    Cl    0.362965 0.712827 0.053467 -0.421384
Cl8   Cl    Cl    0.637032 0.712827 0.946539 -0.421379
Cl9   Cl    Cl    0.890099 0.575147 0.769275 -0.317548
Cl10  Cl    Cl    0.109899 0.575146 0.230726 -0.317540
Cl11  Cl    Cl    0.390099 0.075147 0.769275 -0.317544
Cl12  Cl    Cl    0.085608 0.786777 0.998813 -0.450180
Cl13  Cl    Cl    0.609900 0.075146 0.230726 -0.317539
Cl14  Cl    Cl    0.414391 0.286777 0.001187 -0.450180
Cl15  Cl    Cl    0.585609 0.286777 0.998812 -0.450178
Cl16  Cl    Cl    0.751641 0.509823 0.595515 -0.491315
Cl17  Cl    Cl    0.248414 0.509791 0.404479 -0.491373
Cl18  Cl    Cl    0.251647 0.009827 0.595514 -0.491306
Cl19  Cl    Cl    0.748389 0.009806 0.404484 -0.491351
Cl20  Cl    Cl    0.658827 0.263647 0.219734 -0.479153
F1    F     F_    0.090556 0.332429 0.521197 -0.606283
F2    F     F_    0.731046 0.767042 0.104242 -0.647912
F3    F     F_    0.768953 0.267042 0.895758 -0.647911
F4    F     F_    0.231047 0.267043 0.104242 -0.647910
F5    F     F_    0.940634 0.233397 0.149182 -0.605890
F6    F     F_    0.059370 0.233396 0.850816 -0.605880
F7    F     F_    0.440637 0.733398 0.149180 -0.605896
F8    F     F_    0.559369 0.733396 0.850816 -0.605882
F9    F     F_    0.820758 0.433794 0.873240 -0.568069
F10   F     F_    0.179243 0.433794 0.126758 -0.568072
F11   F     F_    0.320756 0.933795 0.873243 -0.568070
F12   F     F_    0.909439 0.332436 0.478808 -0.606282
F13   F     F_    0.679243 0.933794 0.126758 -0.568073
F14   F     F_    0.590558 0.832431 0.521196 -0.606284
F15   F     F_    0.409434 0.832442 0.478813 -0.606281
F16   F     F_    0.842211 0.639518 0.498920 -0.616345
F17   F     F_    0.157821 0.639481 0.501038 -0.616345
F18   F     F_    0.342215 0.139522 0.498916 -0.616343
F19   F     F_    0.657807 0.139498 0.501058 -0.616347
F20   F     F_    0.268953 0.767043 0.895759 -0.647912
H1    H     H_    0.736975 0.711521 0.669916 0.215558
H2    H     H_    0.155143 0.536858 0.623121 0.149105
H3    H     H_    0.344857 0.036856 0.376879 0.149083
H4    H     H_    0.655143 0.036857 0.623121 0.149096
H5    H     H_    0.827679 0.718335 0.199942 0.188957
H6    H     H_    0.172321 0.718334 0.800060 0.188953
H7    H     H_    0.327679 0.218335 0.199942 0.188957
H8    H     H_    0.672321 0.218334 0.800059 0.188955
H9    H     H_    0.914923 0.423110 0.359486 0.255156
H10   H     H_    0.085078 0.423110 0.640512 0.255153
H11   H     H_    0.414924 0.923110 0.359485 0.255158
H12   H     H_    0.263062 0.711478 0.330041 0.215571
H13   H     H_    0.585078 0.923110 0.640512 0.255154
H14   H     H_    0.191207 0.241514 0.356505 0.214756
H15   H     H_    0.808787 0.241522 0.643501 0.214760
H16   H     H_    0.691209 0.741516 0.356504 0.214757
H17   H     H_    0.308781 0.741529 0.643505 0.214762
H18   H     H_    0.236979 0.211525 0.669911 0.215557
H19   H     H_    0.763046 0.211497 0.330061 0.215563
H20   H     H_    0.664382 0.626376 0.743814 0.277564
H21   H     H_    0.335672 0.626340 0.256168 0.277550
H22   H     H_    0.164389 0.126380 0.743811 0.277565
H23   H     H_    0.835647 0.126357 0.256178 0.277557
H24   H     H_    0.844857 0.536856 0.376879 0.149085
N1    N     N_R   0.908660 0.628630 0.995840 -0.139852
N2    N     N_R   0.096530 0.421430 0.063580 -0.168722
N3    N     N_R   0.403470 0.921430 0.936420 -0.168722
N4    N     N_R   0.596530 0.921430 0.063580 -0.168722
N5    N     N_R   0.927500 0.575670 0.211370 -0.066689
N6    N     N_R   0.072500 0.575670 0.788630 -0.066694
N7    N     N_R   0.427500 0.075670 0.211370 -0.066689
N8    N     N_R   0.572500 0.075670 0.788630 -0.066692
N9    N     N_R   0.908660 0.365680 0.995820 -0.135257
N10   N     N_R   0.091340 0.365680 0.004180 -0.135257
N11   N     N_R   0.408660 0.865680 0.995820 -0.135257
N12   N     N_R   0.091340 0.628630 0.004160 -0.139852
N13   N     N_R   0.591340 0.865680 0.004180 -0.135256
N14   N     N_R   0.922310 0.631420 0.151980 -0.055952
N15   N     N_R   0.077690 0.631420 0.848020 -0.055952
N16   N     N_R   0.422310 0.131420 0.151980 -0.055952
N17   N     N_R   0.577690 0.131420 0.848020 -0.055952
N18   N     N_R   0.927500 0.426330 0.211360 -0.119134
N19   N     N_R   0.072500 0.426330 0.788640 -0.119136
N20   N     N_R   0.427500 0.926330 0.211360 -0.119134
N21   N     N_R   0.572500 0.926330 0.788640 -0.119136
N22   N     N_R   0.903470 0.570760 0.936440 -0.153452
N23   N     N_R   0.408660 0.128630 0.995840 -0.139853
N24   N     N_R   0.096530 0.570760 0.063560 -0.153452
N25   N     N_R   0.403470 0.070760 0.936440 -0.153452
N26   N     N_R   0.596530 0.070760 0.063560 -0.153453
N27   N     N_R   0.591340 0.128630 0.004160 -0.139853
N28   N     N_R   0.922310 0.368460 0.151950 -0.128374
N29   N     N_R   0.077690 0.368460 0.848050 -0.128376
N30   N     N_R   0.422310 0.868460 0.151950 -0.128372
N31   N     N_R   0.577690 0.868460 0.848050 -0.128376
N32   N     N_R   0.903470 0.421430 0.936420 -0.168722
Ni1   Ni    Ni4+2 0.000000 0.630300 0.000000 0.316578
Ni2   Ni    Ni4+2 0.500000 0.130300 0.000000 0.316579
Ni3   Ni    Ni4+2 0.000000 0.369700 0.000000 0.348500
Ni4   Ni    Ni4+2 0.500000 0.869700 0.000000 0.348500
Ni5   Ni    Ni4+2 0.988090 0.497570 0.863760 0.293400
Ni6   Ni    Ni4+2 0.011910 0.497570 0.136240 0.293401
Ni7   Ni    Ni4+2 0.488090 0.997570 0.863760 0.293401
Ni8   Ni    Ni4+2 0.511910 0.997570 0.136240 0.293401

loop_
_geom_bond_atom_site_label_1
_geom_bond_atom_site_label_2
_ccdc_geom_bond_type
C83   C87   A    
C21   C26   A    
N25   Ni7   S    
C80   Cl9   S    
N14   Ni1   S    
C82   Cl11  S    
C49   C87   S    
C46   F17   S    
C11   C47   S    
C67   C77   A    
C41   F6    S    
C80   C84   A    
C51   C85   S    
C4    C70   A    
N26   N27   A    
N29   Ni3   S    
C2    C57   S    
C7    C73   A    
N27   Ni2   S    
N20   Ni8   S    
C43   C78   A    
C6    C72   A    
C23   C86   A    
C54   F2    S    
C62   H24   S    
C12   C85   A    
C56   C76   A    
C58   N32   A    
C3    C69   A    
N17   Ni2   S    
C13   C35   A    
C2    C68   A    
C10   C15   A    
C65   N8    A    
C66   C88   A    
N10   Ni3   S    
C57   F4    S    
C23   N23   A    
C20   C25   A    
N15   Ni1   S    
C46   Cl17  S    
C39   H23   S    
N7    N16   A    
N19   Ni5   S    
C60   F11   S    
C61   F13   S    
C63   H2    S    
C55   C88   S    
C52   C84   S    
C79   N21   A    
N5    Ni6   S    
C38   H18   S    
C74   N17   A    
C51   Cl3   S    
C6    C15   S    
C40   N28   A    
C72   H6    S    
C36   H20   S    
C29   C78   S    
C73   H7    S    
C28   C35   A    
C52   C54   D    
C71   N14   A    
C74   H8    S    
C10   C46   S    
C1    Cl1   S    
N8    N17   A    
C34   Cl15  S    
N9    Ni3   S    
C25   F14   S    
C30   C67   S    
C55   F3    S    
C3    C60   A    
C47   Cl18  S    
N2    Ni6   S    
C8    C65   A    
C41   N29   A    
C34   N27   A    
C73   N16   A    
C38   H22   S    
C59   N2    A    
C50   Cl2   S    
N6    N15   A    
C49   Cl20  S    
C25   C29   A    
C40   C45   A    
C28   C45   S    
C24   F12   S    
N13   Ni4   S    
N16   Ni2   S    
C81   N24   A    
C69   N11   A    
C11   C33   A    
N23   N25   A    
N12   Ni1   S    
C75   H9    S    
C70   N13   A    
C9    C31   A    
C78   C79   A    
N3    N11   A    
C82   C86   A    
N1    N22   A    
C37   H12   S    
C58   F9    S    
C27   C33   A    
C66   N9    A    
N18   N28   A    
N11   Ni4   S    
C1    C84   A    
C21   H17   S    
C6    C63   A    
C76   N19   A    
C70   Cl8   S    
C9    C14   A    
C41   C56   A    
C82   N25   A    
C53   F20   S    
C14   C20   A    
C43   F8    S    
C12   N12   A    
N26   Ni8   S    
C11   C16   A    
N24   Ni6   S    
C40   F5    S    
C44   Cl16  S    
C64   H3    S    
C18   H14   S    
C22   F1    S    
C75   N18   A    
C8    C74   A    
C5    C14   S    
C62   N5    A    
N30   Ni4   S    
C32   C37   S    
C27   C56   S    
C1    N1    A    
N21   Ni7   S    
C38   C47   S    
N3    Ni7   S    
C66   Cl5   S    
N4    Ni8   S    
N28   Ni3   S    
C16   C18   A    
C7    C16   S    
C2    C59   A    
C26   C30   A    
C59   F10   S    
C76   H10   S    
C22   C27   A    
C42   C67   A    
C72   N15   A    
N6    Ni5   S    
C26   F15   S    
C61   N4    A    
N2    N10   A    
C65   H4    S    
C47   F18   S    
N20   N30   A    
C9    C44   S    
C19   H15   S    
C83   Cl13  S    
C83   N26   A    
C4    C54   S    
C18   C22   A    
C50   C57   D    
N7    Ni8   S    
N19   N29   A    
C24   C28   A    
N8    Ni7   S    
C37   H21   S    
C69   Cl7   S    
C58   C88   A    
N5    N14   A    
C71   H5    S    
C13   C48   S    
C20   H16   S    
C68   N10   A    
N18   Ni6   S    
C8    C17   S    
C13   C17   A    
C45   C75   A    
C77   H11   S    
N9    N32   A    
C19   C24   A    
C60   N3    A    
C80   N22   A    
C29   C31   A    
C49   C55   D    
N31   Ni4   S    
N23   Ni2   S    
C30   C32   A    
C3    C53   S    
C79   H13   S    
N1    Ni1   S    
N4    N13   A    
C42   N30   A    
C77   N20   A    
C35   C39   S    
C4    C61   A    
C64   N7    A    
C43   N31   A    
C48   Cl19  S    
C17   C19   A    
C44   F16   S    
C5    C62   A    
N12   N24   A    
C34   C87   A    
C68   Cl6   S    
C7    C64   A    
C12   Cl12  S    
C36   C44   S    
C50   C86   S    
N22   Ni5   S    
C23   Cl14  S    
C10   C32   A    
C42   F7    S    
C15   C21   A    
N21   N31   A    
C5    C71   A    
C81   Cl10  S    
C39   H19   S    
C31   C36   S    
C33   C38   S    
C63   N6    A    
C51   C53   D    
C37   C46   S    
C36   H1    S    
N32   Ni5   S    
C52   Cl4   S    
C81   C85   A    
C39   C48   S    
C48   F19   S    
