data_mof_unit_48722.cif
_audit_creation_date              2012-12-10T18:58:12-0500
_audit_creation_method            fapswitch 2.2
_symmetry_space_group_name_H-M    P1
_symmetry_Int_Tables_number       1
_space_group_crystal_system       triclinic
_cell_length_a                    11.049052
_cell_length_b                    10.901216
_cell_length_c                    9.555649
_cell_angle_alpha                 89.435642
_cell_angle_beta                  101.700965
_cell_angle_gamma                 89.312415
_cell_volume                      1126.87231163

loop_
_atom_site_label
_atom_site_type_symbol
_atom_type_description
_atom_site_fract_x
_atom_site_fract_y
_atom_site_fract_z
_atom_type_partial_charge
C1    C     C_R   0.503188 0.263048 0.501239 0.817597
C2    C     C_R   0.509420 0.131036 0.502037 -0.123810
C3    C     C_R   0.533991 0.067785 0.383445 -0.231556
C4    C     C_R   0.537279 0.939211 0.382280 0.157811
C5    C     C_R   0.507630 0.870781 0.498895 -0.160261
C6    C     C_R   0.484994 0.938233 0.615133 0.038318
C7    C     C_3   0.461337 0.932955 0.765395 -0.014144
C8    C     C_3   0.471201 0.074282 0.765233 -0.482198
C9    C     C_R   0.586809 0.563682 0.093022 0.320738
C10   C     C_R   0.409433 0.443918 0.053708 -0.070602
C11   C     C_R   0.409615 0.443595 0.905056 -0.102877
C12   C     C_R   0.263159 0.502679 0.442789 0.841464
C13   C     C_R   0.586259 0.564754 0.945531 0.265587
C14   C     C_3   0.722643 0.544787 0.970948 -0.499533
C15   C     C_3   0.722856 0.540967 0.129053 -0.505301
C16   C     C_R   0.502938 0.737564 0.499933 0.828573
C17   C     C_R   0.737007 0.500405 0.557233 0.857464
C18   C     C_2   0.128965 0.496284 0.412776 -0.380727
C19   C     C_2   0.059410 0.551224 0.495016 0.193546
C20   C     C_2   0.870403 0.515750 0.587399 -0.363778
C21   C     C_2   0.932078 0.509085 0.480877 -0.154722
C22   C     C_R   0.491474 0.061919 0.617660 0.075441
Cu1   Cu    Cu3+1 0.499990 0.499980 0.640670 0.926238
Cu2   Cu    Cu3+1 0.500010 0.500020 0.359330 0.958346
H1    H     H_    0.887821 0.471613 0.379195 0.152962
H2    H     H_    0.554714 0.108254 0.839052 0.199322
H3    H     H_    0.337684 0.395902 0.092887 0.143896
H4    H     H_    0.338001 0.395455 0.833218 0.145656
H5    H     H_    0.749528 0.455208 0.930725 0.217920
H6    H     H_    0.770875 0.625705 0.937890 0.201725
H7    H     H_    0.746197 0.448040 0.176323 0.200444
H8    H     H_    0.773686 0.618075 0.188402 0.225763
H9    H     H_    0.915626 0.543381 0.693835 0.152592
H10   H     H_    0.087451 0.432437 0.330648 0.122978
H11   H     H_    0.554307 0.117981 0.292729 0.188547
H12   H     H_    0.538471 0.887643 0.842293 0.193174
H13   H     H_    0.384637 0.126707 0.767341 0.187499
N1    N     N_R   0.500780 0.500930 0.148120 -0.189905
N2    N     N_R   0.500790 0.500890 0.852210 -0.199725
O1    O     O_R   0.500000 0.319640 0.618810 -0.576615
O2    O     O_R   0.500010 0.319680 0.381230 -0.591181
O3    O     O_R   0.320680 0.500000 0.575130 -0.595214
O4    O     O_R   0.320690 0.500040 0.337550 -0.579092
O5    O     O_R   0.499990 0.680320 0.618770 -0.592954
O6    O     O_R   0.500000 0.680360 0.381190 -0.545156
O7    O     O_R   0.679310 0.499960 0.662450 -0.588194
O8    O     O_R   0.679320 0.500000 0.424870 -0.574877
C23   C     C_3   0.104414 0.658425 0.591874 -0.348703
C24   C     C_3   0.021583 0.772261 0.551966 -0.831153
H14   H     H_    0.021400 0.801179 0.440109 0.258630
H15   H     H_    0.925249 0.754890 0.562989 0.264756
H16   H     H_    0.056657 0.848687 0.624115 0.231127
H17   H     H_    0.106958 0.631646 0.704725 0.191776
H18   H     H_    0.198602 0.685932 0.582826 0.209624
I1    I     I_    0.602754 0.866181 0.205809 -0.485587
C25   C     C_3   0.330354 0.891779 0.776590 -0.356146
C26   C     C_3   0.332195 0.770648 0.857822 -0.826073
H19   H     H_    0.358405 0.694758 0.793904 0.279689
H20   H     H_    0.397754 0.773737 0.962156 0.271467
H21   H     H_    0.238832 0.752709 0.878854 0.232752
H22   H     H_    0.286382 0.960794 0.836022 0.212906
H23   H     H_    0.270964 0.884305 0.668574 0.203758

loop_
_geom_bond_atom_site_label_1
_geom_bond_atom_site_label_2
_ccdc_geom_bond_type
C16   O6    A    
C2    C22   A    
C8    C22   S    
Cu1   Cu2   S    
C15   H7    S    
C6    C7    S    
C8    H2    S    
C7    H12   S    
C16   O5    A    
Cu2   N1    S    
C10   H3    S    
C3    H11   S    
C10   N1    A    
C24   H16   S    
C26   H21   S    
C2    C3    A    
C9    C15   S    
C15   H8    S    
Cu1   O7    S    
C13   C14   S    
C20   C21   D    
C11   N2    A    
Cu2   O2    S    
C18   H10   S    
C26   H19   S    
C5    C6    A    
Cu1   O3    S    
C11   H4    S    
C14   H6    S    
Cu1   N2    S    
Cu2   O6    S    
C7    C25   S    
C1    O2    A    
C23   C24   S    
C19   C21   S    
C18   C19   D    
C12   O4    A    
C4    I1    S    
C23   H17   S    
C25   H23   S    
C26   H20   S    
C13   N2    A    
C10   C11   A    
C20   H9    S    
C14   H5    S    
C12   O3    A    
Cu1   O1    S    
C6    C22   A    
C23   H18   S    
C7    C8    S    
C17   C20   S    
C17   O7    A    
C3    C4    A    
C1    C2    S    
C8    H13   S    
C12   C18   S    
C24   H14   S    
Cu2   O4    S    
C21   H1    S    
C25   H22   S    
C9    N1    A    
C5    C16   S    
C9    C13   A    
C19   C23   S    
C1    O1    A    
C14   C15   S    
Cu2   O8    S    
C25   C26   S    
Cu1   O5    S    
C17   O8    A    
C4    C5    A    
C24   H15   S    
