data_mof_unit_28149.cif
_audit_creation_date              2012-12-10T18:18:26-0500
_audit_creation_method            fapswitch 2.2
_symmetry_space_group_name_H-M    P1
_symmetry_Int_Tables_number       1
_space_group_crystal_system       triclinic
_cell_length_a                    13.998943
_cell_length_b                    15.014293
_cell_length_c                    15.461129
_cell_angle_alpha                 89.908993
_cell_angle_beta                  68.008345
_cell_angle_gamma                 90.024791
_cell_volume                      3013.22757115

loop_
_atom_site_label
_atom_site_type_symbol
_atom_type_description
_atom_site_fract_x
_atom_site_fract_y
_atom_site_fract_z
_atom_type_partial_charge
C1    C     C_R   0.500045 0.673563 0.499876 0.901584
C2    C     C_R   0.500063 0.769425 0.499855 -0.076985
C3    C     C_R   0.413739 0.184745 0.498181 -0.263635
C4    C     C_R   0.586014 0.815221 0.502379 -0.263068
C5    C     C_R   0.413108 0.092615 0.498128 0.120132
C6    C     C_R   0.586538 0.907347 0.502668 0.119601
C7    C     C_R   0.499759 0.046316 0.500542 0.060521
C8    C     C_R   0.499860 0.953645 0.500312 0.060616
C9    C     C_R   0.586338 0.092673 0.503119 0.120068
C10   C     C_R   0.413303 0.907289 0.497681 0.120229
C11   C     C_R   0.327457 0.046189 0.495581 -0.221201
C12   C     C_R   0.499927 0.326430 0.500187 0.901227
C13   C     C_R   0.672147 0.953768 0.505306 -0.220552
C14   C     C_R   0.327559 0.953649 0.495347 -0.222522
C15   C     C_R   0.672041 0.046307 0.505545 -0.221217
C16   C     C_R   0.435953 0.501547 0.676255 0.875459
C17   C     C_R   0.563963 0.501004 0.323605 0.874297
C18   C     C_R   0.183007 0.433743 0.545502 -0.075384
C19   C     C_R   0.816271 0.567350 0.456240 -0.093490
C20   C     C_R   0.220901 0.565970 0.454078 -0.073438
C21   C     C_R   0.779426 0.433650 0.545222 -0.068335
C22   C     C_R   0.120578 0.567798 0.453260 0.009747
C23   C     C_R   0.368955 0.546644 0.108940 -0.282712
C24   C     C_R   0.879511 0.432242 0.546602 0.007795
C25   C     C_R   0.050711 0.499922 0.499773 0.070518
C26   C     C_R   0.949197 0.500382 0.500507 0.080954
C27   C     C_R   0.082048 0.431955 0.546220 0.006373
C28   C     C_R   0.917404 0.568989 0.455185 0.023602
C29   C     C_R   0.088453 0.635763 0.407694 -0.198310
C30   C     C_R   0.911432 0.364588 0.592658 -0.221647
C31   C     C_R   0.987574 0.636585 0.409024 -0.180273
C32   C     C_R   0.011782 0.364547 0.592636 -0.214698
C33   C     C_R   0.395813 0.512873 0.777285 -0.062344
C34   C     C_R   0.607426 0.593550 0.904225 -0.278623
C35   C     C_R   0.602044 0.515616 0.222885 -0.062099
C36   C     C_R   0.256982 0.513414 0.927946 -0.204143
C37   C     C_R   0.731379 0.566364 0.078038 -0.204992
C38   C     C_R   0.291226 0.503538 0.831617 -0.200742
C39   C     C_R   0.703664 0.540584 0.171014 -0.203329
C40   C     C_R   0.464945 0.535412 0.819036 -0.251699
C41   C     C_R   0.529731 0.514934 0.181024 -0.248226
C42   C     C_R   0.432501 0.548475 0.915167 0.089266
C43   C     C_R   0.552729 0.548361 0.091351 0.088032
C44   C     C_R   0.326730 0.534881 0.971326 0.116724
C45   C     C_R   0.294611 0.538924 0.069236 -0.024603
C46   C     C_R   0.656435 0.571842 0.037245 0.116283
C47   C     C_R   0.505225 0.566071 0.956647 0.050600
C48   C     C_R   0.475274 0.553739 0.053302 0.051546
C49   C     C_R   0.185032 0.527917 0.131878 0.119848
C50   C     C_R   0.154955 0.455084 0.193430 -0.149324
C51   C     C_R   0.050733 0.440140 0.246519 -0.114794
C52   C     C_R   0.976035 0.497740 0.238628 -0.100391
C53   C     C_R   0.005559 0.572258 0.180344 -0.156787
C54   C     C_R   0.109744 0.587767 0.127545 -0.166324
C55   C     C_R   0.787509 0.627676 0.883604 0.117472
C56   C     C_R   0.682355 0.598047 0.943603 -0.023171
C57   C     C_R   0.844210 0.580114 0.802308 -0.153091
C58   C     C_R   0.942987 0.608439 0.745354 -0.128447
C59   C     C_R   0.985520 0.684599 0.768583 -0.111097
C60   C     C_R   0.929183 0.732794 0.848769 -0.140293
C61   C     C_R   0.830351 0.704738 0.906002 -0.169587
C62   C     C_R   0.585689 0.184802 0.503115 -0.262169
C63   C     C_R   0.414056 0.815165 0.497451 -0.263053
C64   C     C_R   0.499774 0.230551 0.500515 -0.078450
H1    H     H_    0.208404 0.382450 0.581290 0.131410
H2    H     H_    0.545581 0.538079 0.775489 0.160681
H3    H     H_    0.761034 0.541206 0.202401 0.147229
H4    H     H_    0.236463 0.486308 0.800044 0.157279
H5    H     H_    0.176265 0.501185 0.967765 0.155912
H6    H     H_    0.811352 0.582555 0.039102 0.151343
H7    H     H_    0.341342 0.549454 0.184180 0.153240
H8    H     H_    0.630089 0.615386 0.832709 0.154976
H9    H     H_    0.652102 0.220687 0.505109 0.157067
H10   H     H_    0.347678 0.779280 0.495376 0.156396
H11   H     H_    0.347315 0.220589 0.496222 0.158666
H12   H     H_    0.790588 0.619118 0.421192 0.130777
H13   H     H_    0.652478 0.779377 0.504250 0.158879
H14   H     H_    0.260676 0.081399 0.493730 0.144128
H15   H     H_    0.738931 0.918556 0.507150 0.144902
H16   H     H_    0.260848 0.918389 0.493336 0.143311
H17   H     H_    0.738752 0.081564 0.507557 0.143825
H18   H     H_    0.211887 0.408654 0.198386 0.129279
H19   H     H_    0.027745 0.383304 0.292932 0.131079
H20   H     H_    0.895303 0.485006 0.278293 0.131412
H21   H     H_    0.947644 0.617503 0.175393 0.123372
H22   H     H_    0.131626 0.644908 0.081396 0.131967
H23   H     H_    0.275927 0.617318 0.418385 0.133941
H24   H     H_    0.812225 0.520914 0.783450 0.137638
H25   H     H_    0.986640 0.571340 0.683307 0.145932
H26   H     H_    0.062028 0.706339 0.724352 0.128952
H27   H     H_    0.962041 0.791973 0.866519 0.131135
H28   H     H_    0.787220 0.742874 0.967708 0.132774
H29   H     H_    0.724721 0.381857 0.580229 0.134538
H30   H     H_    0.141206 0.688397 0.371285 0.137115
H31   H     H_    0.858804 0.311747 0.628721 0.141623
H32   H     H_    0.964696 0.689645 0.373307 0.135948
H33   H     H_    0.034440 0.311780 0.628845 0.141490
H34   H     H_    0.454743 0.487183 0.219894 0.157940
N1    N     N_R   0.249980 0.499930 0.499960 -0.098694
N2    N     N_R   0.750020 0.500070 0.500040 -0.099811
O1    O     O_R   0.419720 0.632140 0.499980 -0.628061
O2    O     O_R   0.580280 0.367860 0.500020 -0.627637
O3    O     O_R   0.580270 0.632160 0.499970 -0.627767
O4    O     O_R   0.419730 0.367840 0.500030 -0.627335
O5    O     O_R   0.373870 0.499980 0.632250 -0.614578
O6    O     O_R   0.626130 0.500020 0.367750 -0.617733
O7    O     O_R   0.534420 0.500000 0.632240 -0.617198
O8    O     O_R   0.465580 0.500000 0.367760 -0.616234
Zn1   Zn    Zn3+2 0.392800 0.499980 0.500010 0.937547
Zn2   Zn    Zn3+2 0.607200 0.500020 0.499990 0.934089

loop_
_geom_bond_atom_site_label_1
_geom_bond_atom_site_label_2
_ccdc_geom_bond_type
C55   C56   S    
C13   H15   S    
N2    Zn2   S    
C23   C45   A    
C22   C29   A    
C51   H19   S    
C2    C4    A    
C10   C63   A    
C7    C8    A    
C15   H17   S    
C3    C64   A    
C32   H33   S    
C18   H1    S    
C34   C56   A    
O3    Zn2   S    
C19   H12   S    
C24   C26   A    
C12   O4    A    
C29   H30   S    
C12   C64   S    
C11   C14   A    
O1    Zn1   S    
C49   C54   A    
N1    Zn1   S    
C20   H23   S    
O8    Zn1   S    
C1    C2    S    
C52   H20   S    
C62   C64   A    
C16   O7    A    
C22   C25   A    
C62   H9    S    
C14   H16   S    
C3    H11   S    
C43   C48   A    
C1    O3    A    
C61   H28   S    
C40   C42   A    
C59   C60   A    
C40   H2    S    
C37   H6    S    
C41   C43   A    
C42   C44   A    
C43   C46   A    
C33   C40   A    
C51   C52   A    
C23   H7    S    
C4    C6    A    
C10   C14   A    
C17   O8    A    
C54   H22   S    
C21   N2    A    
C6    C8    A    
C25   C26   A    
C53   C54   A    
C9    C62   A    
C60   C61   A    
C59   H26   S    
C35   C39   A    
C12   O2    A    
C30   H31   S    
C11   H14   S    
C16   C33   S    
C47   C48   A    
C45   C49   S    
C50   C51   A    
C52   C53   A    
C19   C28   A    
C16   O5    A    
C8    C10   A    
C20   C22   A    
C13   C15   A    
O7    Zn2   S    
C36   C44   A    
C18   N1    A    
C1    O1    A    
C44   C45   A    
C50   H18   S    
C5    C7    A    
O6    Zn2   S    
C60   H27   S    
C7    C9    A    
O5    Zn1   S    
C2    C63   A    
C23   C48   A    
C27   C32   A    
C39   H3    S    
C28   C31   A    
C18   C27   A    
C38   H4    S    
C3    C5    A    
C19   N2    A    
C5    C11   A    
C63   H10   S    
C25   C27   A    
C26   C28   A    
C33   C38   A    
C57   H24   S    
C55   C57   A    
C58   C59   A    
C4    H13   S    
C29   C31   A    
C17   O6    A    
C6    C13   A    
C30   C32   A    
C57   C58   A    
O4    Zn1   S    
C20   N1    A    
C21   H29   S    
C55   C61   A    
C36   C38   A    
C42   C47   A    
C9    C15   A    
C36   H5    S    
C35   C41   A    
C58   H25   S    
C24   C30   A    
O2    Zn2   S    
C34   H8    S    
C37   C39   A    
C49   C50   A    
C21   C24   A    
C46   C56   A    
C41   H34   S    
C53   H21   S    
C34   C47   A    
C17   C35   S    
C37   C46   A    
C31   H32   S    
