data_mof_unit_7116.cif
_audit_creation_date              2012-12-11T14:08:31-0500
_audit_creation_method            fapswitch 2.2
_symmetry_space_group_name_H-M    P1
_symmetry_Int_Tables_number       1
_space_group_crystal_system       triclinic
_cell_length_a                    28.231004
_cell_length_b                    7.187862
_cell_length_c                    17.208144
_cell_angle_alpha                 89.970228
_cell_angle_beta                  102.019238
_cell_angle_gamma                 89.956195
_cell_volume                      3415.33435889

loop_
_atom_site_label
_atom_site_type_symbol
_atom_type_description
_atom_site_fract_x
_atom_site_fract_y
_atom_site_fract_z
_atom_type_partial_charge
O1    O     O_R   0.000700 0.436510 0.857920 -0.536686
O2    O     O_R   0.999300 0.563490 0.142080 -0.535522
O3    O     O_R   0.999300 0.936510 0.642080 -0.534641
O4    O     O_R   0.000700 0.063490 0.357920 -0.533289
O5    O     O_R   0.930080 0.766380 0.721890 -0.544140
O6    O     O_R   0.069920 0.233620 0.278110 -0.518327
O7    O     O_R   0.069920 0.266380 0.778110 -0.542823
O8    O     O_R   0.930080 0.733620 0.221890 -0.542047
C1    C     C_R   0.910507 0.597490 0.709621 0.705055
C2    C     C_R   0.089551 0.402317 0.290250 0.705390
C3    C     C_R   0.089369 0.097391 0.790290 0.708152
C4    C     C_R   0.910614 0.902702 0.210359 0.709070
O9    O     O_R   0.996180 0.766230 0.862310 -0.545705
O10   O     O_R   0.003820 0.233770 0.137690 -0.546493
O11   O     O_R   0.003820 0.266230 0.637690 -0.544447
O12   O     O_R   0.996180 0.733770 0.362310 -0.545805
O13   O     O_R   0.065870 0.936460 0.783500 -0.515063
O14   O     O_R   0.934130 0.063540 0.216500 -0.515244
O15   O     O_R   0.934130 0.436460 0.716500 -0.515493
O16   O     O_R   0.065870 0.563540 0.283500 -0.543179
C5    C     C_R   0.998479 0.596411 0.894491 0.752258
C6    C     C_R   0.001517 0.403583 0.105506 0.753684
C7    C     C_R   0.001514 0.096455 0.605495 0.755899
C8    C     C_R   0.998479 0.903545 0.394502 0.752895
O17   O     O_3   0.022790 0.603020 0.723980 -0.369235
O18   O     O_3   0.977210 0.396980 0.276020 -0.368250
O19   O     O_3   0.977210 0.103020 0.776020 -0.372817
O20   O     O_3   0.022790 0.896980 0.223980 -0.375461
V1    V     V_3+5 0.995770 0.877900 0.754830 1.446906
V2    V     V_3+5 0.004230 0.122100 0.245170 1.458146
V3    V     V_3+5 0.004230 0.377900 0.745170 1.449439
V4    V     V_3+5 0.995770 0.622100 0.254830 1.434045
C9    C     C_2   0.001688 0.082690 0.519569 -0.334883
C10   C     C_2   0.998294 0.917310 0.480425 -0.335722
C11   C     C_2   0.998281 0.582662 0.980393 -0.333941
C12   C     C_2   0.001710 0.417320 0.019601 -0.336779
H1    H     H_    0.004449 0.211663 0.487897 0.153629
H2    H     H_    0.995531 0.788338 0.512096 0.153430
H3    H     H_    0.995473 0.711639 0.011994 0.152169
H4    H     H_    0.004518 0.288342 0.988000 0.151324
C13   C     C_R   0.683027 0.099048 0.069555 0.594239
C14   C     C_R   0.316181 0.905584 0.943012 0.594478
C15   C     C_R   0.316653 0.470228 0.471717 0.578027
C16   C     C_R   0.682907 0.586748 0.524048 0.577714
O21   O     O_2   0.712274 0.234357 0.052116 -0.520197
O22   O     O_2   0.286875 0.769385 0.959468 -0.519020
O23   O     O_2   0.287391 0.459052 0.524361 -0.519812
O24   O     O_2   0.712098 0.604395 0.471567 -0.519516
N1    N     N_R   0.702713 0.944546 0.110965 -0.550518
N2    N     N_R   0.296627 0.059093 0.900671 -0.550561
N3    N     N_R   0.297132 0.464269 0.391922 -0.553195
N4    N     N_R   0.702665 0.576451 0.603737 -0.552615
C17   C     C_R   0.673436 0.803970 0.127420 0.584387
C18   C     C_R   0.325927 0.200815 0.885397 0.584922
C19   C     C_R   0.326149 0.474299 0.337390 0.574967
C20   C     C_R   0.673678 0.557735 0.657992 0.574547
C21   C     C_R   0.780043 0.069885 0.187487 -0.117524
C22   C     C_R   0.220459 0.930714 0.821186 -0.119106
C23   C     C_R   0.225037 0.282617 0.329664 -0.128720
C24   C     C_R   0.779319 0.424276 0.667235 -0.128660
C25   C     C_R   0.830791 0.062790 0.212384 0.163936
C26   C     C_R   0.169897 0.937287 0.793317 0.164424
C27   C     C_R   0.174471 0.263633 0.304053 0.166794
C28   C     C_R   0.829946 0.426262 0.694605 0.167054
C29   C     C_R   0.831079 0.772283 0.139991 -0.250020
C30   C     C_R   0.167831 0.229091 0.864095 -0.251574
C31   C     C_R   0.164764 0.578753 0.350179 -0.246006
C32   C     C_R   0.831196 0.745828 0.648143 -0.257819
C33   C     C_R   0.780701 0.782127 0.115032 -0.080975
C34   C     C_R   0.217974 0.219716 0.892051 -0.081533
C35   C     C_R   0.214921 0.595283 0.375032 -0.104531
C36   C     C_R   0.780895 0.741884 0.621770 -0.098601
C37   C     C_R   0.754741 0.931466 0.138175 0.324900
C38   C     C_R   0.244749 0.070198 0.871136 0.324517
C39   C     C_R   0.245353 0.447482 0.365152 0.351729
C40   C     C_R   0.754645 0.581044 0.630878 0.348694
C41   C     C_R   0.601828 0.974156 0.060114 -0.046656
C42   C     C_R   0.397327 0.033150 0.955125 -0.047210
C43   C     C_R   0.397636 0.496854 0.444300 -0.044304
C44   C     C_R   0.601921 0.555257 0.551103 -0.044202
C45   C     C_R   0.632464 0.117268 0.044202 -0.035762
C46   C     C_R   0.366680 0.889247 0.970233 -0.036268
C47   C     C_R   0.367099 0.486314 0.499270 -0.036977
C48   C     C_R   0.632317 0.576408 0.496370 -0.036904
C49   C     C_R   0.612137 0.275464 0.003170 -0.126512
C50   C     C_R   0.386947 0.732099 0.012212 -0.126782
C51   C     C_R   0.387427 0.492261 0.580477 -0.126507
C52   C     C_R   0.611692 0.585925 0.415287 -0.126684
C53   C     C_R   0.622691 0.815695 0.101882 -0.038125
C54   C     C_R   0.376542 0.191030 0.912816 -0.037806
C55   C     C_R   0.376794 0.491126 0.362520 -0.033398
C56   C     C_R   0.622973 0.546607 0.632742 -0.033123
C57   C     C_R   0.856855 0.912992 0.187713 -0.065653
C58   C     C_R   0.143032 0.087686 0.815530 -0.064969
C59   C     C_R   0.143531 0.413479 0.314816 -0.065783
C60   C     C_R   0.856618 0.588859 0.684334 -0.064469
H5    H     H_    0.850099 0.656267 0.120330 0.154498
H6    H     H_    0.148186 0.345349 0.882133 0.154629
H7    H     H_    0.142521 0.696050 0.359562 0.163100
H8    H     H_    0.850318 0.871985 0.639173 0.160424
H9    H     H_    0.761883 0.674290 0.076738 0.168031
H10   H     H_    0.235975 0.328327 0.930817 0.168638
H11   H     H_    0.230204 0.723643 0.402196 0.133985
H12   H     H_    0.762268 0.864425 0.594171 0.135650
H13   H     H_    0.634813 0.388256 0.990415 0.173668
H14   H     H_    0.364262 0.618992 0.024629 0.174361
H15   H     H_    0.364777 0.486156 0.624097 0.174407
H16   H     H_    0.634135 0.604058 0.371855 0.176059
C61   C     C_R   0.478917 0.166337 0.966361 0.031232
C62   C     C_R   0.520170 0.842688 0.050489 0.032047
C63   C     C_R   0.520540 0.523795 0.580648 0.036995
C64   C     C_R   0.479033 0.527099 0.414616 0.037059
C65   C     C_R   0.468893 0.857611 0.024253 0.028970
C66   C     C_R   0.530182 0.151302 0.992484 0.028606
C67   C     C_R   0.530138 0.546933 0.441463 0.035585
C68   C     C_R   0.469253 0.514165 0.553932 0.035674
C69   C     C_R   0.448605 0.019015 0.982075 0.064955
C70   C     C_R   0.550497 0.989474 0.034285 0.065145
C71   C     C_R   0.550643 0.542140 0.524286 0.064667
C72   C     C_R   0.448860 0.512859 0.471055 0.064459
C73   C     C_R   0.456580 0.324015 0.924518 -0.189258
C74   C     C_R   0.542528 0.685268 0.092532 -0.191522
C75   C     C_R   0.543108 0.514268 0.662219 -0.173786
C76   C     C_R   0.456766 0.519482 0.332861 -0.173025
C77   C     C_R   0.406625 0.335326 0.898211 -0.140770
C78   C     C_R   0.592561 0.672758 0.117722 -0.144306
C79   C     C_R   0.593124 0.525707 0.687473 -0.130139
C80   C     C_R   0.406831 0.501981 0.307608 -0.130227
O25   O     O_2   0.306329 0.349893 0.842784 -0.520625
O26   O     O_2   0.693199 0.654098 0.169258 -0.519564
O27   O     O_2   0.693809 0.550769 0.736277 -0.522773
O28   O     O_2   0.306081 0.469484 0.259066 -0.522057
C81   C     C_R   0.562240 0.292548 0.977908 -0.187758
C82   C     C_R   0.436811 0.716240 0.038645 -0.188976
C83   C     C_R   0.437285 0.506092 0.607350 -0.172894
C84   C     C_R   0.561807 0.571862 0.388301 -0.174069
H17   H     H_    0.241188 0.816911 0.803802 0.150615
H18   H     H_    0.759956 0.183482 0.206589 0.150290
H19   H     H_    0.758787 0.300506 0.674471 0.123964
H20   H     H_    0.248856 0.168947 0.321978 0.123600
H21   H     H_    0.391645 0.459096 0.866281 0.168624
H22   H     H_    0.607571 0.548969 0.149602 0.168953
H23   H     H_    0.608346 0.517227 0.750610 0.166459
H24   H     H_    0.391840 0.496785 0.244330 0.165024
H25   H     H_    0.476490 0.442767 0.910745 0.124657
H26   H     H_    0.522571 0.567494 0.107150 0.123804
H27   H     H_    0.523327 0.495164 0.708727 0.118636
H28   H     H_    0.476861 0.524136 0.286185 0.117170
H29   H     H_    0.550223 0.419531 0.946897 0.127063
H30   H     H_    0.448810 0.589823 0.070146 0.125912
H31   H     H_    0.449379 0.512238 0.670855 0.120566
H32   H     H_    0.549342 0.583095 0.324976 0.121705
N5    N     N_3   0.145987 0.793649 0.741544 -0.629825
H33   H     H_    0.170414 0.688493 0.734726 0.237390
H34   H     H_    0.133885 0.853074 0.685440 0.218096
N6    N     N_3   0.855729 0.205255 0.263699 -0.628861
H35   H     H_    0.831718 0.310233 0.272470 0.236870
H36   H     H_    0.868943 0.144542 0.319220 0.217641
N7    N     N_3   0.853934 0.265099 0.734003 -0.635218
H37   H     H_    0.829639 0.154530 0.731824 0.222583
H38   H     H_    0.865725 0.299057 0.793991 0.227033
N8    N     N_3   0.154862 0.094248 0.266142 -0.640495
H39   H     H_    0.181932 0.993363 0.269541 0.226626
H40   H     H_    0.142386 0.123638 0.205833 0.227787

loop_
_geom_bond_atom_site_label_1
_geom_bond_atom_site_label_2
_ccdc_geom_bond_type
O17   V3    S    
C27   N8    S    
C47   C51   A    
C56   C79   A    
C22   C26   A    
O1    C5    A    
O19   V1    S    
O13   V1    S    
O3    C7    A    
C11   C12   D    
C14   C46   A    
C44   C48   A    
O4    V2    S    
O15   V3    S    
C62   C70   A    
C61   C69   A    
C68   C83   A    
C42   C54   A    
O7    C3    A    
C76   H28   S    
C17   O26   S    
C41   C53   A    
C32   C60   A    
C23   H20   S    
C63   C71   A    
N6    H35   S    
N3    C39   S    
C18   C54   A    
N2    C38   S    
C52   H16   S    
C25   C57   A    
C31   C35   A    
C67   C84   A    
C82   H30   S    
C27   C59   A    
O1    V3    S    
C15   C47   A    
O2    V4    S    
C14   O22   S    
C21   C37   A    
O3    V1    S    
C34   C38   A    
C19   C55   A    
C73   C77   A    
C1    O15   A    
C77   H21   S    
C7    C9    S    
O2    C6    A    
N7    H38   S    
C33   C37   A    
C63   C68   A    
O14   V2    S    
N5    H34   S    
O5    V1    S    
C31   H7    S    
C76   C80   A    
C16   N4    A    
O11   C7    A    
C44   C71   A    
O12   C8    A    
C31   C59   A    
C50   H14   S    
O10   V2    S    
C49   H13   S    
C13   N1    A    
C84   H32   S    
C50   C82   A    
N8    H40   S    
C53   C78   A    
O7    V3    S    
C55   C80   A    
C63   C75   A    
O8    V4    S    
C51   C83   A    
C12   H4    S    
C42   C69   A    
C81   H29   S    
C28   C60   A    
C41   C70   A    
C2    O16   A    
C64   C72   A    
O18   V4    S    
C36   H12   S    
N4    C40   S    
C46   C50   A    
O11   V3    S    
C24   C40   A    
C8    C10   S    
C68   C72   A    
C32   C36   A    
C74   C78   A    
C11   H3    S    
C32   H8    S    
O5    C1    A    
C54   C77   A    
C42   C46   A    
C75   C79   A    
N7    H37   S    
C1    C60   S    
C41   C45   A    
O8    C4    A    
C13   C45   A    
C43   C72   A    
C9    C10   D    
O9    C5    A    
C36   C40   A    
C79   H23   S    
C21   C25   A    
C44   C56   A    
C80   H24   S    
C62   C65   A    
C52   C84   A    
C66   C70   A    
C61   C66   A    
C14   N2    A    
C65   C69   A    
C22   H17   S    
O6    V2    S    
C75   H27   S    
C67   C71   A    
C65   C82   A    
C26   C58   A    
C17   C53   A    
O10   C6    A    
C73   H25   S    
N1    C37   S    
C4    C57   S    
C25   N6    S    
C23   C39   A    
C22   C38   A    
N8    H39   S    
O16   V4    S    
O9    V1    S    
C83   H31   S    
C18   O25   S    
C35   H11   S    
C3    O13   A    
C10   H2    S    
C43   C55   A    
C48   C52   A    
C3    C58   S    
C16   C48   A    
O6    C2    A    
C34   H10   S    
C64   C76   A    
C5    C11   S    
C33   H9    S    
O12   V4    S    
C6    C12   S    
C23   C27   A    
C26   N5    S    
C30   C58   A    
C24   C28   A    
C30   H6    S    
N6    H36   S    
C29   H5    S    
N2    C18   A    
C62   C74   A    
C35   C39   A    
C15   N3    A    
C30   C34   A    
C2    C59   S    
O4    C8    A    
C29   C33   A    
C28   N7    S    
O20   V2    S    
C29   C57   A    
C66   C81   A    
C78   H22   S    
C21   H18   S    
N3    C19   A    
C74   H26   S    
C9    H1    S    
N1    C17   A    
C24   H19   S    
C43   C47   A    
N4    C20   A    
C20   C56   A    
C51   H15   S    
C19   O28   S    
C4    O14   A    
C13   O21   S    
C61   C73   A    
N5    H33   S    
C15   O23   S    
C64   C67   A    
C45   C49   A    
C20   O27   S    
C16   O24   S    
C49   C81   A    
