data_mof_unit_65675.cif
_audit_creation_date              2013-03-05T16:38:21-0500
_audit_creation_method            fapswitch 2.2
_symmetry_space_group_name_H-M    P1
_symmetry_Int_Tables_number       1
_space_group_crystal_system       triclinic
_cell_length_a                    16.021739
_cell_length_b                    14.779302
_cell_length_c                    15.936522
_cell_angle_alpha                 89.969886
_cell_angle_beta                  90.032048
_cell_angle_gamma                 90.079379
_cell_volume                      3773.60621322

loop_
_atom_site_label
_atom_site_type_symbol
_atom_site_description
_atom_site_fract_x
_atom_site_fract_y
_atom_site_fract_z
_atom_type_partial_charge
O1    O     O_R   0.380310 0.575320 0.500040 -0.573755
O2    O     O_R   0.380310 0.424680 0.500040 -0.561688
C1    C     C_R   0.340962 0.499938 0.500094 0.820487
O3    O     O_R   0.500000 0.575380 0.379460 -0.549249
O4    O     O_R   0.500000 0.424620 0.379460 -0.548720
C2    C     C_R   0.500313 0.500019 0.340007 0.811600
Cu1   Cu    Cu3+1 0.500000 0.589220 0.500020 1.105175
Cu2   Cu    Cu3+1 0.500000 0.410780 0.500020 1.107717
O5    O     O_R   0.619690 0.575360 0.500000 -0.551862
O6    O     O_R   0.619690 0.424640 0.500000 -0.568281
O7    O     O_R   0.500000 0.575310 0.620580 -0.561233
O8    O     O_R   0.500000 0.424690 0.620580 -0.552691
C3    C     C_R   0.659015 0.500089 0.500030 0.831141
C4    C     C_R   0.499982 0.499959 0.660038 0.826259
C5    C     C_3   0.466995 0.585300 0.050620 -0.027543
C6    C     C_3   0.462439 0.414341 0.051405 -0.029194
C7    C     C_3   0.455532 0.409753 0.951780 0.034244
C8    C     C_3   0.457047 0.585718 0.951291 0.036971
H1    H     H_    0.404134 0.575336 0.077884 0.193407
H2    H     H_    0.399157 0.430257 0.075297 0.196503
C9    C     C_1   0.501159 0.499648 0.749150 0.001296
C10   C     C_3   0.515600 0.498572 0.083524 -0.249529
C11   C     C_3   0.505425 0.497183 0.916784 -0.260379
C12   C     C_3   0.604036 0.491068 0.946449 0.259822
C13   C     C_3   0.610415 0.496723 0.049899 0.374349
C14   C     C_1   0.502738 0.498578 0.824346 0.150154
C15   C     C_1   0.509617 0.499532 0.175904 0.201990
C16   C     C_1   0.504538 0.499979 0.250960 0.005097
C17   C     C_R   0.955822 0.515815 0.575795 0.262749
C18   C     C_R   0.955749 0.491996 0.423409 0.263606
C19   C     C_R   0.912379 0.505040 0.499430 -0.101868
C20   C     C_R   0.043566 0.489768 0.424001 -0.133739
C21   C     C_R   0.043651 0.513500 0.575863 -0.139278
C22   C     C_R   0.087229 0.500584 0.500081 -0.037894
C23   C     C_1   0.822732 0.502233 0.499754 0.153119
C24   C     C_1   0.177206 0.499961 0.500168 0.010911
C25   C     C_1   0.252087 0.499818 0.500159 -0.101721
C26   C     C_1   0.747864 0.500620 0.499929 -0.029165
C27   C     C_R   0.502852 0.951706 0.576545 0.233025
C28   C     C_R   0.500407 0.048208 0.576601 0.232287
C29   C     C_R   0.502632 0.902899 0.500007 -0.279149
C30   C     C_R   0.497364 0.097099 0.500124 -0.280017
C31   C     C_R   0.499605 0.951794 0.423534 0.220541
C32   C     C_R   0.497148 0.048290 0.423591 0.220753
C33   C     C_1   0.500912 0.802570 0.500028 0.407407
C34   C     C_1   0.499062 0.197430 0.500073 0.411843
N1    N     N_1   0.499980 0.276710 0.500030 -0.129802
N2    N     N_1   0.499980 0.723290 0.500030 -0.130498
N3    N     N_R   0.367308 0.584744 0.926287 0.161036
O9    O     O_R   0.307370 0.597852 0.980100 -0.254818
O10   O     O_R   0.347544 0.588918 0.846990 -0.285798
N4    N     N_R   0.366831 0.408434 0.924078 0.169291
O11   O     O_R   0.306689 0.388325 0.975842 -0.243843
O12   O     O_R   0.349696 0.404655 0.844183 -0.279340
N5    N     N_R   0.495796 0.903545 0.345268 0.172366
O13   O     O_R   0.439180 0.923786 0.289799 -0.209388
O14   O     O_R   0.548132 0.838491 0.329493 -0.256839
N6    N     N_R   0.497614 0.096631 0.345242 0.174113
O15   O     O_R   0.551844 0.076500 0.287459 -0.192953
O16   O     O_R   0.444617 0.161665 0.331677 -0.271385
N7    N     N_R   0.482366 0.327557 0.093083 0.169571
O17   O     O_R   0.432403 0.296656 0.150805 -0.237759
O18   O     O_R   0.545606 0.277934 0.071134 -0.207634
N8    N     N_R   0.493751 0.672122 0.088556 0.173977
O19   O     O_R   0.451646 0.704741 0.151487 -0.244377
O20   O     O_R   0.554571 0.720558 0.058343 -0.204413
C35   C     C_1   0.487193 0.323190 0.917237 0.499903
N9    N     N_1   0.509457 0.255049 0.889229 -0.049929
C36   C     C_1   0.486206 0.670956 0.912011 0.496662
N10   N     N_1   0.505858 0.738168 0.880116 -0.061079
N11   N     N_R   0.656788 0.578270 0.079206 0.188741
O21   O     O_R   0.642970 0.609116 0.154441 -0.247364
O22   O     O_R   0.731936 0.592390 0.050702 -0.154345
N12   N     N_R   0.659274 0.421255 0.087193 0.193253
O23   O     O_R   0.638771 0.386751 0.159444 -0.254463
O24   O     O_R   0.737558 0.413434 0.066020 -0.156779
N13   N     N_R   0.654586 0.565208 0.907189 0.143317
O25   O     O_R   0.719741 0.546092 0.861643 -0.159725
O26   O     O_R   0.645270 0.649645 0.927138 -0.275319
N14   N     N_R   0.638986 0.404752 0.910680 0.137515
O27   O     O_R   0.656135 0.333160 0.954744 -0.222613
O28   O     O_R   0.646755 0.396353 0.829636 -0.286113
C37   C     C_1   0.089176 0.527564 0.653422 0.412820
N15   N     N_1   0.125647 0.538813 0.715268 -0.114508
C38   C     C_1   0.088977 0.479530 0.345937 0.411417
N16   N     N_1   0.125343 0.471394 0.283669 -0.155051
N17   N     N_R   0.910772 0.528871 0.653032 0.143554
O29   O     O_R   0.852324 0.589685 0.657983 -0.273166
O30   O     O_R   0.927936 0.479908 0.718682 -0.244282
N18   N     N_R   0.910633 0.480832 0.345890 0.143239
O31   O     O_R   0.852324 0.537741 0.324909 -0.268112
O32   O     O_R   0.927610 0.413640 0.296031 -0.252122
N19   N     N_R   0.504243 0.096461 0.654866 0.167938
O33   O     O_R   0.451942 0.161549 0.670638 -0.299273
O34   O     O_R   0.560853 0.076196 0.710334 -0.216353
N20   N     N_R   0.502364 0.903363 0.654895 0.166387
O35   O     O_R   0.555306 0.838274 0.668452 -0.288208
O36   O     O_R   0.448164 0.923548 0.712690 -0.232949

loop_
_geom_bond_atom_site_label_1
_geom_bond_atom_site_label_2
_geom_bond_distance
_ccdc_geom_bond_type
C5    C8    1.590888 S    
N5    O13   1.301274 A    
N19   O33   1.301311 A    
C28   N19   1.438318 S    
C18   N18   1.440407 S    
Cu1   Cu2   2.637217 S    
C27   C29   1.417406 A    
N13   O25   1.303166 A    
C5    H1    1.106714 S    
C7    C11   1.617597 S    
N12   O24   1.304326 A    
C4    C9    1.420258 S    
C24   C25   1.199719 T    
C18   C19   1.410426 A    
O7    C4    1.278617 A    
N6    O16   1.301291 A    
C17   C21   1.407633 A    
C13   N12   1.487037 S    
C30   C34   1.483029 S    
C11   C14   1.473881 S    
N7    O18   1.299830 A    
O5    C3    1.279244 A    
C12   N14   1.506318 S    
C5    C10   1.589331 S    
C2    C16   1.420758 S    
C32   N6    1.438250 S    
C6    C7    1.592929 S    
N3    O10   1.304065 A    
C10   C13   1.611393 S    
N20   O36   1.301278 A    
C5    N8    1.481486 S    
C13   N11   1.490103 S    
C6    H2    1.108818 S    
C8    C36   1.481546 S    
C28   C30   1.417398 A    
N19   O34   1.301280 A    
C29   C31   1.417351 A    
N7    O17   1.301891 A    
C30   C32   1.417353 A    
O3    Cu1   1.932271 S    
C7    N4    1.488003 S    
C9    C14   1.198718 T    
N4    O12   1.303580 A    
N13   O26   1.296775 A    
C7    C35   1.483213 S    
N12   O23   1.301189 A    
C35   N9    1.158586 T    
C23   C26   1.199726 T    
C12   C13   1.653886 S    
N14   O28   1.303620 A    
C27   C28   1.426823 A    
N11   O22   1.303590 A    
N6    O15   1.301278 A    
C38   N16   1.157436 T    
C8    C11   1.618452 S    
O1    C1    1.279336 A    
C20   C22   1.408517 A    
Cu1   O7    1.932168 S    
C31   C32   1.426751 A    
N18   O32   1.301276 A    
C37   N15   1.157482 T    
Cu2   O8    1.932383 S    
N20   O35   1.301302 A    
C21   C22   1.408553 A    
C21   C37   1.449763 S    
C3    C26   1.423525 S    
C31   N5    1.438292 S    
O8    C4    1.278135 A    
C10   C15   1.475460 S    
N5    O14   1.301314 A    
C19   C23   1.436859 S    
O3    C2    1.279303 A    
C6    N7    1.479251 S    
N4    O11   1.302755 A    
C33   N2    1.171772 T    
Cu1   O5    1.928834 S    
C34   N1    1.171773 T    
C6    C10   1.591979 S    
O1    Cu1   1.928331 S    
O2    Cu2   1.928897 S    
N14   O27   1.299211 A    
O6    C3    1.280016 A    
O4    Cu2   1.932058 S    
N8    O19   1.302089 A    
N17   O30   1.301281 A    
O2    C1    1.279256 A    
Cu2   N1    1.981462 S    
N11   O21   1.302138 A    
C17   C19   1.410604 A    
Cu1   N2    1.981463 S    
C18   C20   1.407437 A    
N18   O31   1.301343 A    
O4    C2    1.279193 A    
C20   C38   1.449639 S    
C22   C24   1.441635 S    
C36   N10   1.158879 T    
C27   N20   1.438288 S    
C17   N17   1.440463 S    
C11   C12   1.651456 S    
C12   N13   1.498477 S    
C1    C25   1.423932 S    
N17   O29   1.301318 A    
Cu2   O6    1.928269 S    
N3    O9    1.302626 A    
C15   C16   1.198965 T    
C29   C33   1.483022 S    
C8    N3    1.491805 S    
N8    O20   1.300790 A    
