data_mof_unit_56299.cif
_audit_creation_date              2012-12-11T16:18:12-0500
_audit_creation_method            fapswitch 2.2
_symmetry_space_group_name_H-M    P1
_symmetry_Int_Tables_number       1
_space_group_crystal_system       triclinic
_cell_length_a                    14.043905
_cell_length_b                    14.059006
_cell_length_c                    30.108885
_cell_angle_alpha                 97.215668
_cell_angle_beta                  96.926675
_cell_angle_gamma                 61.348497
_cell_volume                      5163.09676823

loop_
_atom_site_label
_atom_site_type_symbol
_atom_type_description
_atom_site_fract_x
_atom_site_fract_y
_atom_site_fract_z
_atom_type_partial_charge
C1    C     C_R   0.386679 0.709678 0.441957 0.574302
C2    C     C_R   0.789592 0.264359 0.378383 0.400229
C3    C     C_R   0.818215 0.240033 0.333619 0.273954
C4    C     C_R   0.398951 0.381043 0.426495 0.546472
C5    C     C_R   0.823746 0.319551 0.311550 -0.046445
C6    C     C_R   0.810808 0.416927 0.334714 -0.136505
C7    C     C_R   0.783007 0.440497 0.378897 -0.176534
C8    C     C_R   0.872731 0.381497 0.164876 0.339900
C9    C     C_R   0.895536 0.376008 0.120897 -0.128661
C10   C     C_R   0.852775 0.226390 0.101140 0.238147
C11   C     C_R   0.832842 0.230846 0.146269 0.355809
C12   C     C_R   0.396949 0.243179 0.221666 -0.056634
C13   C     C_R   0.846489 0.305911 0.177989 0.000662
C14   C     C_1   0.838290 0.304339 0.224614 0.169880
C15   C     C_1   0.833091 0.308147 0.264233 0.119632
C16   C     C_R   0.710187 0.405342 0.442388 0.567273
C17   C     C_R   0.892703 0.294697 0.089128 -0.100012
C18   C     C_R   0.370909 0.762657 0.400548 -0.084194
C19   C     C_R   0.463288 0.752270 0.382104 -0.186218
C20   C     C_R   0.458136 0.776282 0.338091 0.202955
C21   C     C_R   0.358197 0.814015 0.312540 -0.036095
C22   C     C_R   0.263980 0.832892 0.331745 0.389017
C23   C     C_R   0.406637 0.247288 0.268610 0.263796
C24   C     C_R   0.270080 0.807178 0.375596 0.416113
C25   C     C_R   0.235515 0.867143 0.156761 -0.179050
C26   C     C_R   0.216271 0.893345 0.112680 -0.167542
C27   C     C_R   0.403766 0.858544 0.111427 0.247049
C28   C     C_R   0.389648 0.711564 0.568244 0.561728
C29   C     C_R   0.421148 0.834857 0.156660 0.424308
C30   C     C_R   0.335927 0.842619 0.179214 -0.008559
C31   C     C_1   0.347586 0.831640 0.226186 0.127579
C32   C     C_1   0.352835 0.824561 0.265664 0.156565
C33   C     C_R   0.297291 0.895799 0.090163 -0.044786
C34   C     C_R   0.331746 0.340301 0.293191 0.010637
C35   C     C_R   0.364302 0.364891 0.592404 -0.026059
C36   C     C_R   0.431501 0.272629 0.615982 -0.128373
C37   C     C_R   0.409270 0.267610 0.659197 -0.164239
C38   C     C_R   0.319572 0.354158 0.679038 0.041182
C39   C     C_R   0.247496 0.442611 0.654659 0.404266
C40   C     C_R   0.402117 0.383443 0.552440 0.554407
C41   C     C_R   0.269563 0.447753 0.611363 -0.072778
C42   C     C_R   0.237718 0.424792 0.839833 -0.065027
C43   C     C_R   0.232965 0.407620 0.884242 0.243823
C44   C     C_R   0.373742 0.220050 0.871019 -0.153872
C45   C     C_R   0.314472 0.330628 0.199354 -0.014396
C46   C     C_R   0.378427 0.238911 0.827463 -0.117882
C47   C     C_R   0.307703 0.339620 0.811383 -0.014583
C48   C     C_1   0.305461 0.351981 0.764928 0.033117
C49   C     C_1   0.308534 0.355283 0.725603 0.076763
C50   C     C_R   0.297504 0.301658 0.899305 0.006894
C51   C     C_1   0.761791 0.376808 0.612553 0.067368
C52   C     C_R   0.712564 0.408086 0.568624 0.559373
C53   C     C_R   0.885872 0.371153 0.723924 0.414258
C54   C     C_R   0.904585 0.357788 0.769940 -0.124525
C55   C     C_R   0.790849 0.269695 0.763519 0.419949
C56   C     C_1   0.301551 0.320609 0.151302 -0.012197
C57   C     C_R   0.772174 0.282996 0.717417 -0.084927
C58   C     C_R   0.819466 0.333827 0.697522 0.008855
C59   C     C_R   0.856736 0.307727 0.789938 -0.010560
C60   C     C_1   0.879392 0.293455 0.837284 0.037134
C61   C     C_1   0.792315 0.354989 0.650877 0.074547
C62   C     C_1   0.906643 0.282183 0.876614 0.037067
C63   C     C_1   0.376141 0.758013 0.613594 0.055731
C64   C     C_1   0.365470 0.363233 0.380947 0.062100
C65   C     C_R   0.285757 0.910582 0.717925 -0.142413
C66   C     C_R   0.271585 0.932081 0.763840 -0.110074
C67   C     C_1   0.345735 0.352008 0.341266 0.030085
C68   C     C_R   0.407988 0.747144 0.776578 -0.073090
C69   C     C_R   0.423100 0.724574 0.730427 0.247783
C70   C     C_R   0.360718 0.807219 0.700929 0.028254
C71   C     C_R   0.331966 0.850328 0.793164 -0.003339
C72   C     C_1   0.314420 0.874050 0.840221 -0.028610
C73   C     C_1   0.368241 0.784979 0.653105 0.029089
C74   C     C_1   0.294047 0.902647 0.878866 0.019723
C75   C     C_R   0.949105 0.273832 0.047806 0.587312
C76   C     C_R   0.249020 0.427433 0.270649 -0.128189
C77   C     C_R   0.275126 0.270153 0.065479 0.560043
C78   C     C_1   0.290352 0.303341 0.111403 0.040034
C79   C     C_R   0.261268 0.952697 0.048469 0.583464
C80   C     C_R   0.952495 0.268964 0.922028 0.550787
C81   C     C_R   0.277068 0.266777 0.939856 0.567923
C82   C     C_R   0.261726 0.950643 0.922932 0.556990
C83   C     C_R   0.240058 0.422439 0.223820 -0.090077
C84   C     C_R   0.766783 0.367083 0.400476 -0.023818
Cr1   Cr    Cr6+3 0.581000 0.584320 0.508140 1.076864
Cr2   Cr    Cr6+3 0.339110 0.576430 0.496080 1.098387
Cr3   Cr    Cr6+3 0.579910 0.339270 0.495810 1.134062
Cr4   Cr    Cr6+3 0.082090 0.079210 0.982490 1.117044
Cr5   Cr    Cr6+3 0.082460 0.324610 0.994920 1.141384
Cr6   Cr    Cr6+3 0.323630 0.087860 0.996130 1.118025
F1    F     F_    0.803626 0.160350 0.159738 -0.549646
F2    F     F_    0.167309 0.869967 0.307023 -0.536407
F3    F     F_    0.178840 0.820519 0.392616 -0.527936
F4    F     F_    0.519323 0.807927 0.179277 -0.538372
F5    F     F_    0.159881 0.526648 0.673667 -0.586143
F6    F     F_    0.931195 0.421709 0.705338 -0.573763
F7    F     F_    0.744268 0.220656 0.782293 -0.597425
F8    F     F_    0.883070 0.456500 0.195345 -0.581527
F9    F     F_    0.779073 0.190652 0.399677 -0.537890
H1    H     H_    0.192135 0.499773 0.289326 0.163820
H2    H     H_    0.425325 0.138579 0.881364 0.161120
H3    H     H_    0.465100 0.198715 0.677971 0.142620
H4    H     H_    0.452995 0.171666 0.202337 0.199554
H5    H     H_    0.956212 0.386839 0.790045 0.159570
H6    H     H_    0.719487 0.255223 0.697368 0.154330
H7    H     H_    0.237138 0.974235 0.695576 0.130528
H8    H     H_    0.212696 0.012338 0.776460 0.127467
H9    H     H_    0.454592 0.684595 0.799580 0.169837
H10   H     H_    0.923039 0.431319 0.112733 0.201976
H11   H     H_    0.816697 0.477432 0.317824 0.216960
H12   H     H_    0.134793 0.918837 0.097355 0.214432
H13   H     H_    0.767058 0.519532 0.395043 0.193615
H14   H     H_    0.782402 0.132227 0.989657 0.367514
H15   H     H_    0.777892 0.067672 0.241436 0.403685
H16   H     H_    0.559574 0.802913 0.014026 0.368427
H17   H     H_    0.621687 0.822909 0.267323 0.412008
H18   H     H_    0.076754 0.695233 0.920553 0.383730
H19   H     H_    0.402299 0.534556 0.690272 0.349787
H20   H     H_    0.657088 0.990178 0.275966 0.399464
H21   H     H_    0.169946 0.871590 0.174070 0.188172
H22   H     H_    0.541723 0.717678 0.400793 0.195818
H23   H     H_    0.175033 0.489724 0.206738 0.166458
H24   H     H_    0.185329 0.503622 0.827075 0.190032
H25   H     H_    0.216144 0.519693 0.593904 0.165467
H26   H     H_    0.504874 0.207560 0.602273 0.159961
H27   H     H_    0.433976 0.173095 0.805632 0.147073
O1    O     O_R   0.688580 0.499770 0.460490 -0.528085
O2    O     O_R   0.346150 0.177650 0.050510 -0.459563
O3    O     O_R   0.314200 0.996600 0.036060 -0.439493
O4    O     O_R   0.480400 0.672610 0.462660 -0.520489
O5    O     O_R   0.168690 0.969990 0.933130 -0.489230
O6    O     O_R   0.991920 0.175870 0.937430 -0.489169
O7    O     O_R   0.974010 0.342590 0.941330 -0.467863
O8    O     O_R   0.182630 0.317940 0.955040 -0.434428
O9    O     O_R   0.347320 0.174720 0.953250 -0.517833
O10   O     O_R   0.315290 0.993890 0.945900 -0.495285
O11   O     O_3   0.162730 0.163890 0.991180 -0.307578
O12   O     O_R   0.348600 0.476260 0.536540 -0.501865
O13   O     O_R   0.315310 0.685650 0.451800 -0.428498
O14   O     O_R   0.346220 0.474990 0.446280 -0.503178
O15   O     O_R   0.492270 0.312460 0.441630 -0.451270
O16   O     O_R   0.669740 0.350480 0.455640 -0.423653
O17   O     O_R   0.691150 0.501150 0.557860 -0.472757
O18   O     O_R   0.482790 0.673890 0.552920 -0.480020
O19   O     O_R   0.317880 0.687030 0.549170 -0.496771
O20   O     O_2   0.926716 0.030022 0.056713 -0.268462
O21   O     O_2   0.736725 0.119456 0.075646 -0.158672
O22   O     O_3   0.784934 0.190840 0.010948 -0.512067
O23   O     O_R   0.494840 0.313840 0.539010 -0.505492
O24   O     O_2   0.953789 0.060408 0.287001 -0.212619
O25   O     O_2   0.835823 0.038764 0.334101 -0.118274
O26   O     O_3   0.749492 0.136672 0.260735 -0.467851
O27   O     O_2   0.519265 0.945546 0.086131 -0.231010
O28   O     O_2   0.620527 0.755014 0.103627 -0.159738
O29   O     O_3   0.502051 0.799018 0.028570 -0.518925
O30   O     O_2   0.668788 0.731068 0.350441 -0.267071
O31   O     O_2   0.613370 0.645995 0.283411 -0.262201
O32   O     O_3   0.556990 0.851208 0.284916 -0.420091
O33   O     O_2   0.039138 0.521276 0.918792 -0.253360
O34   O     O_R   0.672120 0.351750 0.545910 -0.499907
O35   O     O_2   0.197419 0.513220 0.966296 -0.254669
O36   O     O_3   0.125977 0.636469 0.899702 -0.512334
O37   O     O_2   0.603226 0.601747 0.687087 -0.228441
O38   O     O_2   0.574756 0.520500 0.748205 -0.283398
O39   O     O_3   0.456677 0.537564 0.673185 -0.524317
O40   O     O_2   0.580639 0.175447 0.327038 -0.204466
O41   O     O_2   0.464096 0.088917 0.322631 -0.219782
O42   O     O_3   0.591519 0.039671 0.258112 -0.474958
O43   O     O_3   0.500010 0.500010 0.500010 -0.283602
O44   O     O_R   0.167510 0.972920 0.030390 -0.493109
O45   O     O_R   0.990840 0.178580 0.027590 -0.436773
O46   O     O_R   0.972840 0.345510 0.038590 -0.510386
O47   O     O_R   0.181550 0.320660 0.045200 -0.490484
S1    S     S_3+6 0.825206 0.137331 0.061030 0.103240
S2    S     S_3+6 0.842434 0.113501 0.304452 0.137972
S3    S     S_3+6 0.515697 0.839715 0.082864 0.108422
S4    S     S_3+6 0.579470 0.747643 0.314405 0.057669
S5    S     S_3+6 0.146620 0.520473 0.919103 0.042246
S6    S     S_3+6 0.519281 0.592844 0.710323 0.010487
S7    S     S_3+6 0.512710 0.136064 0.295822 0.085305

loop_
_geom_bond_atom_site_label_1
_geom_bond_atom_site_label_2
_ccdc_geom_bond_type
O29   S3    S    
C10   S1    S    
C26   H12   S    
C57   H6    S    
Cr2   O19   S    
C43   S5    S    
C52   O34   A    
C8    C13   A    
C80   O6    A    
C53   C58   A    
C55   C59   A    
C27   C29   A    
Cr2   O43   S    
C2    C84   A    
C35   C36   A    
C51   C61   T    
Cr5   O47   S    
C66   H8    S    
Cr1   O17   S    
O21   S1    D    
C81   O8    A    
C39   C41   A    
C38   C49   S    
Cr6   O2    S    
C53   C54   A    
C27   C33   A    
O27   S3    D    
C1    C18   S    
C29   C30   A    
C18   C24   A    
C5    C6    A    
C41   H25   S    
C62   C80   S    
C36   C37   A    
O32   S4    S    
C38   C39   A    
C10   C17   A    
C65   C70   A    
C79   O3    A    
C16   C84   S    
C56   C78   T    
Cr3   O34   S    
Cr1   O18   S    
C60   C62   T    
C18   C19   A    
C8    F8    S    
Cr6   O3    S    
C36   H26   S    
C45   C56   S    
C8    C9    A    
C40   O12   A    
O41   S7    D    
C28   O18   A    
H15   O26   S    
C1    O13   A    
Cr2   O14   S    
C58   C61   S    
O24   S2    D    
C59   C60   S    
C83   H23   S    
Cr4   O45   S    
C21   C22   A    
C53   F6    S    
C6    H11   S    
C45   C83   A    
C74   C82   S    
C76   C83   A    
C44   C46   A    
C42   H24   S    
C81   O9    A    
C54   C59   A    
C9    H10   S    
C21   C32   S    
C52   O17   A    
Cr5   O7    S    
C35   C40   S    
C51   C52   S    
C64   C67   T    
O25   S2    D    
C12   H4    S    
C72   C74   T    
C1    O4    A    
C4    O15   A    
Cr2   O12   S    
C68   C69   A    
C63   C73   T    
Cr4   O44   S    
C25   C26   A    
C77   C78   S    
O22   S1    S    
C37   H3    S    
C27   S3    S    
C16   O16   A    
C66   C71   A    
H17   O32   S    
C37   C38   A    
Cr1   O4    S    
C4    O14   A    
Cr6   O10   S    
O30   S4    D    
C26   C33   A    
C47   C48   S    
C12   C23   A    
C30   C31   S    
C3    S2    S    
C23   C34   A    
C55   F7    S    
C70   C73   S    
C28   O19   A    
C79   O44   A    
O31   S4    D    
Cr3   O15   S    
O38   S6    D    
C39   F5    S    
C23   S7    S    
C20   S4    S    
C77   O2    A    
Cr2   O13   S    
C9    C17   A    
C48   C49   T    
C2    F9    S    
Cr5   O11   S    
C55   C57   A    
O37   S6    D    
O39   S6    S    
C22   C24   A    
Cr1   O1    S    
O40   S7    D    
C42   C43   A    
Cr4   O6    S    
O33   S5    D    
C25   H21   S    
C65   H7    S    
Cr6   O11   S    
H14   O22   S    
C7    H13   S    
C44   C50   A    
C25   C30   A    
C4    C64   S    
C46   C47   A    
C19   H22   S    
O36   S5    S    
C77   O47   A    
Cr5   O8    S    
H16   O29   S    
C46   H27   S    
C31   C32   T    
C33   C79   S    
Cr5   O46   S    
C12   C45   A    
C3    C5    A    
C34   C67   S    
C44   H2    S    
O26   S2    S    
C43   C50   A    
C6    C7    A    
H18   O36   S    
C76   H1    S    
C54   H5    S    
H19   O39   S    
O28   S3    D    
C19   C20   A    
C2    C3    A    
C82   O5    A    
C71   C72   S    
O42   S7    S    
C24   F3    S    
C69   S6    S    
C75   O45   A    
Cr6   O9    S    
C11   C13   A    
C57   C58   A    
C29   F4    S    
C68   C71   A    
O20   S1    D    
C40   O23   A    
C7    C84   A    
C42   C47   A    
Cr3   O16   S    
C82   O10   A    
C69   C70   A    
C35   C41   A    
C16   O1    A    
Cr1   O43   S    
Cr4   O11   S    
C5    C15   S    
C10   C11   A    
C80   O7    A    
C28   C63   S    
C11   F1    S    
C20   C21   A    
C65   C66   A    
Cr3   O23   S    
C75   O46   A    
C17   C75   S    
C22   F2    S    
C14   C15   T    
C68   H9    S    
Cr4   O5    S    
O35   S5    D    
C13   C14   S    
H20   O42   S    
C50   C81   S    
C34   C76   A    
Cr3   O43   S    
