data_mof_unit_24502.cif
_audit_creation_date              2012-12-10T20:57:59-0500
_audit_creation_method            fapswitch 2.2
_symmetry_space_group_name_H-M    P1
_symmetry_Int_Tables_number       1
_space_group_crystal_system       triclinic
_cell_length_a                    18.203935
_cell_length_b                    18.246201
_cell_length_c                    18.366742
_cell_angle_alpha                 119.99975
_cell_angle_beta                  90.016615
_cell_angle_gamma                 120.001087
_cell_volume                      4313.06839763

loop_
_atom_site_label
_atom_site_type_symbol
_atom_type_description
_atom_site_fract_x
_atom_site_fract_y
_atom_site_fract_z
_atom_type_partial_charge
C1    C     C_R   0.357753 0.220089 0.361029 0.787173
C2    C     C_3   0.286719 0.587727 0.360010 -0.389854
C3    C     C_3   0.300676 0.501138 0.302202 0.210839
C4    C     C_3   0.198372 0.500947 0.200845 0.209349
C5    C     C_3   0.146688 0.395637 0.189188 -0.404215
C6    C     C_3   0.227308 0.588011 0.300848 -0.384725
C7    C     C_3   0.663455 0.940378 0.662578 -0.371640
C8    C     C_3   0.723219 0.060516 0.723307 -0.356873
C9    C     C_3   0.697323 0.937741 0.793809 -0.394546
C10   C     C_3   0.797322 0.942059 0.698783 -0.394141
C11   C     C_3   0.698565 0.897555 0.697097 0.188956
C12   C     C_R   0.640981 0.781028 0.638943 0.734807
C13   C     C_3   0.799270 0.102418 0.801589 0.180857
C14   C     C_3   0.755560 0.057801 0.854834 -0.406082
C15   C     C_3   0.856490 0.061412 0.761202 -0.383763
C16   C     C_3   0.679611 0.391673 0.241830 -0.398004
C17   C     C_3   0.739186 0.391537 0.181903 -0.402290
C18   C     C_3   0.679550 0.530191 0.242394 -0.401858
C19   C     C_3   0.799867 0.580221 0.360334 -0.385206
C20   C     C_3   0.698688 0.500596 0.302329 0.209137
C21   C     C_3   0.799866 0.500387 0.200699 0.210786
C22   C     C_3   0.739128 0.529993 0.182459 -0.401526
C23   C     C_R   0.359970 0.501243 0.641423 0.791040
C24   C     C_3   0.859048 0.580105 0.300903 -0.385206
C25   C     C_R   0.298819 0.138411 0.581295 -0.136632
C26   C     C_R   0.300490 0.096334 0.493988 -0.143482
C27   C     C_R   0.254609 0.098640 0.434534 0.161346
C28   C     C_R   0.206485 0.142688 0.463134 -0.119653
C29   C     C_R   0.204379 0.183916 0.550308 -0.133903
C30   C     C_R   0.250559 0.181822 0.609337 -0.114327
C31   C     C_R   0.203613 0.943747 0.285782 -0.266368
C32   C     C_R   0.196360 0.892308 0.195859 -0.061975
C33   C     C_R   0.240839 0.949250 0.160173 0.046047
C34   C     C_R   0.640833 0.500205 0.359490 0.739271
C35   C     C_R   0.291497 0.056304 0.215820 -0.199081
C36   C     C_R   0.299316 0.107755 0.305905 -0.071697
C37   C     C_R   0.253896 0.050823 0.341301 -0.013667
C38   C     C_R   0.291308 0.862174 0.039518 -0.206613
C39   C     C_R   0.294499 0.821843 0.952842 -0.129492
C40   C     C_R   0.246601 0.821084 0.892766 -0.177869
C41   C     C_R   0.194724 0.859809 0.918874 -0.253262
C42   C     C_R   0.189517 0.898870 0.005533 0.518168
C43   C     C_R   0.239617 0.901621 0.066622 0.055808
C44   C     C_R   0.954275 0.799536 0.723828 -0.143904
C45   C     C_R   0.641738 0.501820 0.641826 0.793647
C46   C     C_R   0.903592 0.703607 0.711506 -0.158171
C47   C     C_R   0.836172 0.681986 0.750449 0.164135
C48   C     C_R   0.820598 0.757633 0.802388 -0.124273
C49   C     C_R   0.872297 0.853962 0.815581 -0.161828
C50   C     C_R   0.938886 0.874789 0.776116 -0.120862
C51   C     C_R   0.839613 0.579766 0.796866 -0.266322
C52   C     C_R   0.798636 0.498357 0.806470 -0.048482
C53   C     C_R   0.705119 0.419577 0.763776 0.011535
C54   C     C_R   0.656392 0.422321 0.708893 -0.261948
C55   C     C_R   0.697493 0.504335 0.699831 -0.053766
C56   C     C_R   0.358354 0.500532 0.359430 0.732511
C57   C     C_R   0.789759 0.585703 0.746266 -0.013092
C58   C     C_R   0.623396 0.233200 0.708358 -0.315652
C59   C     C_R   0.571078 0.151882 0.718800 0.522698
C60   C     C_R   0.554058 0.176639 0.799428 -0.170119
C61   C     C_R   0.584071 0.278035 0.866561 -0.222142
C62   C     C_R   0.632831 0.356890 0.854629 -0.090444
C63   C     C_R   0.654316 0.335404 0.776283 0.115464
C64   C     C_R   0.396899 0.805967 0.724516 -0.115017
C65   C     C_R   0.374691 0.738379 0.749244 -0.228171
C66   C     C_R   0.294506 0.638041 0.698132 0.049553
C67   C     C_3   0.345096 0.520850 0.236002 -0.401028
C68   C     C_R   0.236669 0.605032 0.621213 0.532765
C69   C     C_R   0.258519 0.674884 0.598406 -0.275026
C70   C     C_R   0.338721 0.774423 0.649444 -0.162025
C71   C     C_R   0.216923 0.561350 0.775467 -0.230607
C72   C     C_R   0.194635 0.497794 0.804821 -0.069081
C73   C     C_R   0.228250 0.436547 0.781063 0.006717
C74   C     C_R   0.283889 0.441807 0.729682 -0.286547
C75   C     C_R   0.305158 0.504262 0.699363 -0.052586
C76   C     C_R   0.272613 0.566581 0.724150 0.056775
C77   C     C_R   0.268071 0.394526 0.878395 -0.210278
C78   C     C_3   0.284706 0.520226 0.176110 -0.399912
C79   C     C_R   0.248466 0.326137 0.901675 -0.287430
C80   C     C_R   0.165805 0.226246 0.853491 0.578724
C81   C     C_R   0.106026 0.196978 0.780587 -0.195801
C82   C     C_R   0.125735 0.265455 0.757451 -0.219450
C83   C     C_R   0.206568 0.364864 0.806705 0.163674
C84   C     C_R   0.857094 0.500077 0.142909 0.739727
C85   C     C_R   0.138194 0.499171 0.861186 0.796882
C86   C     C_R   0.856799 0.218972 0.861490 0.735676
C87   C     C_R   0.139485 0.779952 0.141130 0.788508
C88   C     C_R   0.855696 0.499222 0.861653 0.796024
C89   C     C_3   0.207240 0.395252 0.247902 -0.399639
C90   C     C_R   0.140033 0.500286 0.142978 0.740596
H1    H     H_    0.356013 0.459975 0.193189 0.173165
H2    H     H_    0.166924 0.576603 0.321163 0.173506
H3    H     H_    0.174193 0.378946 0.293920 0.145932
H4    H     H_    0.085330 0.381511 0.208232 0.151647
H5    H     H_    0.663176 0.912492 0.593024 0.144664
H6    H     H_    0.752695 0.090681 0.683347 0.148958
H7    H     H_    0.680770 0.088131 0.750088 0.213994
H8    H     H_    0.627015 0.906992 0.794233 0.166981
H9    H     H_    0.712845 0.084432 0.883373 0.168468
H10   H     H_    0.824907 0.912427 0.721941 0.192706
H11   H     H_    0.412145 0.596838 0.273447 0.150111
H12   H     H_    0.800014 0.916277 0.630251 0.161941
H13   H     H_    0.889495 0.093045 0.723159 0.161910
H14   H     H_    0.910652 0.087814 0.815411 0.188397
H15   H     H_    0.808763 0.086861 0.911583 0.153023
H16   H     H_    0.607515 0.332748 0.199100 0.178487
H17   H     H_    0.693240 0.369069 0.283600 0.151444
H18   H     H_    0.781543 0.368810 0.194697 0.149621
H19   H     H_    0.695489 0.332651 0.110626 0.176916
H20   H     H_    0.607455 0.474259 0.199668 0.175863
H21   H     H_    0.322812 0.595704 0.184266 0.150861
H22   H     H_    0.695434 0.473903 0.111183 0.172985
H23   H     H_    0.815795 0.659464 0.404398 0.174401
H24   H     H_    0.815864 0.560827 0.404004 0.176749
H25   H     H_    0.903330 0.560677 0.316226 0.173982
H26   H     H_    0.903290 0.659330 0.316612 0.175491
H27   H     H_    0.693128 0.608386 0.284581 0.148426
H28   H     H_    0.781449 0.608079 0.195674 0.150505
H29   H     H_    0.249008 0.213762 0.676800 0.138377
H30   H     H_    0.334548 0.136879 0.627065 0.131727
H31   H     H_    0.266583 0.458789 0.104986 0.173162
H32   H     H_    0.166818 0.217302 0.572021 0.128368
H33   H     H_    0.168208 0.900403 0.313019 0.172826
H34   H     H_    0.326868 0.099586 0.188523 0.170020
H35   H     H_    0.329807 0.863738 0.085907 0.125335
H36   H     H_    0.334840 0.792030 0.932498 0.133046
H37   H     H_    0.249986 0.790967 0.825969 0.159375
H38   H     H_    0.159460 0.860490 0.872010 0.137877
H39   H     H_    0.978645 0.949319 0.786206 0.172759
H40   H     H_    0.215155 0.331816 0.204636 0.178737
H41   H     H_    0.006248 0.816029 0.693803 0.136036
H42   H     H_    0.917579 0.646763 0.672768 0.128309
H43   H     H_    0.770259 0.742963 0.834539 0.100914
H44   H     H_    0.861178 0.912773 0.856864 0.118821
H45   H     H_    0.910690 0.641725 0.831635 0.155937
H46   H     H_    0.640978 0.218658 0.648650 0.115171
H47   H     H_    0.516244 0.116255 0.809702 0.140868
H48   H     H_    0.569257 0.295456 0.927932 0.140549
H49   H     H_    0.124011 0.331163 0.118160 0.171694
H50   H     H_    0.655073 0.435083 0.906902 0.117637
H51   H     H_    0.355594 0.827359 0.631041 0.164239
H52   H     H_    0.459018 0.883063 0.763853 0.135441
H53   H     H_    0.420077 0.763825 0.807854 0.129528
H54   H     H_    0.213339 0.652280 0.541422 0.128669
H55   H     H_    0.190834 0.607618 0.792424 0.176888
H56   H     H_    0.310218 0.395791 0.712831 0.180139
H57   H     H_    0.331440 0.470561 0.916031 0.139159
H58   H     H_    0.298659 0.351799 0.956510 0.114152
H59   H     H_    0.254256 0.575379 0.407764 0.162115
H60   H     H_    0.043585 0.120173 0.741403 0.137111
H61   H     H_    0.078211 0.240943 0.700970 0.133988
H62   H     H_    0.352835 0.664761 0.399744 0.180528
H63   H     H_    0.265204 0.665021 0.311733 0.173060
O1    O     O_3   0.500000 0.500000 0.500000 -0.471427
O2    O     O_R   0.383400 0.560740 0.616060 -0.647153
O3    O     O_R   0.555060 0.439270 0.322940 -0.649810
O4    O     O_R   0.383950 0.268380 0.445700 -0.633403
O5    O     O_R   0.677590 0.731610 0.615290 -0.638572
O6    O     O_3   0.997750 0.500010 0.002220 -0.469751
O7    O     O_R   0.942690 0.560750 0.179280 -0.651709
O8    O     O_R   0.114340 0.439270 0.886160 -0.633109
O9    O     O_R   0.820160 0.268410 0.886930 -0.641991
O10   O     O_R   0.113800 0.731630 0.056520 -0.649250
O11   O     O_R   0.819390 0.439310 0.886160 -0.637672
O12   O     O_R   0.383400 0.268380 0.323710 -0.646718
O13   O     O_R   0.115110 0.560720 0.179280 -0.651464
O14   O     O_R   0.941380 0.560750 0.885620 -0.659090
O15   O     O_R   0.115110 0.439270 0.057830 -0.644688
O16   O     O_R   0.942690 0.268390 0.886930 -0.643737
O17   O     O_R   0.114340 0.731630 0.178520 -0.648969
O18   O     O_R   0.820160 0.439310 0.057830 -0.646985
O19   O     O_R   0.113800 0.560730 0.885620 -0.640201
O20   O     O_R   0.555060 0.731630 0.615290 -0.642224
O21   O     O_R   0.383950 0.439280 0.616600 -0.640353
O22   O     O_R   0.677590 0.560710 0.444390 -0.648990
O23   O     O_R   0.556370 0.439260 0.616600 -0.650767
O24   O     O_R   0.382640 0.439290 0.322940 -0.645252
O25   O     O_R   0.678360 0.560700 0.616060 -0.634789
O26   O     O_R   0.382640 0.560750 0.444390 -0.657603
Zn1   Zn    Zn3+2 0.456040 0.586770 0.543190 0.950889
Zn2   Zn    Zn3+2 0.456820 0.413240 0.543960 0.967636
Zn3   Zn    Zn3+2 0.631110 0.586750 0.543190 0.962080
Zn4   Zn    Zn3+2 0.456040 0.413240 0.369660 0.947761
Zn5   Zn    Zn3+2 0.041710 0.413240 0.959030 0.962314
Zn6   Zn    Zn3+2 0.866640 0.413270 0.959030 0.958874
Zn7   Zn    Zn3+2 0.040930 0.586780 0.958260 0.957561
Zn8   Zn    Zn3+2 0.041710 0.586770 0.132560 0.943004
H64   H     H_    0.592913 0.911476 0.661429 0.204757
H65   H     H_    0.723220 0.909222 0.820650 0.151138
H66   H     H_    0.337479 0.062082 0.472673 0.116928
H67   H     H_    0.170227 0.144289 0.417791 0.106379
O27   O     O_3   0.140762 0.940720 0.033347 -0.627300
C91   C     C_3   0.048246 0.861862 0.984536 0.094152
H68   H     H_    0.026366 0.792406 0.983879 0.155782
H69   H     H_    0.033014 0.839020 0.914910 0.148034
C92   C     C_3   0.993681 0.902216 0.028028 -0.830298
H70   H     H_    0.011797 0.969950 0.027862 0.259061
H71   H     H_    0.920794 0.840395 0.990459 0.204950
H72   H     H_    0.007234 0.925839 0.097894 0.253594
H73   H     H_    0.585166 0.360428 0.674349 0.175421
O28   O     O_3   0.539003 0.048671 0.656188 -0.642546
C93   C     C_3   0.525090 0.019897 0.567733 0.094217
H74   H     H_    0.590514 0.049218 0.555587 0.140887
H75   H     H_    0.489925 0.048913 0.553102 0.134476
C94   C     C_3   0.466400 0.902159 0.503913 -0.867483
H76   H     H_    0.399921 0.869948 0.513516 0.251865
H77   H     H_    0.455855 0.878163 0.433943 0.202821
H78   H     H_    0.499406 0.870190 0.516177 0.252598
O29   O     O_3   0.157456 0.506086 0.571954 -0.622677
C95   C     C_3   0.156318 0.449155 0.483782 0.083631
H79   H     H_    0.223901 0.466290 0.480875 0.151068
H80   H     H_    0.131523 0.466106 0.442873 0.135059
C96   C     C_3   0.092586 0.333993 0.443177 -0.849315
H81   H     H_    0.023732 0.312802 0.442819 0.261940
H82   H     H_    0.090423 0.288253 0.373550 0.197295
H83   H     H_    0.116236 0.314851 0.482604 0.251804
O30   O     O_3   0.141344 0.151762 0.870051 -0.643535
C97   C     C_3   0.184420 0.194452 0.958766 0.058325
H84   H     H_    0.184013 0.262404 0.007583 0.137416
H85   H     H_    0.254679 0.217089 0.968013 0.150691
C98   C     C_3   0.134455 0.112974 0.977487 -0.799244
H86   H     H_    0.133881 0.043823 0.930552 0.270313
H87   H     H_    0.168219 0.145275 0.046819 0.223636
H88   H     H_    0.064035 0.089249 0.969551 0.238387

loop_
_geom_bond_atom_site_label_1
_geom_bond_atom_site_label_2
_ccdc_geom_bond_type
C66   C68   A    
C49   H44   S    
C25   H30   S    
C40   C41   A    
C9    H8    S    
O1    Zn1   S    
C86   O16   A    
C85   O8    A    
O28   C93   S    
C87   O10   A    
C35   C36   A    
C8    H6    S    
C8    H7    S    
C84   O18   A    
C72   C85   S    
C26   H66   S    
C7    C8    S    
C23   O21   A    
C62   H50   S    
C94   H76   S    
O2    Zn1   S    
C44   H41   S    
C7    C11   S    
C28   C29   A    
C26   C27   A    
C29   C30   A    
C93   H75   S    
O10   Zn7   S    
O6    Zn7   S    
C35   H34   S    
C98   H88   S    
C23   O2    A    
C10   C15   S    
C46   H42   S    
C71   C76   A    
C65   H53   S    
C61   H48   S    
C94   H78   S    
C30   H29   S    
C19   H23   S    
C81   H60   S    
O1    Zn2   S    
C92   H70   S    
C54   H73   S    
C41   C42   A    
O6    Zn8   S    
C49   C50   A    
C78   H31   S    
C53   C63   S    
C34   O22   A    
C16   H17   S    
C54   C55   A    
C51   H45   S    
C14   H15   S    
C47   C48   A    
O19   Zn7   S    
C16   C17   S    
C91   H69   S    
C93   C94   S    
O17   Zn8   S    
C5    H49   S    
C78   H21   S    
C51   C57   A    
C64   C70   A    
O6    Zn5   S    
C77   H57   S    
C82   H61   S    
C16   H16   S    
C60   H47   S    
C72   C73   A    
C69   C70   A    
C20   C34   S    
C88   O14   A    
C2    H59   S    
C96   H82   S    
C59   C60   A    
C39   H36   S    
C21   C22   S    
C90   O13   A    
C41   H38   S    
C2    C6    S    
C67   C78   S    
O4    Zn2   S    
C92   H72   S    
C9    H65   S    
C68   O29   S    
O21   Zn2   S    
O3    Zn4   S    
C44   C46   A    
C5    H4    S    
C4    C90   S    
C56   O24   A    
C77   C79   A    
C73   C74   A    
C2    H62   S    
O23   Zn2   S    
C85   O19   A    
C74   C75   A    
O18   Zn6   S    
O13   Zn8   S    
O12   Zn4   S    
C96   H81   S    
C18   H20   S    
C48   H43   S    
C52   C88   S    
C4    C6    S    
O11   Zn6   S    
C93   H74   S    
C45   O23   A    
C80   O30   S    
C9    C14   S    
C68   C69   A    
C19   H24   S    
O15   Zn5   S    
C25   C26   A    
C53   C54   A    
O14   Zn7   S    
C82   C83   A    
C81   C82   A    
C89   H40   S    
C51   C52   A    
C60   C61   A    
C69   H54   S    
C33   C43   S    
C13   C86   S    
C75   C76   A    
O16   Zn5   S    
C4    C78   S    
C98   H86   S    
C50   H39   S    
C42   O27   S    
C47   C57   S    
O5    Zn3   S    
C3    C56   S    
C59   O28   S    
C97   H85   S    
C31   C32   A    
C21   C84   S    
C10   H12   S    
C16   C20   S    
C91   C92   S    
C66   C76   S    
C29   H32   S    
C62   C63   A    
C67   H1    S    
O29   C95   S    
C10   H10   S    
C9    C11   S    
C18   H27   S    
O25   Zn3   S    
C45   O25   A    
O22   Zn3   S    
C86   O9    A    
C92   H71   S    
C48   C49   A    
C71   H55   S    
C95   H79   S    
C15   H13   S    
C95   H80   S    
C55   C57   A    
C15   H14   S    
C17   H18   S    
C42   C43   A    
C32   C87   S    
C28   H67   S    
C39   C40   A    
C38   H35   S    
C52   C53   A    
C67   H11   S    
C97   C98   S    
C96   H83   S    
C44   C50   A    
C25   C30   A    
C22   H28   S    
C46   C47   A    
C36   C37   A    
C70   H51   S    
C90   O15   A    
C1    O12   A    
C18   C22   S    
C58   C59   A    
C74   H56   S    
C3    C67   S    
C58   C63   A    
C23   C75   S    
C80   C81   A    
C17   H19   S    
O9    Zn6   S    
C11   C12   S    
C84   O7    A    
C24   H26   S    
C79   H58   S    
C34   O3    A    
O26   Zn1   S    
C95   C96   S    
C7    H5    S    
C22   H22   S    
O20   Zn1   S    
O8    Zn5   S    
C3    C89   S    
C58   H46   S    
O27   C91   S    
O6    Zn6   S    
C19   C20   S    
C13   C15   S    
C19   C24   S    
O30   C97   S    
C31   H33   S    
C38   C43   A    
C98   H87   S    
O1    Zn4   S    
C88   O11   A    
C32   C33   A    
C40   H37   S    
C14   H9    S    
C97   H84   S    
C38   C39   A    
C64   H52   S    
C27   C37   S    
C6    H2    S    
C4    C5    S    
O1    Zn3   S    
C64   C65   A    
C1    O4    A    
C33   C35   A    
C2    C3    S    
C18   C20   S    
C65   C66   A    
C89   H3    S    
C61   C62   A    
C17   C21   S    
C7    H64   S    
C6    H63   S    
C10   C11   S    
C79   C80   A    
C8    C13   S    
C31   C37   A    
C71   C72   A    
C45   C55   S    
C24   H25   S    
C91   H68   S    
C21   C24   S    
C27   C28   A    
C77   C83   A    
O24   Zn4   S    
O7    Zn8   S    
C12   O5    A    
C13   C14   S    
C94   H77   S    
C73   C83   S    
C5    C89   S    
C87   O17   A    
C1    C36   S    
C12   O20   A    
C56   O26   A    
