data_mof_unit_6472.cif
_audit_creation_date              2012-12-11T15:48:06-0500
_audit_creation_method            fapswitch 2.2
_symmetry_space_group_name_H-M    P1
_symmetry_Int_Tables_number       1
_space_group_crystal_system       triclinic
_cell_length_a                    6.931353
_cell_length_b                    17.564668
_cell_length_c                    19.399107
_cell_angle_alpha                 108.454557
_cell_angle_beta                  89.470042
_cell_angle_gamma                 90.533499
_cell_volume                      2240.18029469

loop_
_atom_site_label
_atom_site_type_symbol
_atom_type_description
_atom_site_fract_x
_atom_site_fract_y
_atom_site_fract_z
_atom_type_partial_charge
O1    O     O_R   0.494330 0.415710 0.413720 -0.542891
O2    O     O_R   0.819360 0.430070 0.560210 -0.542653
O3    O     O_R   0.994320 0.584290 0.586280 -0.512235
C1    C     C_R   0.650130 0.415401 0.582133 0.717414
O4    O     O_R   0.823740 0.406290 0.412670 -0.545880
O5    O     O_R   0.998730 0.560340 0.437690 -0.536633
C2    C     C_R   0.654878 0.383138 0.384667 0.683386
O6    O     O_R   0.489920 0.439660 0.562310 -0.538718
O7    O     O_3   0.662330 0.550570 0.508380 -0.363393
V1    V     V_3+5 0.935370 0.490620 0.498440 1.430056
O8    O     O_R   0.328720 0.569930 0.439790 -0.542444
C3    C     C_R   0.160735 0.585145 0.418536 0.690836
O9    O     O_R   0.324340 0.593710 0.587330 -0.544385
C4    C     C_R   0.154830 0.617918 0.614500 0.709613
V2    V     V_3+5 0.435940 0.509380 0.501560 1.416119
O10   O     O_3   0.159110 0.449430 0.491620 -0.375027
C5    C     C_R   0.302350 0.708044 0.729247 -0.207788
H1    H     H_    0.434877 0.674147 0.715945 0.167575
C6    C     C_R   0.292141 0.771705 0.794413 -0.162343
H2    H     H_    0.418101 0.785892 0.828837 0.140600
C7    C     C_R   0.120963 0.815591 0.815372 -0.097773
C8    C     C_R   0.962398 0.796218 0.768320 -0.229149
H3    H     H_    0.830612 0.830591 0.782188 0.131715
C9    C     C_R   0.974430 0.735041 0.701101 0.415095
C10   C     C_R   0.143387 0.687828 0.682231 -0.148449
C11   C     C_R   0.097922 0.596106 0.295992 -0.194707
C12   C     C_R   0.153596 0.632766 0.368248 -0.066907
C13   C     C_R   0.203232 0.714303 0.391894 -0.201022
C14   C     C_R   0.195804 0.759553 0.343796 0.070583
C15   C     C_R   0.143018 0.722327 0.270402 0.017727
C16   C     C_R   0.096491 0.639668 0.246089 0.016627
C17   C     C_R   0.240617 0.841498 0.368206 -0.269791
C18   C     C_R   0.237199 0.887094 0.320762 0.419567
C19   C     C_R   0.179092 0.851264 0.247843 0.024396
C20   C     C_R   0.135850 0.767998 0.221861 -0.058036
C21   C     C_R   0.084414 0.730808 0.147924 -0.084842
C22   C     C_R   0.030382 0.648079 0.125138 -0.151052
C23   C     C_R   0.046590 0.602197 0.172717 0.357310
C24   C     C_R   0.160846 0.897618 0.201089 -0.302643
C25   C     C_R   0.114114 0.862116 0.127972 -0.150550
C26   C     C_R   0.090344 0.778045 0.099739 0.398946
H4    H     H_    0.058236 0.533103 0.278895 0.132104
H5    H     H_    0.244473 0.742608 0.448057 0.096836
H6    H     H_    0.279194 0.870592 0.424506 0.135377
H7    H     H_    0.185328 0.961912 0.221082 0.153646
C27   C     C_R   0.768815 0.191871 0.875116 -0.189577
C28   C     C_R   0.622735 0.134071 0.868758 -0.085687
C29   C     C_R   0.479112 0.124321 0.815842 -0.217535
C30   C     C_R   0.483114 0.170153 0.768331 0.110969
C31   C     C_R   0.631008 0.227675 0.774529 0.038198
C32   C     C_R   0.771806 0.239737 0.829105 0.038378
C33   C     C_R   0.340443 0.160067 0.715254 -0.193808
C34   C     C_R   0.344701 0.206149 0.668221 -0.199809
C35   C     C_R   0.491467 0.263248 0.673528 0.109804
C36   C     C_R   0.635280 0.274367 0.727166 -0.009201
C37   C     C_R   0.779127 0.333946 0.735002 0.012448
C38   C     C_R   0.911580 0.349791 0.792790 0.394283
C39   C     C_R   0.907551 0.301904 0.838997 -0.268941
C40   C     C_R   0.494740 0.310361 0.626980 -0.227358
C41   C     C_R   0.641752 0.367419 0.632472 -0.099310
C42   C     C_R   0.782920 0.378896 0.686469 -0.199237
H8    H     H_    0.876918 0.200922 0.917059 0.124178
H9    H     H_    0.365260 0.080216 0.811127 0.119248
H10   H     H_    0.225101 0.116609 0.710220 0.127587
H11   H     H_    0.232433 0.197416 0.627892 0.130941
H12   H     H_    0.384735 0.301871 0.585792 0.125084
H13   H     H_    0.894075 0.424082 0.691279 0.154907
H14   H     H_    0.003628 0.316009 0.885157 0.136863
C43   C     C_R   0.811552 0.275721 0.281808 -0.158647
H15   H     H_    0.952156 0.294432 0.305262 0.115180
C44   C     C_R   0.800311 0.211864 0.216826 -0.153075
H16   H     H_    0.932846 0.183198 0.192319 0.117921
C45   C     C_R   0.620836 0.185354 0.184110 -0.046447
C46   C     C_R   0.452896 0.224427 0.218177 -0.163687
H17   H     H_    0.312313 0.205736 0.194694 0.116172
C47   C     C_R   0.464136 0.288284 0.283170 -0.153957
H18   H     H_    0.331617 0.316974 0.307667 0.116705
C48   C     C_R   0.643617 0.314767 0.315904 -0.042684
O11   O     O_R   0.774940 0.060470 0.937800 -0.539390
O12   O     O_R   0.440880 0.093730 0.087350 -0.544100
O13   O     O_R   0.266130 0.939630 0.062280 -0.549864
C49   C     C_R   0.609679 0.116949 0.115380 0.684629
O14   O     O_R   0.445480 0.069960 0.939820 -0.540057
O15   O     O_R   0.270770 0.915690 0.913690 -0.548980
C50   C     C_R   0.614719 0.085164 0.918335 0.710815
O16   O     O_R   0.770300 0.084410 0.086380 -0.542132
O17   O     O_3   0.602600 0.949510 0.991670 -0.370042
V3    V     V_3+5 0.329470 0.009370 0.001550 1.384842
O18   O     O_R   0.940760 0.906160 0.912560 -0.539883
C51   C     C_R   0.110031 0.883275 0.884534 0.708343
O19   O     O_R   0.936150 0.929930 0.060100 -0.531527
C52   C     C_R   0.104579 0.913394 0.080367 0.755966
V4    V     V_3+5 0.828930 0.990450 0.998310 1.410075
O20   O     O_3   0.105670 0.050490 0.008320 -0.371308
O21   O     O_3   0.076651 0.743730 0.024974 -0.579920
C53   C     C_3   0.251512 0.704120 0.996226 0.030733
H19   H     H_    0.218923 0.662313 0.941313 0.164746
H20   H     H_    0.308127 0.666757 0.028348 0.111741
C54   C     C_3   0.407870 0.763253 0.988620 -0.329432
H21   H     H_    0.347503 0.801917 0.959167 0.214602
H22   H     H_    0.455263 0.801361 0.043291 0.197582
C55   C     C_3   0.583500 0.720168 0.946853 -0.774806
H23   H     H_    0.649352 0.682588 0.976521 0.260022
H24   H     H_    0.692116 0.765011 0.941764 0.252260
H25   H     H_    0.541851 0.681885 0.891487 0.217644
C56   C     C_1   0.949026 0.608358 0.054245 0.397683
N1    N     N_1   0.884915 0.575558 0.997641 -0.374582
O22   O     O_3   0.997968 0.521223 0.148061 -0.572810
C57   C     C_3   0.167315 0.473874 0.132249 0.057477
H26   H     H_    0.134045 0.416766 0.143223 0.144888
H27   H     H_    0.292256 0.501574 0.167499 0.112241
C58   C     C_3   0.224646 0.454433 0.052039 -0.307199
H28   H     H_    0.097114 0.430845 0.017237 0.216593
H29   H     H_    0.276153 0.510088 0.042038 0.180458
C59   C     C_3   0.385392 0.392329 0.030940 -0.812488
H30   H     H_    0.516341 0.415434 0.063765 0.249941
H31   H     H_    0.422447 0.379496 0.972573 0.233041
H32   H     H_    0.337751 0.335465 0.039610 0.223743
O23   O     O_3   0.010170 0.422350 0.813453 -0.565661
C60   C     C_3   0.211540 0.410992 0.811203 0.089522
H33   H     H_    0.263032 0.397438 0.754207 0.135554
H34   H     H_    0.256757 0.361810 0.832214 0.114601
C61   C     C_3   0.304303 0.489334 0.857953 -0.330646
H35   H     H_    0.263590 0.538771 0.836734 0.200109
H36   H     H_    0.248858 0.503874 0.914496 0.208247
C62   C     C_3   0.523217 0.484025 0.858652 -0.764438
H37   H     H_    0.568461 0.431626 0.874767 0.241077
H38   H     H_    0.582647 0.539222 0.898298 0.252852
H39   H     H_    0.582206 0.479220 0.804169 0.243001
O24   O     O_3   0.820268 0.723002 0.653965 -0.568113
C63   C     C_3   0.850521 0.770768 0.608193 0.083623
H40   H     H_    0.978799 0.749145 0.572477 0.095648
H41   H     H_    0.872975 0.835078 0.640724 0.104913
C64   C     C_3   0.673646 0.765269 0.560297 -0.261719
H42   H     H_    0.646564 0.701749 0.527867 0.220572
H43   H     H_    0.544969 0.787857 0.595180 0.181693
C65   C     C_3   0.702684 0.814226 0.508432 -0.870857
H44   H     H_    0.726282 0.878570 0.539441 0.232988
H45   H     H_    0.572589 0.808935 0.474297 0.228407
H46   H     H_    0.828679 0.791574 0.472143 0.243700
O25   O     O_3   0.278229 0.968373 0.348072 -0.577614
C66   C     C_3   0.471762 0.982855 0.331512 0.066935
H47   H     H_    0.479253 0.044787 0.328099 0.147502
H48   H     H_    0.522078 0.942262 0.277664 0.108504
C67   C     C_3   0.607379 0.977488 0.391746 -0.351029
H49   H     H_    0.551702 0.015529 0.445396 0.209785
H50   H     H_    0.613975 0.914409 0.391994 0.195576
C68   C     C_3   0.810737 0.005296 0.380300 -0.757337
H51   H     H_    0.867019 0.969086 0.326211 0.242934
H52   H     H_    0.907445 0.997735 0.422953 0.247209
H53   H     H_    0.810454 0.069639 0.383745 0.224797

loop_
_geom_bond_atom_site_label_1
_geom_bond_atom_site_label_2
_ccdc_geom_bond_type
O17   V3    S    
V4    O20   S    
C45   C46   A    
C20   C21   A    
C68   H53   S    
C1    O6    A    
C63   C64   S    
C64   C65   S    
C58   H29   S    
C67   H49   S    
C21   C26   A    
C61   H35   S    
C34   C35   A    
C37   C38   A    
C65   H45   S    
C13   C14   A    
C11   C12   A    
C62   H37   S    
C46   C47   A    
C15   C20   A    
C27   H8    S    
C28   C50   S    
C7    C8    A    
C21   C22   A    
C6    C7    A    
C47   C48   A    
O11   V4    S    
C14   C17   A    
C57   H27   S    
C40   H12   S    
O5    C3    A    
C15   C16   A    
C61   H36   S    
C56   N1    T    
C59   H30   S    
C53   C54   S    
O22   C57   S    
C55   H25   S    
C19   C20   A    
C43   C44   A    
C38   O23   S    
C35   C36   A    
O13   C52   A    
O8    V2    S    
O21   C53   S    
C59   H31   S    
C53   H20   S    
O1    V2    S    
C14   C15   A    
C34   H11   S    
O7    V1    S    
C60   C61   S    
C35   C40   A    
C30   C33   A    
O14   V3    S    
C60   H33   S    
C40   C41   A    
O9    C4    A    
C23   O22   S    
C66   C67   S    
C43   C48   A    
C43   H15   S    
O15   C51   A    
O4    V1    S    
C58   H28   S    
C67   H50   S    
C60   H34   S    
C5    H1    S    
C7    C51   S    
C65   H46   S    
V3    O20   S    
C46   H17   S    
C3    C12   S    
C19   C24   A    
C28   C29   A    
C9    C10   A    
O12   C49   A    
C33   H10   S    
C57   C58   S    
O19   C52   A    
C44   C45   A    
C29   H9    S    
C64   H43   S    
C62   H39   S    
C18   O25   S    
C49   O16   A    
C27   C32   A    
C25   C52   S    
C61   C62   S    
C41   C42   A    
O2    C1    A    
C22   C23   A    
O16   V4    S    
O19   V4    S    
C42   H13   S    
C54   H21   S    
O23   C60   S    
C59   H32   S    
C53   H19   S    
C1    C41   S    
C36   C37   A    
C31   C32   A    
C17   H6    S    
C37   C42   A    
C32   C39   A    
C47   H18   S    
C55   H24   S    
O3    C4    A    
C2    C48   S    
C39   H14   S    
C25   C26   A    
O14   C50   A    
O6    V2    S    
O9    V2    S    
C8    C9    A    
C63   H40   S    
O2    V1    S    
C45   C49   S    
O11   C50   A    
C67   C68   S    
C33   C34   A    
C11   H4    S    
O4    C2    A    
C27   C28   A    
C29   C30   A    
C62   H38   S    
C54   H22   S    
O1    C2    A    
O15   V3    S    
C68   H52   S    
C63   H41   S    
O5    V1    S    
O8    C3    A    
C64   H42   S    
C65   H44   S    
C13   H5    S    
C31   C36   A    
C16   C23   A    
C24   H7    S    
C5    C10   A    
C17   C18   A    
C6    H2    S    
O24   C63   S    
O7    V2    S    
C22   C56   S    
O12   V3    S    
O3    V1    S    
V1    O10   S    
O25   C66   S    
C38   C39   A    
C26   O21   S    
O17   V4    S    
C5    C6    A    
C18   C19   A    
C66   H48   S    
C68   H51   S    
C4    C10   S    
O18   V4    S    
C55   H23   S    
O13   V3    S    
C24   C25   A    
C9    O24   S    
C11   C16   A    
C54   C55   S    
C44   H16   S    
C30   C31   A    
C12   C13   A    
C66   H47   S    
C8    H3    S    
O18   C51   A    
C57   H26   S    
C58   C59   S    
V2    O10   S    
