data_mof_unit_58307.cif
_audit_creation_date              2012-12-10T17:02:56-0500
_audit_creation_method            fapswitch 2.2
_symmetry_space_group_name_H-M    P1
_symmetry_Int_Tables_number       1
_space_group_crystal_system       triclinic
_cell_length_a                    9.88485
_cell_length_b                    11.04167
_cell_length_c                    13.396087
_cell_angle_alpha                 95.180705
_cell_angle_beta                  80.676617
_cell_angle_gamma                 111.740371
_cell_volume                      1339.44822853

loop_
_atom_site_label
_atom_site_type_symbol
_atom_type_description
_atom_site_fract_x
_atom_site_fract_y
_atom_site_fract_z
_atom_type_partial_charge
C1    C     C_R   0.556667 0.745532 0.507787 0.859060
C2    C     C_R   0.435602 0.483993 0.971791 0.036103
C3    C     C_R   0.450928 0.443498 0.867862 0.085722
C4    C     C_R   0.532730 0.472757 0.035189 0.070139
C5    C     C_R   0.635497 0.412638 0.996465 0.135282
C6    C     C_R   0.635536 0.358255 0.898565 -0.293002
C7    C     C_R   0.541117 0.368554 0.835457 0.136655
C8    C     C_R   0.530317 0.518649 0.136574 -0.227479
C9    C     C_R   0.722974 0.442511 0.159579 -0.199694
C10   C     C_R   0.373677 0.478314 0.800856 -0.087566
C11   C     C_2   0.588098 0.885389 0.512858 -0.363007
C12   C     C_R   0.420911 0.483867 0.690525 0.832315
C13   C     C_2   0.483451 0.930254 0.501331 -0.150321
C14   C     C_2   0.410605 0.114511 0.490164 -0.347669
C15   C     C_2   0.513773 0.069560 0.505016 -0.159202
C16   C     C_2   0.923003 0.488225 0.492522 0.062569
C17   C     C_2   0.068386 0.496344 0.517086 0.239374
C18   C     C_R   0.442967 0.254431 0.493043 0.879594
C19   C     C_R   0.577655 0.509516 0.309420 0.793890
C20   C     C_R   0.732504 0.401452 0.058006 -0.183360
C21   C     C_R   0.617960 0.497050 0.199832 -0.049586
C22   C     C_R   0.265668 0.530142 0.840677 -0.221446
C23   C     C_R   0.236772 0.552442 0.943825 -0.144005
C24   C     C_R   0.322155 0.532676 0.008690 -0.171632
Cu1   Cu    Cu3+1 0.362000 0.479240 0.482530 0.924759
Cu2   Cu    Cu3+1 0.638000 0.520760 0.517470 0.934196
H1    H     H_    0.122084 0.411327 0.386910 0.167132
H2    H     H_    0.706561 0.303833 0.871424 0.145545
H3    H     H_    0.811368 0.355652 0.028672 0.135595
H4    H     H_    0.457667 0.568139 0.170164 0.140165
H5    H     H_    0.207655 0.559850 0.791972 0.148420
H6    H     H_    0.151946 0.591372 0.973357 0.144489
N1    N     N_2   0.845330 0.551960 0.543750 -0.123266
N2    N     N_2   0.154690 0.448120 0.456210 -0.317907
O1    O     O_R   0.426290 0.668220 0.490680 -0.584509
O2    O     O_R   0.659360 0.703290 0.520190 -0.585098
O3    O     O_R   0.326580 0.473880 0.629020 -0.603030
O4    O     O_R   0.559660 0.508940 0.658530 -0.558300
O5    O     O_R   0.340640 0.296710 0.479810 -0.568072
O6    O     O_R   0.573710 0.331780 0.509320 -0.587449
O7    O     O_R   0.440340 0.491060 0.341470 -0.574236
O8    O     O_R   0.673420 0.526120 0.370980 -0.585090
H7    H     H_    0.791312 0.424671 0.207704 0.142427
H8    H     H_    0.374275 0.863935 0.488344 0.185813
H9    H     H_    0.302277 0.047948 0.475783 0.148732
H10   H     H_    0.697078 0.951976 0.525848 0.146740
N3    N     N_3   0.100621 0.545686 0.616134 -0.551962
H11   H     H_    0.204069 0.619356 0.613109 0.262093
H12   H     H_    0.085954 0.467350 0.660134 0.228562
H13   H     H_    0.874118 0.416768 0.435031 0.076666
N4    N     N_3   0.916543 0.661717 0.601188 -0.475957
H14   H     H_    0.914268 0.742603 0.567705 0.232368
H15   H     H_    0.853134 0.653780 0.672390 0.241795
H16   H     H_    0.294647 0.555021 0.087479 0.125774
N5    N     N_3   0.527343 0.291753 0.742841 -0.578442
H17   H     H_    0.632194 0.313913 0.701240 0.241469
H18   H     H_    0.488949 0.193433 0.760839 0.212140
H19   H     H_    0.622276 0.135840 0.519454 0.175702

loop_
_geom_bond_atom_site_label_1
_geom_bond_atom_site_label_2
_ccdc_geom_bond_type
C2    C4    A    
C18   O5    A    
Cu2   O6    S    
C6    C7    A    
C16   N1    D    
N1    N4    S    
C14   C18   S    
C9    C20   A    
N3    H11   S    
C1    C11   S    
C19   O8    A    
C7    N5    S    
Cu1   N2    S    
C23   C24   A    
C8    H4    S    
C23   H6    S    
N5    H17   S    
C13   C15   S    
C2    C3    A    
N3    H12   S    
C3    C10   A    
Cu1   O5    S    
C12   O4    A    
C11   C13   D    
C9    C21   A    
C16   C17   S    
C10   C12   S    
Cu1   O1    S    
Cu2   O2    S    
C19   C21   S    
C16   H13   S    
C8    C21   A    
C14   H9    S    
C3    C7    A    
C20   H3    S    
N5    H18   S    
H1    N2    S    
C2    C24   A    
C5    C6    A    
C15   H19   S    
C9    H7    S    
C22   H5    S    
C24   H16   S    
N4    H14   S    
C19   O7    A    
C12   O3    A    
Cu2   O8    S    
C17   N2    D    
Cu1   O7    S    
C4    C8    A    
C5    C20   A    
C1    O1    A    
C18   O6    A    
C14   C15   D    
Cu2   O4    S    
C11   H10   S    
Cu2   N1    S    
Cu1   O3    S    
Cu1   Cu2   S    
C22   C23   A    
C10   C22   A    
C13   H8    S    
C6    H2    S    
C17   N3    S    
C1    O2    A    
C4    C5    A    
N4    H15   S    
