data_mof_unit_8333.cif
_audit_creation_date              2012-12-10T17:29:15-0500
_audit_creation_method            fapswitch 2.2
_symmetry_space_group_name_H-M    P1
_symmetry_Int_Tables_number       1
_space_group_crystal_system       triclinic
_cell_length_a                    11.979046
_cell_length_b                    12.894912
_cell_length_c                    13.140642
_cell_angle_alpha                 87.506531
_cell_angle_beta                  112.390631
_cell_angle_gamma                 93.228966
_cell_volume                      1873.27291198

loop_
_atom_site_label
_atom_site_type_symbol
_atom_type_description
_atom_site_fract_x
_atom_site_fract_y
_atom_site_fract_z
_atom_type_partial_charge
C1    C     C_R   0.477478 0.299460 0.498169 0.902714
C2    C     C_R   0.607476 0.528567 0.824650 -0.121606
C3    C     C_R   0.536169 0.811712 0.503737 -0.049212
C4    C     C_R   0.566127 0.506580 0.707319 0.873171
C5    C     C_R   0.464466 0.188166 0.497900 -0.057528
C6    C     C_R   0.354104 0.029651 0.509995 -0.223155
C7    C     C_R   0.361806 0.137117 0.506053 -0.204806
C8    C     C_R   0.558547 0.132517 0.492196 -0.285271
C9    C     C_R   0.551919 0.025796 0.496561 0.189927
C10   C     C_R   0.449006 0.974031 0.505704 0.189592
C11   C     C_R   0.442280 0.867308 0.509860 -0.286048
C12   C     C_R   0.557895 0.558095 0.984125 0.111658
C13   C     C_R   0.639007 0.862748 0.495966 -0.211810
C14   C     C_R   0.646825 0.970187 0.492266 -0.221563
C15   C     C_R   0.023183 0.619361 0.426297 -0.340991
C16   C     C_R   0.522757 0.700501 0.502512 0.863312
C17   C     C_R   0.139772 0.605038 0.429094 0.004718
C18   C     C_R   0.150635 0.445919 0.529022 -0.050188
C19   C     C_R   0.032852 0.456495 0.527234 0.095265
C20   C     C_R   0.968779 0.544849 0.475819 0.098109
C21   C     C_R   0.851482 0.555912 0.474884 -0.076038
C22   C     C_R   0.860007 0.394687 0.570483 0.021660
C23   C     C_R   0.527496 0.566868 0.869623 0.082368
C24   C     C_R   0.977795 0.381507 0.575687 -0.329943
C25   C     C_R   0.436027 0.511842 0.292352 0.907126
C26   C     C_R   0.250556 0.561526 0.991519 0.226914
C27   C     C_R   0.401790 0.538964 0.175951 -0.140013
C28   C     C_R   0.723992 0.501025 0.894307 -0.199372
C29   C     C_R   0.757284 0.500292 0.007540 -0.162090
C30   C     C_R   0.673797 0.523811 0.052109 -0.156937
C31   C     C_3   0.075219 0.663403 0.905725 -0.798961
C32   C     C_3   0.576592 0.735129 0.230842 -0.746913
C33   C     C_R   0.466329 0.572064 0.025119 -0.001074
C34   C     C_R   0.344411 0.579685 0.951836 0.089304
C35   C     C_R   0.321104 0.605797 0.841748 -0.220528
C36   C     C_R   0.414577 0.607957 0.803643 -0.212591
C37   C     C_R   0.491980 0.574209 0.137211 0.136118
C38   C     C_R   0.280693 0.533120 0.102715 -0.321617
H1    H     H_    0.209658 0.510811 0.132377 0.170178
H2    H     H_    0.024797 0.312773 0.616278 0.141885
H3    H     H_    0.181286 0.663113 0.391248 0.135699
H4    H     H_    0.231318 0.623843 0.784639 0.180670
H5    H     H_    0.201902 0.379346 0.570102 0.126531
H6    H     H_    0.787331 0.474494 0.861298 0.159008
H7    H     H_    0.699809 0.508780 0.139193 0.139342
H8    H     H_    0.845574 0.474706 0.060803 0.142853
H9    H     H_    0.394708 0.637444 0.720684 0.183983
H10   H     H_    0.363064 0.827822 0.516982 0.155207
H11   H     H_    0.073378 0.505217 0.937056 0.222330
H12   H     H_    0.712048 0.819891 0.491250 0.157451
H13   H     H_    0.072712 0.687565 0.984990 0.242560
H14   H     H_    0.981466 0.659159 0.843190 0.245792
H15   H     H_    0.128629 0.722584 0.877255 0.244687
H16   H     H_    0.660235 0.592518 0.267940 0.239935
H17   H     H_    0.664436 0.775896 0.277317 0.222373
H18   H     H_    0.521042 0.730462 0.281995 0.231242
H19   H     H_    0.529427 0.780786 0.154099 0.248653
H20   H     H_    0.274813 0.990223 0.516812 0.136087
H21   H     H_    0.726138 0.009601 0.485484 0.136238
H22   H     H_    0.288697 0.179979 0.510628 0.156094
H23   H     H_    0.637755 0.171959 0.485025 0.157611
H24   H     H_    0.802636 0.624685 0.438004 0.119620
H25   H     H_    0.817754 0.335839 0.606816 0.130424
H26   H     H_    0.976077 0.688062 0.385713 0.145846
N1    N     N_R   0.798200 0.480260 0.519790 -0.096338
N2    N     N_R   0.201820 0.519740 0.480210 -0.100712
N3    N     N_2   0.127005 0.562677 0.919026 -0.311839
N4    N     N_2   0.597505 0.632195 0.204377 -0.312789
O1    O     O_R   0.579910 0.341070 0.505280 -0.628850
O2    O     O_R   0.388440 0.353740 0.492580 -0.623038
O3    O     O_R   0.643280 0.490550 0.663120 -0.613751
O4    O     O_R   0.451810 0.503220 0.650420 -0.618958
O5    O     O_R   0.611560 0.646260 0.507420 -0.626738
O6    O     O_R   0.420090 0.658930 0.494720 -0.642605
O7    O     O_R   0.548190 0.496780 0.349580 -0.621778
O8    O     O_R   0.356720 0.509450 0.336880 -0.614353
Zn1   Zn    Zn3+2 0.627850 0.491540 0.508480 0.934019
Zn2   Zn    Zn3+2 0.372150 0.508460 0.491520 0.931724

loop_
_geom_bond_atom_site_label_1
_geom_bond_atom_site_label_2
_ccdc_geom_bond_type
O2    Zn2   S    
C6    H20   S    
C30   H7    S    
O1    Zn1   S    
C35   C36   A    
C4    O4    A    
C31   H14   S    
C31   N3    S    
C14   H21   S    
C12   C23   A    
C17   N2    A    
C16   O6    A    
C26   N3    S    
C28   C29   A    
O8    Zn2   S    
C18   C19   A    
C38   H1    S    
H16   N4    S    
C27   C38   A    
C37   N4    S    
C36   H9    S    
C34   C35   A    
C35   H4    S    
O4    Zn2   S    
C22   H25   S    
C26   C34   A    
C19   C20   A    
C8    C9    A    
C15   H26   S    
C9    C10   A    
C32   H17   S    
C3    C13   A    
C8    H23   S    
C32   N4    S    
C21   N1    A    
C1    O1    A    
C13   C14   A    
C11   H10   S    
C32   H19   S    
C15   C20   A    
N2    Zn2   S    
N1    Zn1   S    
C16   O5    A    
C5    C7    A    
C26   C38   A    
C28   H6    S    
C33   C37   A    
C25   O7    A    
C2    C4    S    
C9    C14   A    
C22   N1    A    
C29   C30   A    
C33   C34   A    
C31   H15   S    
O7    Zn1   S    
C21   H24   S    
C1    C5    S    
C22   C24   A    
C25   C27   S    
C7    H22   S    
O3    Zn1   S    
C15   C17   A    
H11   N3    S    
C12   C30   A    
C31   H13   S    
C6    C10   A    
C5    C8    A    
C6    C7    A    
C18   N2    A    
C1    O2    A    
C29   H8    S    
C25   O8    A    
C19   C24   A    
C18   H5    S    
C27   C37   A    
C24   H2    S    
C17   H3    S    
C3    C11   A    
C10   C11   A    
C13   H12   S    
C20   C21   A    
C23   C36   A    
O6    Zn2   S    
C2    C23   A    
O5    Zn1   S    
C2    C28   A    
C12   C33   A    
C32   H18   S    
C4    O3    A    
C3    C16   S    
