data_mof_unit_10134.cif
_audit_creation_date              2012-12-10T19:00:12-0500
_audit_creation_method            fapswitch 2.2
_symmetry_space_group_name_H-M    P1
_symmetry_Int_Tables_number       1
_space_group_crystal_system       triclinic
_cell_length_a                    9.5542
_cell_length_b                    10.875959
_cell_length_c                    13.482988
_cell_angle_alpha                 90.553678
_cell_angle_beta                  73.40959
_cell_angle_gamma                 90.166865
_cell_volume                      1342.64480634

loop_
_atom_site_label
_atom_site_type_symbol
_atom_type_description
_atom_site_fract_x
_atom_site_fract_y
_atom_site_fract_z
_atom_type_partial_charge
C1    C     C_R   0.499852 0.737222 0.501151 0.825643
C2    C     C_R   0.445124 0.445758 0.974591 0.084191
C3    C     C_R   0.490803 0.442302 0.864960 0.092939
C4    C     C_R   0.551564 0.465293 0.028477 0.075251
C5    C     C_R   0.701349 0.471738 0.972270 0.179936
C6    C     C_R   0.744970 0.445341 0.866969 -0.272313
C7    C     C_R   0.641152 0.424813 0.815169 -0.213995
C8    C     C_R   0.513953 0.482311 0.136011 -0.255542
C9    C     C_R   0.767782 0.511125 0.129741 -0.201678
C10   C     C_R   0.384009 0.453728 0.809945 -0.105049
C11   C     C_R   0.373588 0.937586 0.521225 0.104785
C12   C     C_R   0.423897 0.485395 0.698634 0.802427
C13   C     C_R   0.501428 0.869756 0.501972 -0.122574
C14   C     C_R   0.634062 0.935428 0.482453 -0.217844
C15   C     C_R   0.633942 0.064474 0.482176 -0.205693
C16   C     C_R   0.501377 0.129892 0.500234 -0.078542
C17   C     C_R   0.373798 0.061483 0.518918 0.051119
C18   C     C_3   0.211739 0.069598 0.545270 -0.525336
C19   C     C_3   0.211427 0.927976 0.547298 0.310287
C20   C     C_R   0.961399 0.469569 0.412449 0.262785
C21   C     C_R   0.892598 0.542337 0.582936 -0.124914
C22   C     C_R   0.040920 0.540554 0.583530 -0.099671
C23   C     C_R   0.499914 0.262651 0.500203 0.800596
C24   C     C_R   0.108829 0.470105 0.412285 0.259933
C25   C     C_3   0.136753 0.350770 0.354998 -0.509642
C26   C     C_3   0.978058 0.350481 0.354872 -0.505322
C27   C     C_R   0.577502 0.501660 0.300378 0.797697
C28   C     C_R   0.806680 0.500463 0.022505 -0.206630
C29   C     C_R   0.621250 0.499000 0.187118 -0.043816
C30   C     C_R   0.236337 0.436093 0.863520 -0.190401
C31   C     C_R   0.194718 0.415467 0.969525 -0.153917
C32   C     C_R   0.295721 0.426467 0.025372 -0.179967
Cu1   Cu    Cu3+1 0.359330 0.500020 0.500010 0.948918
Cu2   Cu    Cu3+1 0.640670 0.499980 0.499990 0.932305
H1    H     H_    0.163320 0.114383 0.621856 0.216752
H2    H     H_    0.173405 0.104849 0.480974 0.150480
H3    H     H_    0.177082 0.881813 0.483792 0.062984
H4    H     H_    0.810915 0.577360 0.650103 0.155468
H5    H     H_    0.214149 0.359432 0.276874 0.183570
H6    H     H_    0.164119 0.276972 0.401879 0.214023
H7    H     H_    0.859796 0.438648 0.824709 0.137403
H8    H     H_    0.918811 0.514655 0.978127 0.132940
H9    H     H_    0.401618 0.483729 0.181595 0.145442
H10   H     H_    0.153102 0.436121 0.823278 0.142740
H11   H     H_    0.254121 0.414743 0.107588 0.116817
H12   H     H_    0.083056 0.393041 0.009942 0.139189
H13   H     H_    0.681831 0.390395 0.737073 0.187266
N1    N     N_R   0.852320 0.499070 0.499340 -0.183696
N2    N     N_R   0.148230 0.499110 0.499340 -0.182304
O1    O     O_R   0.381190 0.680360 0.500000 -0.571941
O2    O     O_R   0.618780 0.680320 0.499990 -0.587747
O3    O     O_R   0.323230 0.500000 0.650990 -0.582904
O4    O     O_R   0.560820 0.499960 0.650980 -0.598472
O5    O     O_R   0.381220 0.319680 0.500010 -0.577591
O6    O     O_R   0.618810 0.319640 0.500000 -0.593158
O7    O     O_R   0.439180 0.500040 0.349020 -0.589092
O8    O     O_R   0.676770 0.500000 0.349010 -0.585909
H14   H     H_    0.851909 0.528820 0.167503 0.149738
H15   H     H_    0.737302 0.112161 0.467332 0.152758
O9    O     O_3   0.151639 0.881763 0.648299 -0.579934
C33   C     C_3   0.005046 0.844213 0.663373 0.080761
H16   H     H_    0.977737 0.779258 0.729230 0.160685
H17   H     H_    0.989121 0.792882 0.595597 0.117978
C34   C     C_3   0.898984 0.953188 0.690735 -0.383631
H18   H     H_    0.921635 0.008532 0.754157 0.234880
H19   H     H_    0.913787 0.012698 0.621998 0.208983
C35   C     C_3   0.740687 0.909128 0.725083 -0.880495
H20   H     H_    0.716846 0.850078 0.664225 0.261610
H21   H     H_    0.666130 0.989636 0.739315 0.264788
H22   H     H_    0.719831 0.855793 0.797713 0.255543
H23   H     H_    0.068757 0.571767 0.651819 0.144204
H24   H     H_    0.964072 0.360927 0.276316 0.191754
H25   H     H_    0.913419 0.275195 0.401543 0.208305
H26   H     H_    0.737586 0.887812 0.467088 0.163847

loop_
_geom_bond_atom_site_label_1
_geom_bond_atom_site_label_2
_ccdc_geom_bond_type
C27   C29   S    
C26   H24   S    
C32   H11   S    
C8    H9    S    
C4    C8    A    
Cu1   O3    S    
C11   C19   S    
Cu2   O2    S    
C8    C29   A    
C14   H26   S    
C18   C19   S    
C3    C7    A    
C25   H6    S    
C5    C6    A    
Cu1   N2    S    
C15   C16   A    
C24   N2    A    
C26   H25   S    
C2    C32   A    
C9    H14   S    
C33   H17   S    
C19   H3    S    
C21   H4    S    
C20   C24   A    
C16   C17   A    
C31   H12   S    
Cu2   O8    S    
C18   H1    S    
C12   O4    A    
C9    C29   A    
C21   N1    A    
Cu1   O7    S    
Cu2   O6    S    
C13   C14   A    
C30   H10   S    
C12   O3    A    
Cu1   Cu2   S    
C35   H20   S    
C34   C35   S    
C24   C25   S    
C27   O8    A    
C27   O7    A    
Cu1   O1    S    
C6    H7    S    
O9    C33   S    
C35   H21   S    
C34   H19   S    
C33   C34   S    
C2    C4    A    
C5    C28   A    
C10   C30   A    
C31   C32   A    
C17   C18   S    
C1    O2    A    
C20   N1    A    
C10   C12   S    
C22   N2    A    
C16   C23   S    
C1    C13   S    
C22   H23   S    
C23   O5    A    
C1    O1    A    
Cu1   O5    S    
C11   C17   A    
C15   H15   S    
C4    C5    A    
C23   O6    A    
C6    C7    A    
C19   O9    S    
C35   H22   S    
C34   H18   S    
C2    C3    A    
C25   C26   S    
C3    C10   A    
C25   H5    S    
C11   C13   A    
C30   C31   A    
C20   C26   S    
C28   H8    S    
C33   H16   S    
Cu2   N1    S    
Cu2   O4    S    
C14   C15   A    
C21   C22   A    
C18   H2    S    
C9    C28   A    
C7    H13   S    
