data_mof_unit_42279.cif
_audit_creation_date              2012-12-11T15:11:42-0500
_audit_creation_method            fapswitch 2.2
_symmetry_space_group_name_H-M    P1
_symmetry_Int_Tables_number       1
_space_group_crystal_system       monoclinic
_cell_length_a                    20.181909
_cell_length_b                    7.098144
_cell_length_c                    13.495
_cell_angle_alpha                 90.0
_cell_angle_beta                  103.541626
_cell_angle_gamma                 90.0
_cell_volume                      1879.47080148

loop_
_atom_site_label
_atom_site_type_symbol
_atom_type_description
_atom_site_fract_x
_atom_site_fract_y
_atom_site_fract_z
_atom_type_partial_charge
O1    O     O_R   0.449830 0.506740 0.599960 -0.537265
O2    O     O_R   0.550170 0.006740 0.400040 -0.537264
O3    O     O_R   0.588980 0.179860 0.596720 -0.546739
O4    O     O_R   0.411020 0.679860 0.403280 -0.546740
C1    C     C_R   0.616022 0.345135 0.620667 0.667047
C2    C     C_R   0.383978 0.845135 0.379333 0.667047
O5    O     O_R   0.452740 0.177340 0.612040 -0.538840
O6    O     O_R   0.547260 0.677340 0.387960 -0.538840
O7    O     O_R   0.412960 0.002070 0.415460 -0.537102
O8    O     O_R   0.587040 0.502070 0.584540 -0.537103
C3    C     C_R   0.436523 0.345852 0.638610 0.680040
C4    C     C_R   0.563477 0.845852 0.361389 0.680040
O9    O     O_3   0.487110 0.337570 0.435490 -0.369197
O10   O     O_3   0.512890 0.837570 0.564510 -0.369197
V1    V     V_3+5 0.502390 0.064650 0.511970 1.388697
V2    V     V_3+5 0.497610 0.564650 0.488030 1.388697
C5    C     C_R   0.609244 0.897977 0.108883 -0.161563
C6    C     C_R   0.390756 0.397980 0.891117 -0.161562
H1    H     H_    0.515724 0.886410 0.157900 0.100321
H2    H     H_    0.484276 0.386414 0.842100 0.100321
H3    H     H_    0.692208 0.935007 0.984733 0.119861
H4    H     H_    0.307791 0.435012 0.015267 0.119860
H5    H     H_    0.583087 0.918269 0.029771 0.113768
H6    H     H_    0.416913 0.418274 0.970229 0.113768
C7    C     C_R   0.603242 0.855434 0.283968 -0.024097
C8    C     C_R   0.396757 0.355434 0.716032 -0.024097
C9    C     C_R   0.931576 0.830479 0.317399 -0.169468
C10   C     C_R   0.068424 0.330476 0.682601 -0.169468
C11   C     C_R   0.896203 0.814673 0.393766 -0.122507
C12   C     C_R   0.103797 0.314670 0.606234 -0.122507
C13   C     C_R   0.825286 0.825108 0.370392 -0.164572
C14   C     C_R   0.174714 0.325105 0.629608 -0.164572
C15   C     C_R   0.787581 0.852774 0.268756 0.077512
C16   C     C_R   0.212419 0.352773 0.731244 0.077512
C17   C     C_R   0.824332 0.870558 0.190882 0.074104
C18   C     C_R   0.175668 0.370559 0.809118 0.074104
C19   C     C_R   0.714783 0.862254 0.241686 0.070568
C20   C     C_R   0.285217 0.362254 0.758314 0.070568
C21   C     C_R   0.680690 0.890102 0.137849 0.148268
C22   C     C_R   0.319310 0.390104 0.862151 0.148268
C23   C     C_R   0.717948 0.910209 0.063507 -0.217258
C24   C     C_R   0.282052 0.410212 0.936493 -0.217258
C25   C     C_R   0.788531 0.899437 0.089247 -0.208984
C26   C     C_R   0.211469 0.399440 0.910753 -0.208984
C27   C     C_R   0.674357 0.845750 0.313924 -0.214659
C28   C     C_R   0.325643 0.345749 0.686076 -0.214659
C29   C     C_R   0.570773 0.880170 0.181546 -0.181765
C30   C     C_R   0.429227 0.380172 0.818454 -0.181766
C31   C     C_R   0.896427 0.858357 0.216299 -0.073816
C32   C     C_R   0.103573 0.358356 0.783701 -0.073816
H7    H     H_    0.696249 0.826808 0.394139 0.087124
H8    H     H_    0.303751 0.326806 0.605862 0.087124
H9    H     H_    0.986695 0.820342 0.337125 0.097055
H10   H     H_    0.013305 0.320338 0.662876 0.097055
H11   H     H_    0.801745 0.810445 0.433792 0.102074
H12   H     H_    0.198255 0.310442 0.566209 0.102074
H13   H     H_    0.923970 0.793095 0.471899 0.116666
H14   H     H_    0.076030 0.293089 0.528101 0.116666
H15   H     H_    0.814894 0.914236 0.028486 0.110103
H16   H     H_    0.185106 0.414240 0.971513 0.110103
C33   C     C_3   0.212684 0.652552 0.211289 -0.324470
C34   C     C_3   0.787315 0.152552 0.788713 -0.324470
H17   H     H_    0.178103 0.576999 0.251113 0.143833
H18   H     H_    0.821896 0.076996 0.748890 0.143833
H19   H     H_    0.211879 0.574842 0.139441 0.135568
H20   H     H_    0.788120 0.074845 0.860562 0.135568
C35   C     C_3   0.285946 0.650685 0.278813 -0.366024
C36   C     C_3   0.714054 0.150685 0.721188 -0.366025
H21   H     H_    0.320156 0.578311 0.237263 0.134954
H22   H     H_    0.679843 0.078313 0.762738 0.134954
H23   H     H_    0.286448 0.566929 0.348763 0.146917
H24   H     H_    0.713551 0.066928 0.651238 0.146917
H25   H     H_    0.151589 0.894252 0.327757 0.121565
H26   H     H_    0.848411 0.394245 0.672243 0.121565
H27   H     H_    0.258801 0.865804 0.430839 0.134914
H28   H     H_    0.741198 0.365801 0.569160 0.134914
C37   C     C_3   0.189317 0.959376 0.289800 -0.326145
C38   C     C_3   0.810684 0.459372 0.710199 -0.326146
C39   C     C_3   0.238146 0.957697 0.134567 -0.335815
C40   C     C_3   0.761854 0.457700 0.865433 -0.335816
C41   C     C_3   0.187338 0.857664 0.187213 0.097998
C42   C     C_3   0.812662 0.357664 0.812787 0.097998
H29   H     H_    0.218512 0.101386 0.111772 0.136828
H30   H     H_    0.781488 0.601390 0.888225 0.136828
H31   H     H_    0.238997 0.883038 0.062290 0.122668
H32   H     H_    0.761003 0.383045 0.937710 0.122668
C43   C     C_3   0.312978 0.854318 0.307791 0.082498
C44   C     C_3   0.687022 0.354318 0.692209 0.082498
C45   C     C_3   0.261443 0.948857 0.361903 -0.321705
C46   C     C_3   0.738557 0.448855 0.638096 -0.321705
C47   C     C_3   0.312019 0.961025 0.204788 0.016376
C48   C     C_3   0.687981 0.461027 0.795211 0.016376
H33   H     H_    0.344286 0.877001 0.164392 0.117710
H34   H     H_    0.655715 0.377004 0.835608 0.117710
H35   H     H_    0.174703 0.109876 0.275452 0.143115
H36   H     H_    0.825298 0.609873 0.724546 0.143114
H37   H     H_    0.278324 0.092463 0.389293 0.124829
H38   H     H_    0.721676 0.592461 0.610707 0.124829
O11   O     O_R   0.912980 0.203550 0.915410 -0.541235
O12   O     O_R   0.087020 0.703550 0.084590 -0.541234
O13   O     O_R   0.047270 0.535570 0.887960 -0.539381
O14   O     O_R   0.952730 0.035570 0.112040 -0.539381
C49   C     C_R   0.063969 0.368064 0.861784 0.687040
C50   C     C_R   0.936031 0.868064 0.138216 0.687040
O15   O     O_R   0.911030 0.532970 0.903270 -0.546571
O16   O     O_R   0.088970 0.032970 0.096730 -0.546571
O17   O     O_R   0.949820 0.708150 0.099970 -0.535508
O18   O     O_R   0.050180 0.208150 0.900030 -0.535508
C51   C     C_R   0.883993 0.364508 0.881644 0.659309
C52   C     C_R   0.116007 0.864508 0.118356 0.659309
O19   O     O_3   0.012900 0.375230 0.064480 -0.373183
O20   O     O_3   0.987100 0.875230 0.935520 -0.373183
V3    V     V_3+5 0.997610 0.648190 0.988040 1.395628
V4    V     V_3+5 0.002390 0.148190 0.011960 1.395628
C53   C     C_3   0.341042 0.166185 0.217520 -0.344659
C54   C     C_3   0.411614 0.180515 0.195042 -0.756810
H39   H     H_    0.447820 0.084768 0.245285 0.234373
H40   H     H_    0.408880 0.142796 0.114285 0.208843
H41   H     H_    0.430830 0.327193 0.208220 0.217946
H42   H     H_    0.308109 0.265504 0.164666 0.166941
H43   H     H_    0.343323 0.223433 0.294505 0.196280
C55   C     C_3   0.658958 0.666186 0.782479 -0.344660
C56   C     C_3   0.588386 0.680517 0.804956 -0.756809
H44   H     H_    0.552180 0.584769 0.754714 0.234373
H45   H     H_    0.591120 0.642799 0.885713 0.208843
H46   H     H_    0.569170 0.827195 0.791778 0.217947
H47   H     H_    0.691891 0.765506 0.835332 0.166940
H48   H     H_    0.656677 0.723433 0.705493 0.196280

loop_
_geom_bond_atom_site_label_1
_geom_bond_atom_site_label_2
_ccdc_geom_bond_type
C39   H29   S    
O12   C52   A    
C53   H43   S    
C43   C47   S    
C9    C11   A    
O13   V3    S    
O1    C3    A    
C40   H30   S    
O2    C4    A    
O11   V4    S    
O20   V4    S    
O3    V1    S    
C56   H44   S    
C21   C23   A    
C38   C46   S    
O5    C3    A    
C37   C45   S    
C5    H5    S    
O16   V4    S    
C6    H6    S    
O15   V3    S    
C20   C22   A    
H1    C29   S    
C56   H45   S    
C27   H7    S    
C53   C54   S    
O11   C51   A    
C28   H8    S    
C54   H39   S    
C5    C21   A    
O18   V4    S    
C55   H47   S    
C33   H17   S    
C33   C35   S    
O17   V3    S    
C34   H18   S    
C1    C44   S    
C10   C32   A    
C44   C48   S    
C38   H36   S    
C17   C31   A    
C40   H32   S    
C13   C15   A    
C49   O18   A    
C17   C25   A    
C7    C29   A    
C39   C47   S    
C8    C30   A    
C22   C24   A    
C34   C42   S    
C32   C49   S    
O13   C49   A    
C11   C13   A    
C23   C25   A    
C24   C26   A    
C2    O7    A    
O20   V3    S    
C34   H20   S    
C42   C51   S    
C40   C42   S    
C39   C41   S    
C10   H10   S    
C56   H46   S    
C3    C8    S    
C37   H35   S    
C15   C19   A    
C2    C43   S    
C45   H37   S    
C36   H24   S    
C35   H21   S    
C14   C16   A    
C40   C48   S    
O14   V4    S    
C48   C55   S    
C47   H33   S    
C38   C42   S    
C37   C41   S    
O6    C4    A    
C48   H34   S    
O19   V3    S    
O1    V2    S    
O14   C50   A    
O2    V1    S    
H2    C30   S    
H3    C23   S    
C36   H22   S    
C11   H13   S    
C43   C45   S    
C36   C44   S    
C18   C26   A    
O4    C2    A    
O4    V2    S    
C19   C27   A    
C7    C27   A    
C39   H31   S    
C18   C32   A    
O16   C52   A    
O15   C51   A    
C47   C53   S    
C16   C20   A    
O12   V3    S    
C5    C29   A    
C44   C46   S    
O3    C1    A    
C6    C30   A    
C9    H9    S    
O9    V2    S    
C25   H15   S    
C35   C43   S    
C54   H41   S    
C34   C36   S    
C4    C7    S    
C31   C50   S    
C10   C12   A    
O7    V1    S    
C1    O8    A    
C19   C21   A    
O8    V2    S    
C14   H12   S    
C12   C14   A    
H4    C24   S    
C26   H16   S    
C12   H14   S    
O5    V1    S    
C15   C17   A    
C16   C18   A    
C54   H40   S    
O19   V4    S    
C35   H23   S    
C55   H48   S    
C20   C28   A    
C8    C28   A    
C33   H19   S    
C6    C22   A    
C41   C52   S    
O6    V2    S    
C53   H42   S    
H26   C38   S    
H27   C45   S    
H25   C37   S    
O10   V1    S    
C33   C41   S    
C13   H11   S    
C55   C56   S    
C46   H38   S    
C50   O17   A    
C9    C31   A    
H28   C46   S    
