data_mof_unit_62560.cif
_audit_creation_date              2013-03-05T16:48:06-0500
_audit_creation_method            fapswitch 2.2
_symmetry_space_group_name_H-M    P1
_symmetry_Int_Tables_number       1
_space_group_crystal_system       triclinic
_cell_length_a                    25.912848
_cell_length_b                    42.963213
_cell_length_c                    25.085514
_cell_angle_alpha                 89.98613
_cell_angle_beta                  120.98982
_cell_angle_gamma                 90.038257
_cell_volume                      23941.2462955

loop_
_atom_site_label
_atom_site_type_symbol
_atom_site_description
_atom_site_fract_x
_atom_site_fract_y
_atom_site_fract_z
_atom_type_partial_charge
Zn1   Zn    Zn3+2 0.930660 0.275970 0.448070 0.994572
Zn2   Zn    Zn3+2 0.069340 0.724030 0.551930 1.025978
Zn3   Zn    Zn3+2 0.069340 0.275970 0.551930 1.041735
Zn4   Zn    Zn3+2 0.930660 0.724030 0.448070 1.026402
Zn5   Zn    Zn3+2 0.430660 0.775970 0.448070 1.026387
Zn6   Zn    Zn3+2 0.569340 0.224030 0.551930 0.994655
Zn7   Zn    Zn3+2 0.569340 0.775970 0.551930 1.026149
Zn8   Zn    Zn3+2 0.430660 0.224030 0.448070 1.037742
Zn9   Zn    Zn3+2 0.982570 0.224040 0.551920 1.062148
Zn10  Zn    Zn3+2 0.017430 0.775960 0.448080 1.051076
Zn11  Zn    Zn3+2 0.017430 0.224040 0.448080 1.048453
Zn12  Zn    Zn3+2 0.982570 0.775960 0.551920 1.050818
Zn13  Zn    Zn3+2 0.482570 0.724040 0.551920 1.050839
Zn14  Zn    Zn3+2 0.517430 0.275960 0.448080 1.062253
Zn15  Zn    Zn3+2 0.517430 0.724040 0.448080 1.051097
Zn16  Zn    Zn3+2 0.482570 0.275960 0.551920 1.047940
O1    O     O_3   0.000000 0.250010 0.500000 -0.515743
O2    O     O_3   0.000000 0.749990 0.500000 -0.519249
O3    O     O_3   0.500000 0.750010 0.500000 -0.519300
O4    O     O_3   0.500000 0.249990 0.500000 -0.514803
O5    O     O_R   0.012190 0.180680 0.463620 -0.621055
O6    O     O_R   0.987810 0.819320 0.536380 -0.623562
O7    O     O_R   0.987810 0.180680 0.536380 -0.642811
O8    O     O_R   0.012190 0.819320 0.463620 -0.624471
O9    O     O_R   0.512190 0.680680 0.463620 -0.624270
O10   O     O_R   0.487810 0.319320 0.536380 -0.620803
O11   O     O_R   0.487810 0.680680 0.536380 -0.623737
O12   O     O_R   0.512190 0.319320 0.463620 -0.642697
O13   O     O_R   0.951470 0.319330 0.463670 -0.634353
O14   O     O_R   0.048530 0.680670 0.536330 -0.641727
O15   O     O_R   0.048530 0.319330 0.536330 -0.641694
O16   O     O_R   0.951470 0.680670 0.463670 -0.641667
O17   O     O_R   0.451470 0.819330 0.463670 -0.641459
O18   O     O_R   0.548530 0.180670 0.536330 -0.633008
O19   O     O_R   0.548530 0.819330 0.536330 -0.641521
O20   O     O_R   0.451470 0.180670 0.463670 -0.641956
O21   O     O_R   0.902360 0.231840 0.536340 -0.594077
O22   O     O_R   0.097640 0.768160 0.463660 -0.612523
O23   O     O_R   0.097640 0.231840 0.463660 -0.605433
O24   O     O_R   0.902360 0.768160 0.536340 -0.612096
O25   O     O_R   0.402360 0.731840 0.536340 -0.612434
O26   O     O_R   0.597640 0.268160 0.463660 -0.594120
O27   O     O_R   0.597640 0.731840 0.463660 -0.612158
O28   O     O_R   0.402360 0.268160 0.536340 -0.602337
O29   O     O_R   0.133980 0.268190 0.536340 -0.619740
O30   O     O_R   0.866020 0.731810 0.463660 -0.613011
O31   O     O_R   0.866020 0.268190 0.463660 -0.647651
O32   O     O_R   0.133980 0.731810 0.536340 -0.612813
O33   O     O_R   0.633980 0.768190 0.536340 -0.613053
O34   O     O_R   0.366020 0.231810 0.463660 -0.634566
O35   O     O_R   0.366020 0.768190 0.463660 -0.612719
O36   O     O_R   0.633980 0.231810 0.536340 -0.647308
O37   O     O_R   0.038940 0.231840 0.638630 -0.606660
O38   O     O_R   0.961060 0.768160 0.361370 -0.618565
O39   O     O_R   0.961060 0.231840 0.361370 -0.612369
O40   O     O_R   0.038940 0.768160 0.638630 -0.618800
O41   O     O_R   0.538940 0.731840 0.638630 -0.618822
O42   O     O_R   0.461060 0.268160 0.361370 -0.606686
O43   O     O_R   0.461060 0.731840 0.361370 -0.618533
O44   O     O_R   0.538940 0.268160 0.638630 -0.612731
O45   O     O_R   0.099660 0.268190 0.638640 -0.629787
O46   O     O_R   0.900340 0.731810 0.361360 -0.628679
O47   O     O_R   0.900340 0.268190 0.361360 -0.659872
O48   O     O_R   0.099660 0.731810 0.638640 -0.628854
O49   O     O_R   0.599660 0.768190 0.638640 -0.628684
O50   O     O_R   0.400340 0.231810 0.361360 -0.627031
O51   O     O_R   0.400340 0.768190 0.361360 -0.628805
O52   O     O_R   0.599660 0.231810 0.638640 -0.660139
C1    C     C_R   0.999951 0.165741 0.499968 0.843407
C2    C     C_R   0.000011 0.834256 0.499992 0.854804
C3    C     C_R   0.500019 0.665744 0.500019 0.854803
C4    C     C_R   0.500037 0.334259 0.500030 0.843086
C5    C     C_R   0.999948 0.334242 0.500103 0.804285
C6    C     C_R   0.999986 0.665786 0.500014 0.778876
C7    C     C_R   0.500016 0.834217 0.499987 0.778597
C8    C     C_R   0.500087 0.165774 0.499923 0.802261
C9    C     C_R   0.859812 0.249958 0.499776 0.919632
C10   C     C_R   0.140013 0.749835 0.499847 0.898324
C11   C     C_R   0.140034 0.250190 0.499914 0.894567
C12   C     C_R   0.859982 0.749821 0.500147 0.898335
C13   C     C_R   0.359987 0.750165 0.500153 0.898385
C14   C     C_R   0.640187 0.250041 0.500224 0.919658
C15   C     C_R   0.640018 0.750178 0.499854 0.898221
C16   C     C_R   0.359952 0.249770 0.500126 0.888953
C17   C     C_R   0.083765 0.250234 0.668600 0.873997
C18   C     C_R   0.915515 0.750248 0.331385 0.848012
C19   C     C_R   0.915514 0.249745 0.331392 0.829324
C20   C     C_R   0.084478 0.750250 0.668603 0.847181
C21   C     C_R   0.584485 0.749752 0.668615 0.847641
C22   C     C_R   0.416226 0.249767 0.331401 0.874205
C23   C     C_R   0.415523 0.749751 0.331396 0.847497
C24   C     C_R   0.584492 0.250259 0.668608 0.828893
C25   C     C_R   0.887361 0.224841 0.228691 0.100102
C26   C     C_R   0.113817 0.775588 0.771254 0.065782
C27   C     C_R   0.090127 0.240306 0.771035 0.055910
C28   C     C_R   0.886295 0.775563 0.228745 0.065242
C29   C     C_R   0.386196 0.724419 0.228743 0.065429
C30   C     C_R   0.612697 0.275192 0.771299 0.099493
C31   C     C_R   0.613715 0.724432 0.771253 0.065580
C32   C     C_R   0.409721 0.259747 0.228910 0.056332
C33   C     C_R   0.855439 0.225842 0.163079 0.066160
C34   C     C_R   0.145712 0.774632 0.836873 0.035431
C35   C     C_R   0.123330 0.241080 0.836714 0.035515
C36   C     C_R   0.854400 0.774602 0.163128 0.035285
C37   C     C_R   0.354304 0.725378 0.163125 0.035331
C38   C     C_R   0.644639 0.274205 0.836913 0.065989
C39   C     C_R   0.645610 0.725391 0.836870 0.035363
C40   C     C_R   0.376487 0.258932 0.163234 0.035730
C41   C     C_R   0.817959 0.251401 0.131380 -0.034240
C42   C     C_R   0.182198 0.748773 0.868616 -0.062766
C43   C     C_R   0.182607 0.252889 0.868614 -0.059004
C44   C     C_R   0.817797 0.748758 0.131378 -0.062587
C45   C     C_R   0.317812 0.751235 0.131384 -0.062601
C46   C     C_R   0.682115 0.248646 0.868623 -0.034225
C47   C     C_R   0.682205 0.751237 0.868621 -0.062740
C48   C     C_R   0.317282 0.247028 0.131398 -0.059134
C49   C     C_R   0.812198 0.276036 0.165352 0.326299
C50   C     C_R   0.186947 0.723781 0.834688 0.283211
C51   C     C_R   0.208481 0.264350 0.834721 0.283798
C52   C     C_R   0.812930 0.723786 0.165296 0.283287
C53   C     C_R   0.313055 0.776224 0.165314 0.283310
C54   C     C_R   0.687858 0.223999 0.834661 0.326271
C55   C     C_R   0.687064 0.776213 0.834705 0.283210
C56   C     C_R   0.291509 0.235513 0.165348 0.282200
C57   C     C_R   0.843499 0.274556 0.230360 -0.295855
C58   C     C_R   0.155708 0.725224 0.769671 -0.260661
C59   C     C_R   0.175439 0.262914 0.769697 -0.253577
C60   C     C_R   0.844173 0.725233 0.230313 -0.260082
C61   C     C_R   0.344292 0.774778 0.230331 -0.260479
C62   C     C_R   0.656535 0.225465 0.769651 -0.297105
C63   C     C_R   0.655820 0.774767 0.769688 -0.260332
C64   C     C_R   0.324582 0.236984 0.230367 -0.250290
H1    H     H_    0.839402 0.293673 0.256096 0.203141
H2    H     H_    0.158852 0.705807 0.743935 0.222039
H3    H     H_    0.195607 0.271613 0.744018 0.228932
H4    H     H_    0.840938 0.705831 0.256044 0.222249
H5    H     H_    0.341141 0.794192 0.256069 0.222048
H6    H     H_    0.660618 0.206340 0.743923 0.202665
H7    H     H_    0.659049 0.794172 0.743958 0.222243
H8    H     H_    0.304498 0.228237 0.256092 0.235093
C65   C     C_R   0.881555 0.249505 0.262537 -0.073607
C66   C     C_R   0.118602 0.750570 0.737459 -0.084446
C67   C     C_R   0.116763 0.250930 0.737409 -0.088204
C68   C     C_R   0.881393 0.750563 0.262531 -0.084593
C69   C     C_R   0.381402 0.749433 0.262541 -0.084305
C70   C     C_R   0.618476 0.250513 0.737463 -0.073465
C71   C     C_R   0.618608 0.749435 0.737468 -0.084698
C72   C     C_R   0.383189 0.249061 0.262593 -0.090055
N1    N     N_R   0.722380 0.256043 0.031908 -0.074245
N2    N     N_R   0.277436 0.743277 0.968157 -0.110235
N3    N     N_R   0.274034 0.239197 0.967194 -0.111803
N4    N     N_R   0.722536 0.743305 0.031836 -0.110084
N5    N     N_R   0.222575 0.756733 0.031842 -0.110108
N6    N     N_R   0.777699 0.244014 0.968093 -0.073822
N7    N     N_R   0.777466 0.756690 0.968162 -0.110136
N8    N     N_R   0.225821 0.260678 0.032822 -0.111858
N9    N     N_R   0.690340 0.255060 0.970080 -0.111636
N10   N     N_R   0.309439 0.744167 0.029989 -0.111531
N11   N     N_R   0.305547 0.237593 0.028989 -0.105454
N12   N     N_R   0.690537 0.744201 0.970005 -0.111457
N13   N     N_R   0.190571 0.755844 0.970010 -0.111492
N14   N     N_R   0.809739 0.244997 0.029921 -0.111070
N15   N     N_R   0.809464 0.755793 0.029993 -0.111431
N16   N     N_R   0.194310 0.262283 0.971027 -0.105419
C73   C     C_R   0.717400 0.248942 0.937105 0.384447
C74   C     C_R   0.282607 0.750990 0.062899 0.387914
C75   C     C_R   0.281952 0.248239 0.062891 0.385609
C76   C     C_R   0.717405 0.750989 0.937102 0.387946
C77   C     C_R   0.217403 0.749020 0.937100 0.387852
C78   C     C_R   0.782679 0.251115 0.062896 0.384437
C79   C     C_R   0.782597 0.749005 0.062897 0.387976
C80   C     C_R   0.217906 0.251640 0.937123 0.385346
C81   C     C_R   0.952994 0.385023 0.450953 -0.126077
C82   C     C_R   0.043167 0.615215 0.552699 -0.113842
C83   C     C_R   0.045172 0.384931 0.551470 -0.147655
C84   C     C_R   0.956625 0.615071 0.448034 -0.112389
C85   C     C_R   0.457149 0.884814 0.447167 -0.112948
C86   C     C_R   0.544590 0.115039 0.551246 -0.139277
C87   C     C_R   0.543182 0.884928 0.552140 -0.111635
C88   C     C_R   0.457991 0.115157 0.446643 -0.129043
H9    H     H_    0.917161 0.372868 0.411290 0.168296
H10   H     H_    0.076526 0.627532 0.593775 0.197501
H11   H     H_    0.080956 0.372662 0.590845 0.202574
H12   H     H_    0.923329 0.627271 0.406766 0.197581
H13   H     H_    0.423962 0.872505 0.405975 0.197245
H14   H     H_    0.578189 0.127225 0.592444 0.166882
H15   H     H_    0.576265 0.872715 0.593513 0.197272
H16   H     H_    0.424819 0.127530 0.405587 0.200339
C89   C     C_R   0.952708 0.417489 0.451363 -0.086746
C90   C     C_R   0.043024 0.582749 0.553096 -0.007454
C91   C     C_R   0.044729 0.417405 0.552142 -0.050653
C92   C     C_R   0.956565 0.582604 0.448208 -0.005380
C93   C     C_R   0.457386 0.917284 0.446772 -0.006488
C94   C     C_R   0.544996 0.082566 0.550841 -0.089896
C95   C     C_R   0.543291 0.917397 0.551991 -0.005844
C96   C     C_R   0.458364 0.082671 0.446081 -0.046497
H17   H     H_    0.916492 0.429566 0.411958 0.166531
H18   H     H_    0.076809 0.570769 0.594428 0.179472
H19   H     H_    0.080746 0.429415 0.591863 0.186307
H20   H     H_    0.922671 0.570508 0.407095 0.178669
H21   H     H_    0.423815 0.929276 0.405329 0.179475
H22   H     H_    0.579093 0.070486 0.591831 0.166570
H23   H     H_    0.577026 0.929477 0.593226 0.178310
H24   H     H_    0.424606 0.070671 0.404738 0.189134
C97   C     C_R   0.998716 0.434051 0.501851 0.071755
C98   C     C_R   0.999708 0.566077 0.500820 0.075760
C99   C     C_R   0.500464 0.933947 0.499221 0.075460
C100  C     C_R   0.501686 0.066005 0.498355 0.069465
C101  C     C_R   0.999492 0.368488 0.500776 -0.035523
C102  C     C_R   0.999935 0.631596 0.500230 -0.069637
C103  C     C_R   0.500095 0.868414 0.499783 -0.070359
C104  C     C_R   0.500710 0.131559 0.499358 -0.037609
N17   N     N_R   0.042406 0.484612 0.550980 -0.127283
N18   N     N_R   0.955951 0.515528 0.451975 -0.130929
N19   N     N_R   0.955671 0.484558 0.452269 -0.139605
N20   N     N_R   0.042660 0.515589 0.550705 -0.125315
N21   N     N_R   0.542884 0.984499 0.549125 -0.132110
N22   N     N_R   0.459405 0.015444 0.448134 -0.126791
N23   N     N_R   0.459079 0.984464 0.448376 -0.125496
N24   N     N_R   0.543214 0.015471 0.548882 -0.140990
C105  C     C_R   0.501497 0.031594 0.498386 0.322407
C106  C     C_R   0.500802 0.968347 0.498891 0.343612
C107  C     C_R   0.999450 0.531688 0.501179 0.342730
C108  C     C_R   0.998882 0.468452 0.501771 0.322995
C109  C     C_R   0.121400 0.347806 0.430615 -0.223710
C110  C     C_R   0.882994 0.653627 0.576946 -0.226051
C111  C     C_R   0.741257 0.252438 0.290286 -0.232696
C112  C     C_R   0.115406 0.654143 0.421749 -0.225200
C113  C     C_R   0.616863 0.846296 0.422796 -0.225732
C114  C     C_R   0.366882 0.147664 0.554602 -0.228780
C115  C     C_R   0.384602 0.845848 0.578351 -0.226145
C116  C     C_R   0.758756 0.247582 0.709722 -0.232658
H25   H     H_    0.085647 0.354520 0.384639 0.215920
H26   H     H_    0.918973 0.647752 0.623380 0.216467
H27   H     H_    0.739379 0.271283 0.260671 0.215661
H28   H     H_    0.079103 0.648539 0.375307 0.216464
H29   H     H_    0.580891 0.852130 0.376334 0.216586
H30   H     H_    0.399101 0.137630 0.599171 0.214252
H31   H     H_    0.420853 0.851452 0.624820 0.216355
H32   H     H_    0.760637 0.228741 0.739345 0.215726
C117  C     C_R   0.147401 0.318599 0.438164 -0.260584
C118  C     C_R   0.855643 0.682583 0.567500 -0.265217
C119  C     C_R   0.745356 0.259573 0.346484 -0.121998
C120  C     C_R   0.143342 0.682972 0.431588 -0.264838
C121  C     C_R   0.644294 0.817358 0.432343 -0.265029
C122  C     C_R   0.344702 0.177323 0.553310 -0.252106
C123  C     C_R   0.356623 0.817029 0.568487 -0.265126
C124  C     C_R   0.754642 0.240440 0.653519 -0.121907
H33   H     H_    0.131632 0.303546 0.398055 0.191249
H34   H     H_    0.870642 0.698244 0.606626 0.189492
H35   H     H_    0.745569 0.283745 0.358890 0.195760
H36   H     H_    0.128442 0.698811 0.392746 0.189448
H37   H     H_    0.629361 0.801672 0.393266 0.189644
H38   H     H_    0.360216 0.189655 0.596641 0.190479
H39   H     H_    0.371443 0.801201 0.607333 0.189467
H40   H     H_    0.754423 0.216267 0.641119 0.195980
C125  C     C_R   0.194183 0.308956 0.496387 0.013206
C126  C     C_R   0.808549 0.691212 0.508659 0.012320
C127  C     C_R   0.748391 0.235856 0.386253 -0.014960
C128  C     C_R   0.190810 0.691272 0.490471 0.012198
C129  C     C_R   0.691381 0.808778 0.491222 0.012102
C130  C     C_R   0.301794 0.190805 0.496951 0.019794
C131  C     C_R   0.309220 0.808725 0.509571 0.012289
C132  C     C_R   0.751607 0.264152 0.613742 -0.015130
C133  C     C_R   0.214365 0.328689 0.548559 0.275350
C134  C     C_R   0.789386 0.670693 0.457779 0.277002
C135  C     C_R   0.747203 0.204389 0.369255 0.188340
C136  C     C_R   0.209814 0.670530 0.540987 0.277051
C137  C     C_R   0.710452 0.829327 0.542039 0.276940
C138  C     C_R   0.282553 0.174760 0.440487 0.276326
C139  C     C_R   0.290320 0.829453 0.459051 0.276973
C140  C     C_R   0.752805 0.295622 0.630733 0.188522
C141  C     C_R   0.188662 0.358698 0.540596 0.146077
C142  C     C_R   0.816579 0.640975 0.467625 0.149529
C143  C     C_R   0.743326 0.197139 0.312232 0.148110
C144  C     C_R   0.182066 0.640920 0.530714 0.148350
C145  C     C_R   0.683170 0.859027 0.532093 0.149832
C146  C     C_R   0.303103 0.144043 0.442008 0.141628
C147  C     C_R   0.318129 0.859046 0.469340 0.148480
C148  C     C_R   0.756697 0.302879 0.687761 0.148280
C149  C     C_R   0.141914 0.368470 0.480914 0.225771
C150  C     C_R   0.863683 0.632209 0.527957 0.228911
C151  C     C_R   0.740479 0.221408 0.272577 0.229987
C152  C     C_R   0.134501 0.632515 0.470356 0.227562
C153  C     C_R   0.636076 0.867745 0.471720 0.229094
C154  C     C_R   0.345219 0.130277 0.499776 0.238087
C155  C     C_R   0.365629 0.867458 0.529732 0.227476
C156  C     C_R   0.759548 0.278614 0.727426 0.229960
C157  C     C_R   0.277095 0.278360 0.499226 0.299425
C158  C     C_R   0.724404 0.721647 0.503782 0.294460
C159  C     C_R   0.694937 0.244017 0.444259 0.304751
C160  C     C_R   0.275335 0.721655 0.495847 0.294373
C161  C     C_R   0.775594 0.778352 0.496222 0.294157
C162  C     C_R   0.223046 0.221589 0.501307 0.320152
C163  C     C_R   0.224664 0.778348 0.504148 0.294721
C164  C     C_R   0.805062 0.255983 0.555739 0.304779
C165  C     C_R   0.303291 0.249718 0.499059 -0.206706
C166  C     C_R   0.696489 0.750230 0.500549 -0.187685
C167  C     C_R   0.696331 0.249633 0.500285 -0.184209
C168  C     C_R   0.303535 0.750220 0.499502 -0.187799
C169  C     C_R   0.803510 0.749768 0.499452 -0.187794
C170  C     C_R   0.196656 0.250217 0.500981 -0.187772
C171  C     C_R   0.196466 0.749782 0.500500 -0.187781
C172  C     C_R   0.803668 0.250367 0.499713 -0.184304
C173  C     C_R   0.275506 0.221270 0.498252 -0.075063
C174  C     C_R   0.722297 0.778680 0.497714 -0.064334
C175  C     C_R   0.751088 0.255590 0.556056 -0.063043
C176  C     C_R   0.277987 0.778667 0.502697 -0.064345
C177  C     C_R   0.777690 0.721317 0.502268 -0.064552
C178  C     C_R   0.223802 0.278689 0.500682 -0.063352
C179  C     C_R   0.222018 0.721335 0.497309 -0.064325
C180  C     C_R   0.748910 0.244412 0.443941 -0.063153
C181  C     C_R   0.016035 0.115021 0.462452 -0.164802
C182  C     C_R   0.984352 0.885007 0.537723 -0.195462
C183  C     C_R   0.983395 0.115002 0.537114 -0.180067
C184  C     C_R   0.016085 0.884975 0.462331 -0.173050
C185  C     C_R   0.516279 0.615029 0.462578 -0.173352
C186  C     C_R   0.483815 0.384948 0.537523 -0.163852
C187  C     C_R   0.484478 0.614989 0.537915 -0.195164
C188  C     C_R   0.516568 0.385029 0.462951 -0.179625
H41   H     H_    0.029143 0.127589 0.433819 0.187473
H42   H     H_    0.971582 0.872671 0.566881 0.191506
H43   H     H_    0.970359 0.127556 0.565798 0.177490
H44   H     H_    0.028757 0.872405 0.433365 0.187224
H45   H     H_    0.528939 0.627602 0.433586 0.187183
H46   H     H_    0.470676 0.372356 0.566105 0.188685
H47   H     H_    0.471641 0.627323 0.567003 0.191658
H48   H     H_    0.529663 0.372498 0.434292 0.177406
C189  C     C_R   0.016415 0.082396 0.462203 0.093541
C190  C     C_R   0.984224 0.917564 0.537972 0.079653
C191  C     C_R   0.982825 0.082378 0.537220 0.099758
C192  C     C_R   0.016632 0.917616 0.462160 0.082705
C193  C     C_R   0.516954 0.582389 0.462552 0.083565
C194  C     C_R   0.483402 0.417571 0.537818 0.093002
C195  C     C_R   0.484475 0.582432 0.538306 0.078622
C196  C     C_R   0.517107 0.417654 0.462894 0.100023
C197  C     C_R   0.999603 0.065878 0.499703 0.057285
C198  C     C_R   0.000367 0.934126 0.500093 0.072963
C199  C     C_R   0.500710 0.565874 0.500524 0.073138
C200  C     C_R   0.500261 0.434122 0.500395 0.057313
C201  C     C_R   0.999798 0.131448 0.499850 -0.058146
C202  C     C_R   0.000121 0.868540 0.500003 -0.060555
C203  C     C_R   0.500215 0.631460 0.500147 -0.060496
C204  C     C_R   0.500136 0.368552 0.500156 -0.058494
N25   N     N_R   0.021568 0.015515 0.553813 -0.127214
N26   N     N_R   0.978087 0.984485 0.445935 -0.121788
N27   N     N_R   0.977910 0.015447 0.445837 -0.117756
N28   N     N_R   0.021730 0.984553 0.553908 -0.130008
N29   N     N_R   0.522141 0.515475 0.554463 -0.126253
N30   N     N_R   0.478486 0.484526 0.446470 -0.125535
N31   N     N_R   0.478585 0.515487 0.446502 -0.125143
N32   N     N_R   0.522057 0.484511 0.554435 -0.118966
C205  C     C_R   0.500250 0.468463 0.500437 0.290159
C206  C     C_R   0.500439 0.531538 0.500499 0.308644
C207  C     C_R   0.000019 0.968462 0.499974 0.308385
C208  C     C_R   0.999670 0.031536 0.499778 0.290038
N33   N     N_3   0.924242 0.198419 0.260941 -0.400909
H49   H     H_    0.897418 0.178432 0.247001 0.221912
H50   H     H_    0.957391 0.196046 0.249299 0.206785
N34   N     N_3   0.077797 0.802237 0.738914 -0.406927
H51   H     H_    0.105264 0.821987 0.752822 0.192615
H52   H     H_    0.044730 0.805098 0.750546 0.210543
N35   N     N_3   0.029110 0.229284 0.738376 -0.376439
H53   H     H_    0.028375 0.206261 0.751408 0.199793
H54   H     H_    0.003655 0.243003 0.750799 0.240901
N36   N     N_3   0.922443 0.802196 0.261092 -0.405791
H55   H     H_    0.895071 0.821963 0.247189 0.195071
H56   H     H_    0.955523 0.805021 0.249460 0.210963
N37   N     N_3   0.422224 0.697771 0.261080 -0.405945
H57   H     H_    0.394763 0.678019 0.247168 0.194613
H58   H     H_    0.455293 0.694917 0.249450 0.210811
N38   N     N_3   0.575824 0.301614 0.739036 -0.401100
H59   H     H_    0.602660 0.321597 0.752950 0.222209
H60   H     H_    0.542691 0.304004 0.750696 0.205832
N39   N     N_3   0.577577 0.697796 0.738904 -0.406708
H61   H     H_    0.604957 0.678032 0.752805 0.193179
H62   H     H_    0.544498 0.694965 0.750535 0.210743
N40   N     N_3   0.470666 0.270874 0.261506 -0.376519
H63   H     H_    0.471238 0.293902 0.248409 0.199745
H64   H     H_    0.496187 0.257205 0.249095 0.240747
N41   N     N_R   0.261393 0.318571 0.609133 0.247471
O53   O     O_R   0.261453 0.290375 0.628102 -0.347560
O54   O     O_R   0.304780 0.337386 0.645521 -0.252714
N42   N     N_R   0.741724 0.679674 0.396633 0.247282
O55   O     O_R   0.740217 0.707561 0.375646 -0.347413
O56   O     O_R   0.699107 0.660138 0.361789 -0.258497
N43   N     N_R   0.746971 0.179889 0.408176 0.240494
O57   O     O_R   0.786572 0.179549 0.467440 -0.383023
O58   O     O_R   0.706500 0.158017 0.384585 -0.266278
N44   N     N_R   0.257810 0.679189 0.602205 0.247339
O59   O     O_R   0.259883 0.706990 0.623780 -0.347372
O60   O     O_R   0.300143 0.659439 0.636535 -0.257383
N45   N     N_R   0.758112 0.820399 0.603224 0.247308
O61   O     O_R   0.759692 0.792520 0.624277 -0.347489
O62   O     O_R   0.800658 0.839975 0.638035 -0.258758
N46   N     N_R   0.244390 0.189866 0.381682 0.247308
O63   O     O_R   0.196699 0.205130 0.371161 -0.331634
O64   O     O_R   0.258006 0.188834 0.338499 -0.304395
N47   N     N_R   0.242357 0.820801 0.397811 0.247366
O65   O     O_R   0.240255 0.792991 0.376258 -0.347104
O66   O     O_R   0.200074 0.840566 0.363442 -0.257255
N48   N     N_R   0.753035 0.320116 0.591802 0.240401
O67   O     O_R   0.713427 0.320454 0.532539 -0.383396
O68   O     O_R   0.793511 0.341987 0.615380 -0.266808
N49   N     N_R   0.208835 0.378526 0.593580 0.254662
O69   O     O_R   0.247590 0.400450 0.603994 -0.248237
O70   O     O_R   0.199135 0.370510 0.637680 -0.343060
N50   N     N_R   0.797272 0.620380 0.415866 0.256517
O71   O     O_R   0.759911 0.597967 0.407105 -0.257447
O72   O     O_R   0.806359 0.627937 0.371132 -0.342556
N51   N     N_R   0.741337 0.165225 0.294436 0.268474
O73   O     O_R   0.697172 0.155287 0.241421 -0.257077
O74   O     O_R   0.782216 0.145695 0.332307 -0.319093
N52   N     N_R   0.201312 0.620069 0.582081 0.256554
O75   O     O_R   0.237969 0.597467 0.589920 -0.249198
O76   O     O_R   0.192991 0.627507 0.627367 -0.341494
N53   N     N_R   0.702386 0.879652 0.583790 0.256580
O77   O     O_R   0.739678 0.902096 0.592505 -0.256931
O78   O     O_R   0.693276 0.872113 0.628513 -0.342799
N54   N     N_R   0.279282 0.126730 0.385128 0.267956
O79   O     O_R   0.221420 0.125361 0.346600 -0.258473
O80   O     O_R   0.315154 0.113132 0.370545 -0.346108
N55   N     N_R   0.299004 0.879873 0.417959 0.256885
O81   O     O_R   0.262377 0.902509 0.410024 -0.250080
O82   O     O_R   0.307438 0.872399 0.372765 -0.341130
N56   N     N_R   0.758698 0.334794 0.705551 0.268419
O83   O     O_R   0.802877 0.344734 0.758556 -0.257207
O84   O     O_R   0.717819 0.354325 0.667682 -0.319806
N57   N     N_R   0.301743 0.307006 0.492261 0.213702
O85   O     O_R   0.324800 0.327364 0.536994 -0.336510
O86   O     O_R   0.305361 0.311654 0.443030 -0.384543
N58   N     N_R   0.701068 0.693210 0.513468 0.212854
O87   O     O_R   0.680470 0.671446 0.471453 -0.339682
O88   O     O_R   0.696312 0.690028 0.562348 -0.385686
N59   N     N_R   0.639003 0.236894 0.388212 0.217149
O89   O     O_R   0.604421 0.214807 0.387816 -0.373757
O90   O     O_R   0.622532 0.252407 0.337373 -0.380649
N60   N     N_R   0.298385 0.693254 0.485725 0.212827
O91   O     O_R   0.303102 0.690253 0.436793 -0.384098
O92   O     O_R   0.318846 0.671353 0.527443 -0.338087
N61   N     N_R   0.798932 0.806790 0.486543 0.213089
O93   O     O_R   0.819505 0.828558 0.528551 -0.339137
O94   O     O_R   0.803700 0.809975 0.437670 -0.384118
N62   N     N_R   0.198209 0.192889 0.508002 0.217980
O95   O     O_R   0.191786 0.188729 0.555652 -0.390347
O96   O     O_R   0.180050 0.171345 0.465651 -0.335246
N63   N     N_R   0.201599 0.806753 0.514239 0.212667
O97   O     O_R   0.181272 0.828677 0.472569 -0.338695
O98   O     O_R   0.196793 0.809751 0.563118 -0.385845
N64   N     N_R   0.860995 0.263103 0.611787 0.217132
O99   O     O_R   0.895584 0.285188 0.612187 -0.373790
O100  O     O_R   0.877456 0.247594 0.662627 -0.380775
N65   N     N_3   0.035200 0.065955 0.425116 -0.403573
H65   H     H_    0.076570 0.055472 0.455606 0.211482
H66   H     H_    0.042825 0.081435 0.397710 0.219110
N66   N     N_3   0.966025 0.933746 0.575562 -0.418061
H67   H     H_    0.922396 0.926568 0.562080 0.228977
H68   H     H_    0.994572 0.926995 0.621801 0.213086
N67   N     N_3   0.963954 0.065918 0.574239 -0.411831
H69   H     H_    0.922565 0.055439 0.543702 0.214561
H70   H     H_    0.956341 0.081383 0.601653 0.206223
N68   N     N_3   0.034964 0.934063 0.424677 -0.407268
H71   H     H_    0.076409 0.944578 0.454890 0.213329
H72   H     H_    0.042302 0.918580 0.397090 0.219507
N69   N     N_3   0.535392 0.565951 0.425175 -0.410340
H73   H     H_    0.576868 0.555507 0.455458 0.211723
H74   H     H_    0.542703 0.581431 0.397545 0.218073
N70   N     N_3   0.464555 0.433978 0.574887 -0.401967
H75   H     H_    0.423194 0.444465 0.544382 0.215959
H76   H     H_    0.456892 0.418475 0.602232 0.220513
N71   N     N_3   0.466305 0.566243 0.575938 -0.414825
H77   H     H_    0.422643 0.573351 0.562399 0.230768
H78   H     H_    0.494805 0.573056 0.622153 0.214959
N72   N     N_3   0.536036 0.434148 0.425959 -0.412519
H79   H     H_    0.577410 0.444624 0.456551 0.211326
H80   H     H_    0.543692 0.418705 0.398544 0.206700
N73   N     N_3   0.859167 0.200435 0.128009 -0.403164
H81   H     H_    0.844221 0.180130 0.138810 0.234091
H82   H     H_    0.904049 0.197522 0.140462 0.211287
N74   N     N_3   0.142793 0.800305 0.871895 -0.408562
H83   H     H_    0.158369 0.820364 0.861061 0.208494
H84   H     H_    0.098009 0.803670 0.859431 0.215244
N75   N     N_3   0.097789 0.229104 0.871570 -0.406322
H85   H     H_    0.086671 0.205695 0.860049 0.209394
H86   H     H_    0.058644 0.241556 0.859562 0.221114
N76   N     N_3   0.857435 0.800258 0.128113 -0.408008
H87   H     H_    0.841950 0.820334 0.138951 0.209888
H88   H     H_    0.902235 0.803592 0.140578 0.215682
N77   N     N_3   0.357230 0.699708 0.128100 -0.408221
H89   H     H_    0.341658 0.679646 0.138930 0.209440
H90   H     H_    0.402016 0.696347 0.140566 0.215484
N78   N     N_3   0.640934 0.299624 0.871972 -0.403183
H91   H     H_    0.655879 0.319921 0.861146 0.234263
H92   H     H_    0.596058 0.302544 0.859534 0.210739
N79   N     N_3   0.642582 0.699733 0.871883 -0.408273
H93   H     H_    0.658074 0.679659 0.861044 0.209075
H94   H     H_    0.597784 0.696394 0.859418 0.215458
N80   N     N_3   0.401915 0.270960 0.128311 -0.406384
H95   H     H_    0.412896 0.294385 0.139771 0.209427
H96   H     H_    0.441126 0.258571 0.140323 0.221022
N81   N     N_R   0.776248 0.303096 0.134892 0.226000
O101  O     O_R   0.749463 0.317873 0.159210 -0.336691
O102  O     O_R   0.776556 0.315440 0.087676 -0.342332
N82   N     N_R   0.221376 0.696309 0.865173 0.223791
O103  O     O_R   0.247174 0.680686 0.840780 -0.306584
O104  O     O_R   0.220303 0.684442 0.912332 -0.345479
N83   N     N_R   0.267382 0.278338 0.865313 0.227645
O105  O     O_R   0.300896 0.276286 0.840729 -0.308684
O106  O     O_R   0.284376 0.296653 0.912838 -0.335827
N84   N     N_R   0.778373 0.696329 0.134801 0.223831
O107  O     O_R   0.752509 0.680736 0.159192 -0.306434
O108  O     O_R   0.779383 0.684443 0.087633 -0.345376
N85   N     N_R   0.278622 0.803695 0.134832 0.223768
O109  O     O_R   0.252818 0.819313 0.159224 -0.306464
O110  O     O_R   0.279698 0.815567 0.087678 -0.345853
N86   N     N_R   0.723811 0.196943 0.865135 0.225648
O111  O     O_R   0.750583 0.182155 0.840813 -0.337340
O112  O     O_R   0.723520 0.184611 0.912369 -0.343409
N87   N     N_R   0.721614 0.803672 0.865202 0.223814
O113  O     O_R   0.747471 0.819271 0.840809 -0.306669
O114  O     O_R   0.720604 0.815553 0.912375 -0.345278
N88   N     N_R   0.232687 0.221436 0.134827 0.228584
O115  O     O_R   0.199261 0.223360 0.159528 -0.301280
O116  O     O_R   0.215708 0.203163 0.087245 -0.335098
N89   N     N_R   0.114113 0.398759 0.470384 0.222275
O117  O     O_R   0.063226 0.404301 0.419410 -0.377483
O118  O     O_R   0.140670 0.421624 0.509018 -0.304573
N90   N     N_R   0.892944 0.602212 0.540523 0.219042
O119  O     O_R   0.869584 0.579269 0.501351 -0.324577
O120  O     O_R   0.942040 0.597024 0.593540 -0.385947
N91   N     N_R   0.737797 0.214959 0.214927 0.234840
O121  O     O_R   0.710372 0.234118 0.168338 -0.347333
O122  O     O_R   0.767243 0.191606 0.210369 -0.351431
N92   N     N_R   0.104506 0.602689 0.457405 0.220379
O123  O     O_R   0.055020 0.597889 0.404529 -0.382259
O124  O     O_R   0.127479 0.579540 0.496082 -0.312992
N93   N     N_R   0.606738 0.897726 0.459042 0.219385
O125  O     O_R   0.557795 0.902909 0.405887 -0.385368
O126  O     O_R   0.629889 0.920663 0.498259 -0.324101
N94   N     N_R   0.364052 0.098381 0.504080 0.231381
O127  O     O_R   0.415151 0.089306 0.551304 -0.382582
O128  O     O_R   0.326730 0.077378 0.466761 -0.282751
N95   N     N_R   0.395673 0.897273 0.542711 0.220051
O129  O     O_R   0.444954 0.902120 0.595752 -0.383308
O130  O     O_R   0.372960 0.920365 0.503851 -0.314621
N96   N     N_R   0.762250 0.285070 0.785084 0.234959
O131  O     O_R   0.789682 0.265914 0.831676 -0.347019
O132  O     O_R   0.732821 0.308430 0.789649 -0.351349

loop_
_geom_bond_atom_site_label_1
_geom_bond_atom_site_label_2
_geom_bond_distance
_ccdc_geom_bond_type
N67   H69   1.045571 S    
N33   H49   1.044933 S    
N5    C74   1.356532 A    
N51   O74   1.301215 A    
C188  C196  1.401751 A    
N91   O121  1.301334 A    
C142  C150  1.421372 A    
Zn5   O51   1.923669 S    
N74   H83   1.044918 S    
C42   C50   1.414528 A    
C25   C65   1.413697 A    
C87   C95   1.395007 A    
O49   C21   1.285046 A    
C135  C143  1.416159 A    
C85   C93   1.395110 A    
C200  C205  1.475409 S    
C83   H11   1.081895 S    
N54   O79   1.301272 A    
N46   O64   1.301359 A    
C196  N72   1.438230 S    
N68   H72   1.045689 S    
N83   O106  1.301454 A    
C62   C70   1.401310 A    
C182  C202  1.400604 A    
O10   C4    1.280916 A    
N38   H59   1.044936 S    
C84   H12   1.082310 S    
C43   C80   1.474555 S    
C33   N73   1.436280 S    
N34   H51   1.044934 S    
C90   C98   1.405795 A    
N79   H93   1.044918 S    
Zn2   O48   1.923667 S    
N90   O119  1.300319 A    
C189  N65   1.438233 S    
C49   N81   1.439176 S    
C96   H24   1.082609 S    
N2    N10   1.330577 A    
Zn16  O28   1.935898 S    
C61   C69   1.401465 A    
C114  C122  1.391716 A    
Zn4   O2    1.938325 S    
C139  C147  1.417688 A    
C163  C176  1.400897 A    
N52   O76   1.300637 A    
C118  C126  1.396727 A    
C92   C98   1.406066 A    
C31   C39   1.411843 A    
Zn15  O27   1.935898 S    
C12   C169  1.454440 S    
C52   N84   1.439532 S    
C145  N53   1.431771 S    
O34   C16   1.267099 A    
C117  H33   1.083580 S    
C184  H44   1.083333 S    
N55   O82   1.300636 A    
C25   C33   1.411785 A    
C45   C74   1.473036 S    
C44   C52   1.414522 A    
C164  N64   1.439532 S    
O22   C10   1.274322 A    
C121  H37   1.083603 S    
N5    N13   1.330577 A    
C137  N45   1.441018 S    
Zn12  O24   1.935898 S    
C110  C150  1.405001 A    
C28   C68   1.413619 A    
C112  C120  1.390718 A    
Zn16  O4    1.937113 S    
N32   C205  1.356902 A    
Zn1   O13   1.922487 S    
N80   H95   1.044996 S    
C86   C104  1.402666 A    
O43   C23   1.279513 A    
C19   C65   1.480763 S    
N25   N28   1.330247 A    
Zn3   O15   1.923002 S    
C60   C68   1.401454 A    
Zn4   O16   1.923001 S    
O45   C17   1.283632 A    
C150  N90   1.445737 S    
N58   O87   1.300240 A    
N50   O72   1.300750 A    
Zn7   O3    1.938325 S    
C28   C36   1.411842 A    
N41   O53   1.301090 A    
C160  N60   1.437858 S    
C40   N80   1.436146 S    
N43   O57   1.300947 A    
C62   H6    1.083330 S    
Zn8   O34   1.935382 S    
C187  C195  1.398811 A    
O11   C3    1.281243 A    
N82   O103  1.301479 A    
C171  C179  1.412196 A    
Zn9   O21   1.936346 S    
C89   H17   1.082651 S    
N47   O66   1.301170 A    
C31   C71   1.413619 A    
N81   O102  1.301408 A    
C187  C203  1.400632 A    
C29   C69   1.413610 A    
C115  C123  1.390705 A    
N86   O111  1.301466 A    
N42   O56   1.301220 A    
N39   H61   1.044931 S    
N45   O61   1.301053 A    
C30   C38   1.411788 A    
Zn10  O22   1.936346 S    
C157  C165  1.406807 A    
C100  C105  1.478422 S    
C141  C149  1.420537 A    
N73   H82   1.044939 S    
N49   O69   1.301043 A    
C138  C146  1.416539 A    
N72   H79   1.045570 S    
C145  C153  1.421374 A    
Zn10  O2    1.936401 S    
O52   C24   1.285640 A    
N11   C75   1.357317 A    
C18   C68   1.480745 S    
C92   H20   1.082594 S    
C130  C173  1.484050 S    
N76   H87   1.044918 S    
C86   H14   1.083171 S    
C42   C77   1.473029 S    
C95   H23   1.082587 S    
C26   C34   1.411882 A    
C158  C177  1.400789 A    
C172  C180  1.411260 A    
N92   O123  1.301740 A    
Zn5   O35   1.934963 S    
O37   C17   1.280120 A    
N85   O110  1.301445 A    
N40   H63   1.044895 S    
C33   C41   1.409646 A    
C123  C131  1.396658 A    
C147  C155  1.421323 A    
C124  C132  1.399449 A    
C156  N96   1.438657 S    
N64   O100  1.300861 A    
O27   C15   1.274160 A    
C148  N56   1.434711 S    
C36   N76   1.436378 S    
C120  C128  1.396672 A    
C40   C48   1.410839 A    
C121  C129  1.396690 A    
C82   H10   1.082340 S    
N31   C206  1.356862 A    
O8    C2    1.280978 A    
N61   O93   1.300241 A    
C182  C190  1.398778 A    
N57   O85   1.300220 A    
C188  C204  1.400692 A    
N67   H70   1.045681 S    
C3    C203  1.472977 S    
O13   C5    1.280922 A    
C5    C101  1.471518 S    
N91   O122  1.301103 A    
N71   H78   1.045622 S    
O16   C6    1.281061 A    
O14   C6    1.280729 A    
N17   C108  1.357758 A    
O40   C20   1.279510 A    
C44   C79   1.472965 S    
Zn13  O41   1.924872 S    
C193  C199  1.414240 A    
N47   O65   1.301061 A    
C2    C202  1.472973 S    
Zn12  O6    1.922129 S    
C56   C64   1.399743 A    
C140  N48   1.437610 S    
Zn16  O44   1.925029 S    
C58   C66   1.401461 A    
C88   C104  1.400943 A    
N84   O108  1.301445 A    
N36   H55   1.044932 S    
C185  C193  1.402449 A    
O17   C7    1.280856 A    
C161  N61   1.437898 S    
N75   H85   1.044994 S    
C57   C65   1.401310 A    
N66   H67   1.045665 S    
Zn5   O17   1.922487 S    
N6    C73   1.356505 A    
C63   C71   1.401452 A    
O9    C3    1.280992 A    
N27   C208  1.356836 A    
C128  C136  1.414190 A    
C143  C151  1.416419 A    
O35   C13   1.268488 A    
C129  C137  1.414197 A    
C193  N69   1.438165 S    
N13   C77   1.357370 A    
C8    C104  1.470242 S    
C131  C139  1.414177 A    
C140  C148  1.416159 A    
C144  N52   1.431740 S    
N89   O117  1.301732 A    
C170  C178  1.412627 A    
N30   N31   1.330184 A    
C165  C173  1.412936 A    
N24   C105  1.357729 A    
N53   O78   1.300689 A    
C61   H5    1.083461 S    
C27   C35   1.412856 A    
C32   N40   1.435466 S    
O44   C24   1.279527 A    
C32   C40   1.412841 A    
C119  H35   1.083381 S    
C24   C70   1.480772 S    
C26   C66   1.413612 A    
C127  C135  1.413248 A    
N9    C73   1.357460 A    
O38   C18   1.278980 A    
C191  C197  1.414001 A    
C144  C152  1.421277 A    
Zn10  O8    1.922487 S    
C186  C204  1.400961 A    
Zn11  O5    1.922128 S    
O5    C1    1.281062 A    
N62   O95   1.301222 A    
C116  C124  1.392365 A    
N3    N11   1.330813 A    
C96   C100  1.406121 A    
C111  C151  1.402151 A    
C125  C178  1.485835 S    
C15   C166  1.454416 S    
C163  N63   1.437879 S    
C127  C180  1.486505 S    
N95   O129  1.301756 A    
C11   C170  1.453616 S    
C136  C144  1.417683 A    
C154  N94   1.440214 S    
C34   N74   1.436371 S    
N77   H90   1.044963 S    
C132  C175  1.486509 S    
C58   H2    1.083459 S    
C38   N78   1.436280 S    
C147  N55   1.431722 S    
C133  C141  1.417666 A    
C190  N66   1.433049 S    
N29   N32   1.330317 A    
C50   N82   1.439526 S    
N16   C80   1.357337 A    
C35   N75   1.436160 S    
C126  C134  1.414225 A    
C183  C191  1.401707 A    
N34   H52   1.045020 S    
C23   C69   1.480795 S    
C46   C73   1.473051 S    
C151  N91   1.438656 S    
N48   O67   1.300946 A    
C185  H45   1.083330 S    
C164  C172  1.408072 A    
Zn15  O9    1.922128 S    
N6    N14   1.330647 A    
C141  N49   1.431782 S    
C137  C145  1.417621 A    
C187  H47   1.083620 S    
N43   O58   1.301133 A    
N74   H84   1.044965 S    
C35   C43   1.410875 A    
N93   O126  1.300272 A    
C28   N36   1.435784 S    
Zn1   O1    1.939342 S    
C110  H26   1.082418 S    
Zn2   O14   1.922488 S    
Zn6   O36   1.934959 S    
N54   O80   1.300077 A    
C29   C37   1.411884 A    
N23   C106  1.357896 A    
O30   C12   1.268468 A    
C161  C174  1.400791 A    
C39   N79   1.436374 S    
C21   C71   1.480737 S    
C195  N71   1.433043 S    
C159  C167  1.408075 A    
C4    C204  1.473344 S    
C181  C201  1.400871 A    
C83   C101  1.402351 A    
O39   C19   1.279517 A    
C63   H7    1.083461 S    
N88   O115  1.301481 A    
C194  C200  1.413983 A    
C45   C53   1.414529 A    
N70   H75   1.045566 S    
N90   O120  1.301868 A    
C25   N33   1.435723 S    
N59   O90   1.300864 A    
C47   C76   1.472959 S    
C49   C57   1.399724 A    
N29   C206  1.356905 A    
O6    C2    1.281257 A    
C149  N89   1.444724 S    
O18   C8    1.279872 A    
N37   H58   1.045020 S    
C51   C59   1.399776 A    
C27   C67   1.412519 A    
C93   C99   1.405938 A    
C143  N51   1.434709 S    
C30   N38   1.435721 S    
C158  C166  1.406629 A    
N19   C108  1.357695 A    
C17   C67   1.480418 S    
Zn13  O25   1.936346 S    
C41   C49   1.414383 A    
O50   C22   1.283489 A    
N21   N24   1.330698 A    
Zn15  O3    1.937112 S    
C86   C94   1.395261 A    
C7    C103  1.469233 S    
Zn3   O1    1.938325 S    
O41   C21   1.278978 A    
N22   C105  1.357822 A    
C163  C171  1.406610 A    
N94   O127  1.301475 A    
C59   H3    1.083529 S    
C131  C176  1.485736 S    
C16   C165  1.454639 S    
C60   H4    1.083460 S    
N61   O94   1.301125 A    
C87   H15   1.082362 S    
N56   O83   1.301158 A    
Zn3   O45   1.923666 S    
C29   N37   1.435780 S    
C94   H22   1.082646 S    
Zn4   O46   1.923668 S    
C85   H13   1.082371 S    
N78   H91   1.044943 S    
N87   O114  1.301444 A    
N96   O131  1.301332 A    
C91   C97   1.405848 A    
C181  C189  1.401754 A    
N65   H66   1.045694 S    
N60   O91   1.301114 A    
Zn9   O7    1.922488 S    
C88   H16   1.082071 S    
C37   N77   1.436373 S    
C89   C97   1.405748 A    
C199  C206  1.475209 S    
N80   H96   1.044916 S    
N35   H53   1.044915 S    
C109  C149  1.404312 A    
N15   C79   1.357367 A    
C122  C130  1.397218 A    
N58   O88   1.301123 A    
C81   H9    1.083096 S    
C132  C140  1.413247 A    
C136  N44   1.440968 S    
C115  C155  1.404939 A    
O12   C4    1.281448 A    
C116  C156  1.402151 A    
C142  N50   1.431817 S    
N7    N15   1.330567 A    
C56   N88   1.439636 S    
N82   O104  1.301445 A    
C9    C172  1.454167 S    
Zn16  O10   1.922129 S    
C10   C171  1.454494 S    
Zn14  O42   1.924874 S    
C81   C101  1.403027 A    
Zn13  O3    1.936402 S    
N39   H62   1.045017 S    
N63   O97   1.300205 A    
C118  H34   1.083624 S    
Zn14  O4    1.936401 S    
N87   O113  1.301483 A    
C47   C55   1.414522 A    
N46   O63   1.300799 A    
N86   O112  1.301408 A    
C13   C168  1.454487 S    
C181  H41   1.083347 S    
C184  C202  1.401623 A    
N68   H71   1.045567 S    
Zn1   O31   1.934963 S    
C122  H38   1.083451 S    
N30   C205  1.356814 A    
Zn2   O32   1.934959 S    
O21   C9    1.273686 A    
C94   C100  1.406102 A    
C184  C192  1.402474 A    
Zn6   O18   1.922488 S    
C53   N85   1.439524 S    
O23   C11   1.275074 A    
N71   H77   1.045665 S    
C189  C197  1.414093 A    
N73   H81   1.044940 S    
C130  C138  1.415219 A    
N60   O92   1.300200 A    
C146  N54   1.436358 S    
N72   H80   1.045682 S    
N14   C78   1.357465 A    
N7    C76   1.356520 A    
O25   C13   1.274319 A    
O51   C23   1.285535 A    
C125  C133  1.414312 A    
O29   C11   1.267198 A    
C119  C127  1.399449 A    
N76   H88   1.044967 S    
O42   C22   1.280233 A    
C82   C90   1.394863 A    
C139  N47   1.440970 S    
N75   H86   1.044945 S    
C138  N46   1.439933 S    
C135  N43   1.437612 S    
N52   O75   1.301060 A    
N92   O124  1.300161 A    
C192  N68   1.438157 S    
Zn9   O37   1.924872 S    
N40   H64   1.044896 S    
C194  N70   1.438232 S    
N26   C207  1.356923 A    
Zn11  O39   1.925030 S    
N10   C74   1.357371 A    
N17   N20   1.330951 A    
C54   N86   1.439176 S    
N21   C106  1.357561 A    
Zn11  O1    1.937112 S    
C48   C56   1.414624 A    
C55   C63   1.399880 A    
C14   C167  1.454159 S    
Zn15  O43   1.925030 S    
C186  C194  1.401709 A    
C53   C61   1.399891 A    
O28   C16   1.276047 A    
C126  C177  1.485709 S    
N44   O60   1.301169 A    
C52   C60   1.399881 A    
C152  N92   1.445874 S    
N44   O59   1.301067 A    
Zn5   O3    1.939342 S    
C64   H8    1.083509 S    
C164  C175  1.402812 A    
Zn6   O4    1.939342 S    
C97   C108  1.477993 S    
C109  H25   1.082394 S    
O33   C15   1.268465 A    
N20   C107  1.357838 A    
C160  C179  1.400885 A    
C111  C119  1.392363 A    
C167  C175  1.411252 A    
C93   H21   1.082586 S    
C134  C142  1.417588 A    
Zn3   O29   1.935378 S    
C88   C96   1.395850 A    
C27   N35   1.435490 S    
N12   C76   1.357364 A    
C162  C170  1.405656 A    
C110  C118  1.390735 A    
C155  N95   1.445941 S    
C161  C169  1.406671 A    
C95   C99   1.406154 A    
N50   O71   1.300993 A    
C153  N93   1.445825 S    
N51   O73   1.301157 A    
N41   O54   1.301160 A    
N1    N9    1.330645 A    
O48   C20   1.285537 A    
C123  H39   1.083580 S    
C148  C156  1.416418 A    
N4    N12   1.330566 A    
Zn8   O50   1.923668 S    
C51   N83   1.439620 S    
Zn2   O2    1.939342 S    
C198  C207  1.475194 S    
O7    C1    1.281302 A    
O26   C14   1.273682 A    
C196  C200  1.414115 A    
N42   O55   1.301051 A    
N63   O98   1.301119 A    
N53   O77   1.301049 A    
N26   N27   1.330248 A    
N83   O105  1.301509 A    
N78   H92   1.044939 S    
C162  C173  1.400490 A    
Zn4   O30   1.935382 S    
N45   O62   1.301200 A    
C186  H46   1.083344 S    
Zn8   O4    1.938325 S    
C117  C125  1.396967 A    
C6    C102  1.468945 S    
C160  C168  1.406557 A    
N62   O96   1.300754 A    
C91   H19   1.082657 S    
N49   O70   1.300639 A    
C83   C91   1.395403 A    
C162  N62   1.439776 S    
C84   C92   1.394878 A    
N2    C77   1.356531 A    
Zn7   O49   1.923666 S    
C87   C103  1.401524 A    
C1    C201  1.473348 S    
C115  H31   1.082326 S    
N85   O109  1.301481 A    
C109  C117  1.390692 A    
O32   C10   1.268494 A    
C22   C72   1.480362 S    
O20   C8    1.282457 A    
N69   H74   1.045689 S    
C36   C44   1.409936 A    
N38   H60   1.044984 S    
C37   C45   1.409954 A    
N95   O130  1.300164 A    
C48   C75   1.474462 S    
O36   C14   1.268777 A    
C185  C203  1.401592 A    
N77   H89   1.044916 S    
C90   H18   1.082591 S    
Zn14  O26   1.936346 S    
C183  H43   1.083287 S    
C112  C152  1.404910 A    
Zn6   O52   1.923667 S    
N64   O99   1.301287 A    
C169  C177  1.412198 A    
N35   H54   1.044956 S    
C190  C198  1.411642 A    
C134  N42   1.441037 S    
Zn1   O47   1.923669 S    
C20   C66   1.480791 S    
C182  H42   1.083624 S    
N48   O68   1.301135 A    
N57   O86   1.301100 A    
C159  N59   1.439534 S    
N25   C208  1.356885 A    
C31   N39   1.435786 S    
N1    C78   1.356505 A    
C38   C46   1.409640 A    
C158  N58   1.437900 S    
Zn7   O33   1.935378 S    
N18   C107  1.357495 A    
C192  C198  1.414207 A    
N55   O81   1.301066 A    
N4    C79   1.356520 A    
C191  N67   1.438231 S    
N18   N19   1.330616 A    
C59   C67   1.401394 A    
C30   C70   1.413701 A    
N8    C75   1.356913 A    
N93   O125  1.301855 A    
C133  N41   1.441012 S    
N3    C80   1.356925 A    
N33   H50   1.044981 S    
C183  C201  1.400779 A    
N84   O107  1.301480 A    
C98   C107  1.477519 S    
C114  C154  1.403428 A    
O24   C12   1.274177 A    
N69   H73   1.045565 S    
N79   H94   1.044967 S    
Zn11  O23   1.935898 S    
C39   C47   1.409935 A    
Zn12  O40   1.925029 S    
N88   O116  1.301461 A    
C166  C174  1.412158 A    
C43   C51   1.414647 A    
Zn9   O1    1.936402 S    
O15   C5    1.282128 A    
N70   H76   1.045700 S    
N89   O118  1.300245 A    
C128  C179  1.485748 S    
C129  C174  1.485703 S    
C114  H30   1.082561 S    
O31   C9    1.268774 A    
C157  N57   1.437698 S    
C41   C78   1.473065 S    
O46   C18   1.285046 A    
N37   H57   1.044935 S    
C57   H1    1.083332 S    
C157  C178  1.400216 A    
C120  H36   1.083580 S    
O47   C19   1.285643 A    
C159  C180  1.402816 A    
C82   C102  1.401761 A    
C64   C72   1.401441 A    
Zn7   O19   1.923002 S    
C146  C154  1.418691 A    
O19   C7    1.281085 A    
C55   N87   1.439534 S    
C124  H40   1.083377 S    
Zn8   O20   1.923001 S    
C197  C208  1.475414 S    
C111  H27   1.082730 S    
N66   H68   1.045623 S    
C85   C103  1.401788 A    
N94   O128  1.301128 A    
C113  C121  1.390712 A    
C195  C199  1.411613 A    
C168  C176  1.412179 A    
N22   N23   1.331058 A    
N56   O84   1.301211 A    
C32   C72   1.412453 A    
C81   C89   1.394958 A    
C84   C102  1.401487 A    
N96   O132  1.301104 A    
N65   H65   1.045569 S    
Zn10  O38   1.924874 S    
N36   H56   1.045019 S    
C112  H28   1.082331 S    
C34   C42   1.409953 A    
C113  C153  1.404983 A    
N59   O89   1.301288 A    
C46   C54   1.414383 A    
N8    N16   1.330827 A    
C99   C106  1.478014 S    
Zn12  O2    1.937113 S    
C116  H32   1.082728 S    
Zn13  O11   1.922488 S    
C188  H48   1.083291 S    
C50   C58   1.399890 A    
Zn14  O12   1.922487 S    
N81   O101  1.301465 A    
C113  H29   1.082377 S    
C54   C62   1.399728 A    
N28   C207  1.356841 A    
C26   N34   1.435782 S    
