data_mof_unit_45310.cif
_audit_creation_date              2012-12-10T18:10:25-0500
_audit_creation_method            fapswitch 2.2
_symmetry_space_group_name_H-M    P1
_symmetry_Int_Tables_number       1
_space_group_crystal_system       triclinic
_cell_length_a                    10.753529
_cell_length_b                    9.529217
_cell_length_c                    15.813426
_cell_angle_alpha                 89.236337
_cell_angle_beta                  90.269358
_cell_angle_gamma                 90.22535
_cell_volume                      1620.27066272

loop_
_atom_site_label
_atom_site_type_symbol
_atom_type_description
_atom_site_fract_x
_atom_site_fract_y
_atom_site_fract_z
_atom_type_partial_charge
C1    C     C_R   0.260276 0.499641 0.498663 0.798569
C2    C     C_3   0.931378 0.555769 0.585641 0.240362
C3    C     C_3   0.071403 0.346563 0.493040 -0.346119
C4    C     C_3   0.122630 0.498977 0.498221 0.007865
C5    C     C_3   0.878406 0.498769 0.499680 -0.123760
C6    C     C_R   0.499032 0.500773 0.340510 0.881454
C7    C     C_3   0.929182 0.347201 0.487724 -0.341919
C8    C     C_3   0.627769 0.084016 0.496132 -0.248482
C9    C     C_3   0.625764 0.919071 0.483209 -0.171926
C10   C     C_3   0.426977 0.070271 0.575022 0.317984
C11   C     C_3   0.463647 0.912273 0.586030 0.344268
C12   C     C_3   0.628753 0.544047 0.950704 -0.350782
C13   C     C_3   0.436292 0.085570 0.424998 -0.285268
C14   C     C_3   0.418723 0.918665 0.433472 -0.342030
C15   C     C_R   0.739854 0.499902 0.499947 0.940874
C16   C     C_R   0.498016 0.499661 0.659518 0.925494
C17   C     C_3   0.401947 0.608166 0.047517 -0.373379
C18   C     C_3   0.466011 0.354233 0.050348 -0.397433
C19   C     C_3   0.465905 0.353433 0.952438 -0.323657
C20   C     C_3   0.401619 0.607323 0.949594 -0.351644
C21   C     C_1   0.497757 0.499771 0.749237 -0.021567
C22   C     C_3   0.499058 0.502605 0.082791 0.289623
C23   C     C_3   0.629054 0.544653 0.048686 -0.352804
C24   C     C_3   0.498621 0.501322 0.917028 0.238077
C25   C     C_1   0.498138 0.500504 0.824879 -0.014228
C26   C     C_1   0.499031 0.503009 0.175037 -0.097410
C27   C     C_1   0.498855 0.502465 0.250744 -0.126005
C28   C     C_3   0.072810 0.581872 0.420518 -0.443638
C29   C     C_3   0.074935 0.568231 0.579996 -0.393716
C30   C     C_3   0.929861 0.597469 0.426912 0.266608
Cu1   Cu    Cu3+1 0.499860 0.642410 0.500040 0.991707
Cu2   Cu    Cu3+1 0.499860 0.357590 0.500040 0.995235
H1    H     H_    0.307155 0.578762 0.926226 0.188835
H2    H     H_    0.652736 0.895866 0.416948 0.176506
H3    H     H_    0.344135 0.136257 0.415797 0.161278
H4    H     H_    0.319659 0.892934 0.446662 0.146963
H5    H     H_    0.489690 0.110726 0.366502 0.183096
H6    H     H_    0.439998 0.871035 0.371547 0.203228
H7    H     H_    0.328561 0.063066 0.552384 0.053161
H8    H     H_    0.379532 0.853018 0.606706 0.098562
H9    H     H_    0.307597 0.580163 0.071184 0.182536
H10   H     H_    0.372758 0.321630 0.073953 0.177861
H11   H     H_    0.534600 0.276347 0.074899 0.175370
H12   H     H_    0.372697 0.320209 0.928980 0.204289
H13   H     H_    0.423874 0.715795 0.069874 0.177182
H14   H     H_    0.534618 0.275369 0.929953 0.204631
H15   H     H_    0.423254 0.714582 0.924897 0.208690
H16   H     H_    0.655001 0.651076 0.071190 0.194094
H17   H     H_    0.700573 0.470119 0.073128 0.179090
H18   H     H_    0.654351 0.650244 0.926090 0.199324
H19   H     H_    0.700250 0.469378 0.928033 0.199761
H20   H     H_    0.099480 0.525144 0.362351 0.214956
H21   H     H_    0.121748 0.520129 0.636110 0.243163
H22   H     H_    0.116092 0.688067 0.416512 0.159727
H23   H     H_    0.108977 0.293511 0.436315 0.158505
H24   H     H_    0.101627 0.681279 0.579720 0.143966
H25   H     H_    0.911824 0.707711 0.445821 0.079942
H26   H     H_    0.893835 0.662920 0.595174 0.112454
H27   H     H_    0.771815 0.419770 0.248060 0.366828
H28   H     H_    0.954480 0.265577 0.742670 0.395476
H29   H     H_    0.554363 0.220236 0.722554 0.385093
H30   H     H_    0.723851 0.742089 0.712111 0.390464
H31   H     H_    0.101558 0.284117 0.549285 0.257070
H32   H     H_    0.899754 0.304210 0.426079 0.223109
H33   H     H_    0.891412 0.273829 0.536504 0.227702
H34   H     H_    0.683357 0.113648 0.551950 0.216768
H35   H     H_    0.700683 0.871430 0.521600 0.216333
H36   H     H_    0.677607 0.133018 0.441684 0.166297
N1    N     N_3   0.500250 0.143650 0.501830 -0.187395
N2    N     N_3   0.500250 0.856350 0.501830 -0.204584
O1    O     O_R   0.317570 0.620260 0.500050 -0.620385
O2    O     O_2   0.945981 0.621794 0.255735 -0.294693
O3    O     O_3   0.803549 0.417851 0.306964 -0.578509
O4    O     O_2   0.905664 0.545241 0.755217 -0.295716
O5    O     O_2   0.757459 0.404553 0.674726 -0.340099
O6    O     O_3   0.982835 0.313446 0.690167 -0.512069
O7    O     O_2   0.294320 0.271676 0.660235 -0.296634
O8    O     O_2   0.289291 0.035035 0.713447 -0.258600
O9    O     O_3   0.481591 0.177278 0.750291 -0.460848
O10   O     O_2   0.657496 0.017010 0.686214 -0.311070
O11   O     O_2   0.511738 0.853836 0.752343 -0.262064
O12   O     O_R   0.317570 0.379740 0.500050 -0.575084
O13   O     O_3   0.684846 0.759678 0.656128 -0.537738
O14   O     O_R   0.499890 0.620310 0.379470 -0.564762
O15   O     O_R   0.499890 0.379690 0.379470 -0.598976
O16   O     O_R   0.682190 0.620260 0.500020 -0.567979
O17   O     O_R   0.682190 0.379740 0.500020 -0.577221
O18   O     O_R   0.499870 0.620210 0.620600 -0.535400
O19   O     O_R   0.499870 0.379790 0.620600 -0.539048
O20   O     O_2   0.747805 0.681064 0.319829 -0.317227
S1    S     S_3+6 0.855638 0.581543 0.324274 -0.037990
S2    S     S_3+6 0.889759 0.454025 0.679090 -0.023348
S3    S     S_3+6 0.373851 0.144394 0.675114 0.063817
S4    S     S_3+6 0.580850 0.887851 0.672165 0.028961

loop_
_geom_bond_atom_site_label_1
_geom_bond_atom_site_label_2
_ccdc_geom_bond_type
H30   O13   S    
C8    H34   S    
C16   C21   S    
C28   H20   S    
C19   H14   S    
C12   C23   S    
C26   C27   T    
C1    O1    A    
C6    O15   A    
C29   H21   S    
C2    C29   S    
C17   H13   S    
C13   H3    S    
C3    C7    S    
C18   H10   S    
C14   H4    S    
C23   H17   S    
C7    H33   S    
O8    S3    D    
C30   H25   S    
C17   C20   S    
C18   C19   S    
O4    S2    D    
C3    H23   S    
Cu1   N2    S    
Cu1   Cu2   S    
C8    C9    S    
Cu1   O18   S    
H27   O3    S    
C13   H5    S    
C4    C29   S    
Cu1   O1    S    
C16   O19   A    
Cu1   O16   S    
C13   C14   S    
C14   N2    S    
C4    C28   S    
C11   N2    S    
C6    O14   A    
C20   C24   S    
C9    N2    S    
O3    S1    S    
C5    C7    S    
O2    S1    D    
C28   H22   S    
C10   S3    S    
C1    O12   A    
Cu2   O17   S    
H28   O6    S    
Cu1   O14   S    
C10   H7    S    
C9    H35   S    
C14   H6    S    
C6    C27   S    
C8    N1    S    
C24   C25   S    
C2    S2    S    
O5    S2    D    
O6    S2    S    
C15   O16   A    
C20   H1    S    
C11   S4    S    
C8    H36   S    
Cu2   O19   S    
C9    H2    S    
C2    C5    S    
O10   S4    D    
C3    C4    S    
C12   H19   S    
C19   H12   S    
C15   O17   A    
C5    C30   S    
C21   C25   T    
C23   H16   S    
C18   C22   S    
C30   S1    S    
C12   H18   S    
C2    H26   S    
O9    S3    S    
Cu2   N1    S    
C29   H24   S    
C3    H31   S    
Cu2   O12   S    
C12   C24   S    
C17   C22   S    
C1    C4    S    
C28   C30   S    
C19   C24   S    
C18   H11   S    
O11   S4    D    
O13   S4    S    
O20   S1    D    
C13   N1    S    
H29   O9    S    
Cu2   O15   S    
O7    S3    D    
C11   H8    S    
C17   H9    S    
C7    H32   S    
C5    C15   S    
C20   H15   S    
C10   C11   S    
C10   N1    S    
C22   C26   S    
C16   O18   A    
C22   C23   S    
