data_mof_unit_6292.cif
_audit_creation_date              2012-10-26T20:22:06-0400
_audit_creation_method            fapswitch 2.2
_symmetry_space_group_name_H-M    P1
_symmetry_Int_Tables_number       1
_space_group_crystal_system       triclinic
_cell_length_a                    10.83791
_cell_length_b                    9.671502
_cell_length_c                    10.679167
_cell_angle_alpha                 90.130664
_cell_angle_beta                  94.390279
_cell_angle_gamma                 89.362901
_cell_volume                      1116.02352341

loop_
_atom_site_label
_atom_site_type_symbol
_atom_type_description
_atom_site_fract_x
_atom_site_fract_y
_atom_site_fract_z
_atom_type_partial_charge
C1    C     C_R   0.871456 0.498617 0.501136 0.073208
C2    C     C_3   0.387604 0.515137 0.037066 0.077827
C3    C     C_3   0.450293 0.622914 0.957040 0.052417
C4    C     C_3   0.549705 0.377086 0.042960 0.052417
C5    C     C_3   0.494145 0.501572 0.875300 0.041429
C6    C     C_3   0.505852 0.498428 0.124700 0.041436
C7    C     C_R   0.430047 0.073804 0.410260 0.251130
C8    C     C_R   0.569952 0.926196 0.589740 0.251130
C9    C     C_R   0.568698 0.072600 0.590501 0.238045
C10   C     C_R   0.431302 0.927400 0.409499 0.238047
C11   C     C_R   0.073747 0.419395 0.587097 0.057032
C12   C     C_R   0.128544 0.501383 0.498864 0.073209
C13   C     C_R   0.926253 0.580605 0.412903 0.057032
C14   C     C_R   0.944489 0.417908 0.588229 0.058269
C15   C     C_R   0.055511 0.582092 0.411770 0.058269
C16   C     C_R   0.262633 0.500663 0.497809 0.614930
C17   C     C_R   0.737367 0.499337 0.502190 0.614931
C18   C     C_R   0.503532 0.499693 0.260531 0.597134
C19   C     C_R   0.496467 0.500307 0.739469 0.597129
C20   C     C_3   0.569501 0.603735 0.044286 0.086199
C21   C     C_3   0.430496 0.396265 0.955714 0.086198
C22   C     C_3   0.612393 0.484862 0.962934 0.077817
Cu1   Cu    Cu3+1 0.500000 0.640660 0.500000 0.982431
Cu2   Cu    Cu3+1 0.500000 0.359340 0.500000 0.982424
H1    H     H_    0.295718 0.214514 0.346886 0.269292
H2    H     H_    0.597139 0.786852 0.135583 0.262066
H3    H     H_    0.316327 0.236885 0.985973 0.265838
H4    H     H_    0.402848 0.213174 0.864374 0.262063
H5    H     H_    0.798123 0.466314 0.000076 0.256588
H6    H     H_    0.740182 0.375593 0.875710 0.254724
H7    H     H_    0.201874 0.533685 0.999924 0.256591
H8    H     H_    0.259815 0.624407 0.124289 0.254719
H9    H     H_    0.127824 0.237123 0.669664 0.249966
H10   H     H_    0.133945 0.376282 0.767752 0.251284
H11   H     H_    0.872176 0.762877 0.330336 0.249966
H12   H     H_    0.407677 0.178999 0.244135 0.277387
H13   H     H_    0.866055 0.623718 0.232248 0.251279
H14   H     H_    0.921865 0.369991 0.769269 0.240614
H15   H     H_    0.910768 0.234164 0.668500 0.250781
H16   H     H_    0.078134 0.630011 0.230731 0.240613
H17   H     H_    0.089232 0.765836 0.331502 0.250781
H18   H     H_    0.704280 0.785484 0.653115 0.269292
H19   H     H_    0.592322 0.821002 0.755865 0.277389
H20   H     H_    0.678448 0.227017 0.663704 0.294369
H21   H     H_    0.577905 0.161442 0.762404 0.252665
H22   H     H_    0.321552 0.772984 0.336296 0.294367
H23   H     H_    0.422098 0.838555 0.237596 0.252670
H24   H     H_    0.683710 0.763080 0.014035 0.265833
I1    I     I_    0.363771 0.815595 0.900998 -0.405189
I2    I     I_    0.636225 0.184404 0.099000 -0.405188
N1    N     N_R   0.500000 0.852070 0.500000 -0.256219
N2    N     N_3   0.263811 0.528448 0.079765 -0.614846
N3    N     N_3   0.150620 0.341630 0.677788 -0.581577
N4    N     N_3   0.849380 0.658371 0.322212 -0.581568
N5    N     N_3   0.887096 0.338226 0.680042 -0.645225
N6    N     N_3   0.112903 0.661775 0.319959 -0.645226
N7    N     N_R   0.500000 0.147930 0.500000 -0.256220
N8    N     N_3   0.353738 0.140066 0.312067 -0.575387
N9    N     N_3   0.646261 0.859934 0.687933 -0.575387
N10   N     N_3   0.637682 0.138010 0.693221 -0.578778
N11   N     N_3   0.362320 0.861990 0.306778 -0.578778
N12   N     N_3   0.650905 0.713905 0.091744 -0.587716
N13   N     N_3   0.349091 0.286096 0.908259 -0.587712
N14   N     N_3   0.736186 0.471552 0.920236 -0.614859
O1    O     O_R   0.319640 0.618740 0.499990 -0.493904
O2    O     O_R   0.680360 0.381260 0.500010 -0.493903
O3    O     O_R   0.680360 0.618740 0.500010 -0.496899
O4    O     O_R   0.319640 0.381260 0.499990 -0.496902
O5    O     O_R   0.499970 0.618770 0.316850 -0.517183
O6    O     O_R   0.500030 0.381230 0.683150 -0.517199
O7    O     O_R   0.500030 0.618770 0.683150 -0.502681
O8    O     O_R   0.499970 0.381230 0.316850 -0.502683

loop_
_geom_bond_atom_site_label_1
_geom_bond_atom_site_label_2
_ccdc_geom_bond_type
H18   N9    S    
H23   N11   S    
C7    C10   A    
Cu1   Cu2   S    
H17   N6    S    
C2    N2    S    
H6    N14   S    
H19   N9    S    
H9    N3    S    
C4    C22   S    
Cu1   O5    S    
C7    N8    S    
C9    N7    A    
C11   N3    S    
C12   C15   A    
Cu2   O2    S    
H7    N2    S    
C11   C12   A    
C9    N10   S    
C15   N6    S    
Cu1   O1    S    
C2    C21   S    
C19   O7    A    
C2    C3    S    
C3    I1    S    
H5    N14   S    
Cu2   O6    S    
C3    C20   S    
H21   N10   S    
H11   N4    S    
C18   O8    A    
C4    C21   S    
C8    N1    A    
C17   O2    A    
C2    C6    S    
H3    N13   S    
H20   N10   S    
C5    C19   S    
H13   N4    S    
C5    C22   S    
C16   O1    A    
C20   C22   S    
C14   N5    S    
H12   N8    S    
C1    C17   S    
C13   C15   A    
C8    N9    S    
C20   N12   S    
C16   O4    A    
C6    C18   S    
C11   C14   A    
C17   O3    A    
C10   N11   S    
C21   N13   S    
H1    N8    S    
C10   N1    A    
H22   N11   S    
C22   N14   S    
H4    N13   S    
Cu1   O7    S    
H24   N12   S    
C6    C20   S    
H2    N12   S    
Cu2   O8    S    
H10   N3    S    
C4    C6    S    
C13   N4    S    
Cu2   N7    S    
Cu1   O3    S    
Cu2   O4    S    
H8    N2    S    
C19   O6    A    
C1    C14   A    
C3    C5    S    
C18   O5    A    
C7    N7    A    
H15   N5    S    
Cu1   N1    S    
C12   C16   S    
H14   N5    S    
C4    I2    S    
C8    C9    A    
H16   N6    S    
C5    C21   S    
C1    C13   A    
