data_mof_unit_56781.cif
_audit_creation_date              2012-12-10T16:54:06-0500
_audit_creation_method            fapswitch 2.2
_symmetry_space_group_name_H-M    P1
_symmetry_Int_Tables_number       1
_space_group_crystal_system       triclinic
_cell_length_a                    9.688104
_cell_length_b                    10.936009
_cell_length_c                    13.426708
_cell_angle_alpha                 90.095862
_cell_angle_beta                  72.419809
_cell_angle_gamma                 90.02723
_cell_volume                      1356.10704043

loop_
_atom_site_label
_atom_site_type_symbol
_atom_type_description
_atom_site_fract_x
_atom_site_fract_y
_atom_site_fract_z
_atom_type_partial_charge
C1    C     C_R   0.500506 0.734653 0.498712 0.854134
C2    C     C_R   0.436574 0.485485 0.979031 0.085316
C3    C     C_R   0.471231 0.454788 0.871787 0.082225
C4    C     C_R   0.544216 0.472186 0.030694 0.061235
C5    C     C_R   0.669252 0.401025 0.982015 0.127685
C6    C     C_R   0.693014 0.357094 0.880738 -0.236551
C7    C     C_R   0.597031 0.385236 0.825650 -0.201684
C8    C     C_R   0.533256 0.526894 0.128677 0.113529
C9    C     C_R   0.741633 0.409013 0.138922 -0.249392
C10   C     C_R   0.375327 0.489989 0.815272 -0.107237
C11   C     C_2   0.614083 0.067010 0.498074 -0.160119
C12   C     C_R   0.422431 0.494372 0.700200 0.781582
C13   C     C_2   0.494784 0.133377 0.506703 -0.317202
C14   C     C_2   0.612137 0.933078 0.502726 -0.155942
C15   C     C_2   0.500456 0.866601 0.493415 -0.322144
C16   C     C_2   0.051131 0.565585 0.564217 -0.071649
C17   C     C_2   0.896476 0.568884 0.561674 -0.063593
C18   C     C_R   0.499342 0.265334 0.501297 0.845816
C19   C     C_R   0.577583 0.499545 0.300015 0.813782
C20   C     C_R   0.768410 0.372582 0.035725 -0.204219
C21   C     C_R   0.622178 0.483116 0.186608 -0.051408
C22   C     C_R   0.235434 0.530573 0.869947 -0.186230
C23   C     C_R   0.192754 0.540058 0.978142 -0.157736
C24   C     C_R   0.292187 0.518743 0.032349 -0.187667
Cu1   Cu    Cu3+1 0.361370 0.499980 0.499980 0.936575
Cu2   Cu    Cu3+1 0.638630 0.500020 0.500020 0.931450
H1    H     H_    0.812309 0.376818 0.182283 0.161516
H2    H     H_    0.389094 0.092371 0.520195 0.147587
H3    H     H_    0.707372 0.888459 0.512510 0.164901
H4    H     H_    0.406348 0.907505 0.479482 0.147778
H5    H     H_    0.078325 0.621825 0.622228 0.148820
H6    H     H_    0.129568 0.450945 0.443685 0.192437
H7    H     H_    0.822872 0.631299 0.614932 0.155305
H8    H     H_    0.913638 0.438941 0.453059 0.188398
H9    H     H_    0.786974 0.301298 0.843509 0.147031
H10   H     H_    0.862762 0.316797 0.999637 0.146425
H11   H     H_    0.158756 0.555241 0.829043 0.153314
H12   H     H_    0.252972 0.523906 0.116422 0.151605
H13   H     H_    0.082979 0.566788 0.020075 0.150765
H14   H     H_    0.618899 0.345309 0.748793 0.174127
H15   H     H_    0.717372 0.111721 0.488815 0.164699
N1    N     N_2   0.152660 0.501340 0.501130 -0.282370
N2    N     N_2   0.846520 0.501370 0.501160 -0.285393
O1    O     O_R   0.382960 0.678040 0.499980 -0.576927
O2    O     O_R   0.617100 0.678080 0.500020 -0.571040
O3    O     O_R   0.325800 0.499940 0.650950 -0.576451
O4    O     O_R   0.559930 0.499980 0.650990 -0.579420
O5    O     O_R   0.382900 0.321920 0.499980 -0.577091
O6    O     O_R   0.617040 0.321960 0.500020 -0.584214
O7    O     O_R   0.440070 0.500020 0.349010 -0.572337
O8    O     O_R   0.674200 0.500060 0.349050 -0.583198
C25   C     C_3   0.451022 0.645289 0.163811 -0.873176
H16   H     H_    0.516872 0.708443 0.195951 0.224131
H17   H     H_    0.430499 0.694556 0.097485 0.237404
H18   H     H_    0.347241 0.628217 0.225586 0.244817

loop_
_geom_bond_atom_site_label_1
_geom_bond_atom_site_label_2
_ccdc_geom_bond_type
Cu1   N1    S    
C24   H12   S    
C23   C24   A    
C17   N2    D    
C13   H2    S    
C6    C7    A    
C1    C15   S    
C16   N1    D    
Cu1   O3    S    
C8    C25   S    
C9    C20   A    
C2    C4    A    
Cu1   O5    S    
C25   H18   S    
C4    C8    A    
C9    C21   A    
C22   H11   S    
C2    C3    A    
C3    C10   A    
Cu2   O8    S    
C25   H16   S    
C16   H5    S    
C11   C13   D    
C19   O7    A    
C1    O2    A    
C17   H7    S    
Cu2   O4    S    
C12   O4    A    
C23   H13   S    
C10   C12   S    
Cu1   O1    S    
C12   O3    A    
C19   C21   S    
C25   H17   S    
Cu2   N2    S    
C11   H15   S    
C3    C7    A    
C2    C24   A    
C5    C6    A    
C11   C14   S    
C14   H3    S    
C20   H10   S    
C19   O8    A    
C6    H9    S    
C9    H1    S    
C15   H4    S    
C13   C18   S    
Cu2   O6    S    
C5    C20   A    
H6    N1    S    
C22   C23   A    
C16   C17   S    
C1    O1    A    
Cu2   O2    S    
Cu1   Cu2   S    
C14   C15   D    
C7    H14   S    
Cu1   O7    S    
C10   C22   A    
H8    N2    S    
C18   O6    A    
C18   O5    A    
C4    C5    A    
C8    C21   A    
