data_mof_unit_34517.cif
_audit_creation_date              2012-12-10T18:36:24-0500
_audit_creation_method            fapswitch 2.2
_symmetry_space_group_name_H-M    P1
_symmetry_Int_Tables_number       1
_space_group_crystal_system       triclinic
_cell_length_a                    13.846087
_cell_length_b                    15.139298
_cell_length_c                    15.886569
_cell_angle_alpha                 89.927731
_cell_angle_beta                  70.118215
_cell_angle_gamma                 89.94722
_cell_volume                      3131.65137682

loop_
_atom_site_label
_atom_site_type_symbol
_atom_type_description
_atom_site_fract_x
_atom_site_fract_y
_atom_site_fract_z
_atom_type_partial_charge
C1    C     C_R   0.499975 0.670161 0.499967 0.805368
C2    C     C_R   0.500016 0.329887 0.499986 0.794003
C3    C     C_R   0.376502 0.500007 0.095671 -0.244462
C4    C     C_R   0.623361 0.497316 0.904346 -0.229187
C5    C     C_R   0.305109 0.493767 0.052468 -0.192886
C6    C     C_R   0.694573 0.503592 0.947693 -0.180428
C7    C     C_R   0.406769 0.904858 0.523974 -0.159773
C8    C     C_R   0.570230 0.095187 0.529037 -0.162154
C9    C     C_R   0.406858 0.813049 0.523367 -0.193038
C10   C     C_R   0.570850 0.186989 0.528395 -0.177631
C11   C     C_R   0.499914 0.766632 0.499841 -0.026773
C12   C     C_R   0.499973 0.233509 0.499937 -0.016823
C13   C     C_R   0.592904 0.813044 0.476251 -0.151699
C14   C     C_R   0.428981 0.187342 0.471450 -0.170480
C15   C     C_R   0.592921 0.904828 0.475404 -0.166575
C16   C     C_R   0.429461 0.095541 0.470673 -0.159231
C17   C     C_R   0.499832 0.951527 0.499675 0.101481
C18   C     C_R   0.499832 0.048678 0.499796 0.103837
C19   C     C_R   0.912165 0.436254 0.450186 0.329808
C20   C     C_R   0.117620 0.576614 0.473938 0.352686
C21   C     C_R   0.808738 0.436985 0.453078 0.049139
C22   C     C_R   0.218618 0.574644 0.476281 -0.011034
C23   C     C_R   0.437431 0.495874 0.672394 0.878105
C24   C     C_R   0.562454 0.504140 0.327623 0.890021
C25   C     C_R   0.772884 0.562845 0.546372 0.026289
C26   C     C_R   0.199034 0.426077 0.523973 0.120948
C27   C     C_R   0.874382 0.563981 0.546712 -0.304035
C28   C     C_R   0.097347 0.425255 0.524097 -0.289465
C29   C     C_R   0.945653 0.499971 0.499036 0.053592
C30   C     C_R   0.054619 0.500873 0.499114 0.053368
C31   C     C_R   0.399095 0.489785 0.771268 -0.235012
C32   C     C_R   0.600327 0.509789 0.228777 -0.247426
C33   C     C_R   0.262917 0.484458 0.916187 0.362024
C34   C     C_R   0.736329 0.516060 0.084204 0.364395
C35   C     C_R   0.295396 0.471486 0.822814 0.313775
C36   C     C_R   0.703301 0.530242 0.177150 0.371872
C37   C     C_R   0.470140 0.503431 0.814995 -0.324966
C38   C     C_R   0.529566 0.493842 0.185145 -0.333926
C39   C     C_R   0.442349 0.496627 0.908357 0.032495
C40   C     C_R   0.557291 0.500291 0.091746 0.039595
C41   C     C_R   0.336452 0.491212 0.959232 0.012322
C42   C     C_R   0.663094 0.506418 0.040956 -0.017618
C43   C     C_R   0.516633 0.497990 0.952400 0.114382
C44   C     C_R   0.483113 0.498592 0.047628 0.123366
Cu1   Cu    Cu3+1 0.403570 0.500010 0.500000 0.995399
Cu2   Cu    Cu3+1 0.596430 0.499990 0.500000 0.978189
H1    H     H_    0.224459 0.491676 0.092995 0.179866
H2    H     H_    0.775180 0.506330 0.907123 0.175925
H3    H     H_    0.782692 0.387290 0.416876 0.133189
H4    H     H_    0.265037 0.633495 0.457839 0.141355
H5    H     H_    0.719099 0.612371 0.583841 0.136401
H6    H     H_    0.229380 0.366969 0.543803 0.170258
H7    H     H_    0.896837 0.614226 0.584863 0.184541
H8    H     H_    0.052007 0.365720 0.544217 0.184971
H9    H     H_    0.452603 0.475814 0.225673 0.184069
H10   H     H_    0.547432 0.520181 0.774429 0.182838
H11   H     H_    0.345217 0.507280 0.167203 0.145685
H12   H     H_    0.655268 0.491566 0.832620 0.144920
H13   H     H_    0.333838 0.939233 0.544546 0.134684
H14   H     H_    0.624009 0.060687 0.553422 0.130703
H15   H     H_    0.334102 0.778466 0.542528 0.154288
H16   H     H_    0.625697 0.221527 0.551398 0.151660
H17   H     H_    0.665676 0.778508 0.457460 0.151453
H18   H     H_    0.374161 0.222159 0.448504 0.140704
H19   H     H_    0.665832 0.939169 0.454834 0.130761
H20   H     H_    0.375624 0.061325 0.446255 0.129222
N1    N     N_R   0.741310 0.499980 0.500000 -0.184691
N2    N     N_R   0.258690 0.500020 0.500000 -0.187620
O1    O     O_R   0.418570 0.628550 0.499990 -0.603230
O2    O     O_R   0.581430 0.371450 0.500010 -0.604823
O3    O     O_R   0.581440 0.628540 0.499990 -0.582588
O4    O     O_R   0.418560 0.371460 0.500010 -0.586507
O5    O     O_R   0.372890 0.500010 0.629830 -0.487139
O6    O     O_R   0.627110 0.499990 0.370170 -0.509437
O7    O     O_R   0.535760 0.500000 0.629840 -0.606036
O8    O     O_R   0.464240 0.500000 0.370160 -0.607452
O9    O     O_3   0.980014 0.372393 0.401834 -0.606185
C45   C     C_3   0.001301 0.386631 0.309249 0.092194
H21   H     H_    0.009854 0.458116 0.291050 0.151244
H22   H     H_    0.938326 0.358647 0.288921 0.130670
C46   C     C_3   0.101285 0.340110 0.255457 -0.352029
H23   H     H_    0.092797 0.267684 0.267102 0.219727
H24   H     H_    0.117076 0.352629 0.183041 0.185363
C47   C     C_3   0.192191 0.373257 0.280379 -0.769686
H25   H     H_    0.195716 0.446514 0.278020 0.222410
H26   H     H_    0.264768 0.346394 0.232588 0.228991
H27   H     H_    0.185137 0.350683 0.348677 0.271041
O10   O     O_3   0.080398 0.654208 0.450519 -0.624099
C48   C     C_3   0.093033 0.652615 0.358300 0.066349
H28   H     H_    0.031380 0.694241 0.348842 0.185538
H29   H     H_    0.083424 0.585500 0.333441 0.123929
C49   C     C_3   0.197405 0.691456 0.302276 -0.376281
H30   H     H_    0.206816 0.757671 0.328613 0.236158
H31   H     H_    0.260141 0.647817 0.306396 0.204098
C50   C     C_3   0.206835 0.699975 0.204248 -0.901958
H32   H     H_    0.198320 0.634092 0.177263 0.246932
H33   H     H_    0.283572 0.726835 0.164985 0.265816
H34   H     H_    0.146870 0.745143 0.197051 0.263753
S1    S     S_3+6 0.788688 0.581690 0.224268 -0.007743
O11   O     O_2   0.834375 0.513117 0.267824 -0.387133
O12   O     O_2   0.873712 0.628497 0.153347 -0.278720
O13   O     O_3   0.724256 0.656309 0.301299 -0.532962
H35   H     H_    0.771804 0.672161 0.333455 0.361427
S2    S     S_3+6 0.207200 0.425685 0.775169 0.006341
O14   O     O_2   0.260654 0.357535 0.706333 -0.277036
O15   O     O_2   0.119524 0.381120 0.845598 -0.313466
O16   O     O_3   0.161041 0.505983 0.725942 -0.535183
H36   H     H_    0.093129 0.521804 0.769748 0.337726
O17   O     O_3   0.159195 0.488187 0.966254 -0.600855
C51   C     C_3   0.118840 0.570884 0.951953 0.073523
H37   H     H_    0.036985 0.561196 0.959748 0.218303
H38   H     H_    0.156195 0.597991 0.883151 0.128503
C52   C     C_3   0.125115 0.638682 0.021233 -0.386315
H39   H     H_    0.082810 0.613275 0.089490 0.256930
H40   H     H_    0.206663 0.649247 0.014821 0.213627
C53   C     C_3   0.079457 0.727220 0.007993 -0.807789
H41   H     H_    0.124497 0.755687 0.941794 0.238021
H42   H     H_    0.081809 0.773949 0.061059 0.252397
H43   H     H_    0.998408 0.719002 0.011779 0.290959
O18   O     O_3   0.840291 0.516589 0.035164 -0.593303
C54   C     C_3   0.876059 0.428386 0.017297 0.023149
H44   H     H_    0.941754 0.428858 0.953506 0.216291
H45   H     H_    0.818304 0.382344 0.006672 0.122862
C55   C     C_3   0.912690 0.393010 0.091785 -0.292724
H46   H     H_    0.966956 0.440743 0.104741 0.271829
H47   H     H_    0.845525 0.384712 0.154007 0.213159
C56   C     C_3   0.965886 0.303724 0.067116 -0.876802
H48   H     H_    0.914168 0.255552 0.051158 0.254549
H49   H     H_    0.986060 0.277880 0.124427 0.234377
H50   H     H_    0.037522 0.310625 0.008637 0.312282

loop_
_geom_bond_atom_site_label_1
_geom_bond_atom_site_label_2
_ccdc_geom_bond_type
C27   C29   A    
C50   H32   S    
C34   C42   A    
C47   H27   S    
C2    C12   S    
S2    O15   D    
C46   H23   S    
C50   H34   S    
C39   C41   A    
C20   C30   A    
O9    C45   S    
C5    H1    S    
C1    O3    A    
C6    H2    S    
Cu1   O8    S    
C9    H15   S    
C32   C36   A    
C19   C21   A    
C47   H26   S    
C45   H22   S    
C15   H19   S    
C53   H41   S    
Cu1   O5    S    
C7    H13   S    
C19   O9    S    
C51   H37   S    
S2    O14   D    
C54   C55   S    
C37   H10   S    
C38   H9    S    
C7    C17   A    
C25   N1    A    
O16   H36   S    
C14   C16   A    
C32   C38   A    
C48   H29   S    
C22   H4    S    
C52   C53   S    
C40   C42   A    
C21   N1    A    
Cu1   O4    S    
C10   H16   S    
C56   H49   S    
C23   O5    A    
C2    O4    A    
C21   H3    S    
Cu2   O7    S    
C46   H24   S    
C51   H38   S    
C34   O18   S    
C3    C44   A    
C54   H45   S    
Cu1   O1    S    
C47   H25   S    
C4    C6    A    
C35   S2    S    
C23   O7    A    
C28   H8    S    
C45   H21   S    
C24   O8    A    
C39   C43   A    
Cu1   Cu2   S    
C49   C50   S    
C1    O1    A    
C31   C37   A    
C23   C31   S    
C43   C44   A    
C24   C32   S    
C29   C30   S    
C26   H6    S    
S1    O11   D    
C13   H17   S    
C14   H18   S    
Cu1   N2    S    
C50   H33   S    
C17   C18   S    
C54   H44   S    
C48   C49   S    
C9    C11   A    
C51   C52   S    
C22   N2    A    
Cu2   O3    S    
C10   C12   A    
C55   C56   S    
C3    H11   S    
C8    C10   A    
S1    O12   D    
C12   C14   A    
C13   C15   A    
C31   C35   A    
C33   O17   S    
C56   H48   S    
C19   C29   A    
Cu2   O6    S    
C46   C47   S    
O18   C54   S    
C55   H47   S    
C52   H39   S    
C7    C9    A    
C5    C41   A    
C20   C22   A    
C3    C5    A    
C27   H7    S    
C15   C17   A    
C4    C43   A    
C25   C27   A    
C26   C28   A    
C25   H5    S    
C53   H43   S    
C26   N2    A    
C28   C30   A    
C56   H50   S    
C33   C41   A    
Cu2   N1    S    
C37   C39   A    
O17   C51   S    
C8    H14   S    
C38   C40   A    
C11   C13   A    
C45   C46   S    
C24   O6    A    
C49   H31   S    
C20   O10   S    
C49   H30   S    
C33   C35   A    
C53   H42   S    
C36   S1    S    
C34   C36   A    
O13   H35   S    
C8    C18   A    
Cu2   O2    S    
C40   C44   A    
S1    O13   S    
C16   H20   S    
O10   C48   S    
C16   C18   A    
C6    C42   A    
C4    H12   S    
C1    C11   S    
C48   H28   S    
C2    O2    A    
S2    O16   S    
C55   H46   S    
C52   H40   S    
