data_mof_unit_26154.cif
_audit_creation_date              2012-12-11T14:44:26-0500
_audit_creation_method            fapswitch 2.2
_symmetry_space_group_name_H-M    P1
_symmetry_Int_Tables_number       1
_space_group_crystal_system       triclinic
_cell_length_a                    19.924883
_cell_length_b                    7.213202
_cell_length_c                    19.738415
_cell_angle_alpha                 89.998839
_cell_angle_beta                  98.542055
_cell_angle_gamma                 89.998718
_cell_volume                      2805.37968065

loop_
_atom_site_label
_atom_site_type_symbol
_atom_type_description
_atom_site_fract_x
_atom_site_fract_y
_atom_site_fract_z
_atom_type_partial_charge
O1    O     O_R   0.673210 0.377390 0.686390 -0.540678
O2    O     O_R   0.326790 0.622610 0.313610 -0.540698
O3    O     O_R   0.826790 0.877390 0.813610 -0.540694
O4    O     O_R   0.173210 0.122610 0.186390 -0.540697
O5    O     O_R   0.810750 0.706450 0.681250 -0.545029
O6    O     O_R   0.189250 0.293550 0.318750 -0.545030
O7    O     O_R   0.689250 0.206450 0.818750 -0.545029
O8    O     O_R   0.310750 0.793550 0.181250 -0.545029
C1    C     C_R   0.830074 0.537989 0.664276 0.734502
C2    C     C_R   0.169926 0.462011 0.335725 0.734500
C3    C     C_R   0.669927 0.037989 0.835725 0.734490
C4    C     C_R   0.330073 0.962011 0.164275 0.734495
O9    O     O_R   0.672750 0.707060 0.678240 -0.540788
O10   O     O_R   0.327250 0.292940 0.321760 -0.540782
O11   O     O_R   0.827250 0.207060 0.821760 -0.540786
O12   O     O_R   0.172750 0.792940 0.178240 -0.540786
O13   O     O_R   0.687800 0.877990 0.810580 -0.506039
O14   O     O_R   0.312200 0.122010 0.189420 -0.506040
O15   O     O_R   0.812200 0.377990 0.689420 -0.506042
O16   O     O_R   0.187800 0.622010 0.310580 -0.506040
C5    C     C_R   0.647907 0.537314 0.661742 0.676338
C6    C     C_R   0.352093 0.462686 0.338259 0.676362
C7    C     C_R   0.852093 0.037307 0.838258 0.676358
C8    C     C_R   0.147907 0.962693 0.161742 0.676359
O17   O     O_3   0.755100 0.544060 0.793420 -0.368131
O18   O     O_3   0.244900 0.455940 0.206580 -0.368133
O19   O     O_3   0.744900 0.044060 0.706580 -0.368141
O20   O     O_3   0.255100 0.955940 0.293420 -0.368134
V1    V     V_3+5 0.749050 0.818670 0.741950 1.446820
V2    V     V_3+5 0.250950 0.181330 0.258050 1.446829
V3    V     V_3+5 0.750950 0.318670 0.758050 1.446821
V4    V     V_3+5 0.249050 0.681330 0.241950 1.446818
C9    C     C_R   0.086074 0.984747 0.109589 -0.058738
C10   C     C_R   0.913926 0.015253 0.890411 -0.058737
C11   C     C_R   0.413928 0.484720 0.390409 -0.058726
C12   C     C_R   0.586071 0.515279 0.609591 -0.058721
C13   C     C_R   0.012161 0.823608 0.934879 -0.193347
C14   C     C_R   0.987839 0.176391 0.065120 -0.193348
C15   C     C_R   0.487815 0.323701 0.565147 -0.193331
C16   C     C_R   0.512185 0.676297 0.434852 -0.193324
C17   C     C_R   0.958799 0.867812 0.883029 -0.159331
C18   C     C_R   0.041201 0.132188 0.116971 -0.159332
C19   C     C_R   0.541181 0.367900 0.616993 -0.159306
C20   C     C_R   0.458819 0.632099 0.383006 -0.159336
C21   C     C_R   0.924641 0.120820 0.950931 -0.242017
C22   C     C_R   0.075359 0.879179 0.049069 -0.242015
C23   C     C_R   0.575372 0.620788 0.549054 -0.242031
C24   C     C_R   0.424629 0.379210 0.450945 -0.242001
C25   C     C_R   0.978020 0.075272 0.003941 0.155790
C26   C     C_R   0.021980 0.924727 0.996059 0.155790
C27   C     C_R   0.521989 0.575240 0.496048 0.155794
C28   C     C_R   0.478011 0.424757 0.503951 0.155782
H1    H     H_    0.110035 0.767374 0.042070 0.118087
H2    H     H_    0.889964 0.232625 0.957930 0.118087
H3    H     H_    0.389938 0.267457 0.457960 0.118071
H4    H     H_    0.610062 0.732541 0.542039 0.118067
H5    H     H_    0.048192 0.216374 0.162941 0.121305
H6    H     H_    0.951808 0.783626 0.837059 0.121305
H7    H     H_    0.451838 0.716239 0.337023 0.121288
H8    H     H_    0.548162 0.283761 0.662976 0.121281
H9    H     H_    0.045205 0.708433 0.927407 0.117546
H10   H     H_    0.954795 0.291566 0.072593 0.117546
H11   H     H_    0.454757 0.208576 0.572637 0.117540
H12   H     H_    0.545243 0.791422 0.427362 0.117541
C29   C     C_R   0.577165 0.174533 0.892485 -0.293957
C30   C     C_R   0.422837 0.825467 0.107516 -0.293961
C31   C     C_R   0.922846 0.674514 0.607527 -0.293948
C32   C     C_R   0.077156 0.325485 0.392476 -0.293959
C33   C     C_R   0.622301 0.027194 0.887201 -0.162670
C34   C     C_R   0.377700 0.972806 0.112801 -0.162668
C35   C     C_R   0.877704 0.527193 0.612804 -0.162659
C36   C     C_R   0.122299 0.472806 0.387199 -0.162664
C37   C     C_R   0.620861 0.870451 0.930481 0.391079
C38   C     C_R   0.379141 0.129552 0.069522 0.391080
C39   C     C_R   0.879139 0.370461 0.569521 0.391035
C40   C     C_R   0.120864 0.629535 0.430484 0.391096
C41   C     C_R   0.570461 0.856864 0.974116 -0.022105
C42   C     C_R   0.429542 0.143141 0.025887 -0.022105
C43   C     C_R   0.929538 0.356871 0.525883 -0.022099
C44   C     C_R   0.070465 0.643123 0.474121 -0.022099
C45   C     C_R   0.524918 0.005480 0.977872 0.027310
C46   C     C_R   0.475085 0.994524 0.022132 0.027311
C47   C     C_R   0.975085 0.505476 0.522132 0.027298
C48   C     C_R   0.024917 0.494521 0.477870 0.027301
C49   C     C_R   0.528952 0.165023 0.937407 0.094492
C50   C     C_R   0.471050 0.834980 0.062596 0.094492
C51   C     C_R   0.971057 0.665004 0.562604 0.094496
C52   C     C_R   0.028945 0.334993 0.437399 0.094496
C53   C     C_R   0.564628 0.697600 0.014114 -0.189857
C54   C     C_R   0.435376 0.302405 0.985889 -0.189860
C55   C     C_R   0.935366 0.197617 0.485879 -0.189825
C56   C     C_R   0.064637 0.802374 0.514126 -0.189846
C57   C     C_R   0.516001 0.687688 0.058179 -0.176405
C58   C     C_R   0.484002 0.312314 0.941823 -0.176404
C59   C     C_R   0.983991 0.187711 0.441810 -0.176393
C60   C     C_R   0.016013 0.812283 0.558194 -0.176391
H13   H     H_    0.578570 0.296046 0.860371 0.159363
H14   H     H_    0.421430 0.703951 0.139628 0.159365
H15   H     H_    0.921447 0.796012 0.639648 0.159350
H16   H     H_    0.078556 0.203988 0.360355 0.159355
H17   H     H_    0.597453 0.579112 0.011481 0.155042
H18   H     H_    0.402550 0.420892 0.988522 0.155040
H19   H     H_    0.902540 0.079132 0.488509 0.155022
H20   H     H_    0.097466 0.920852 0.511498 0.155025
H21   H     H_    0.513405 0.563760 0.088728 0.134980
H22   H     H_    0.486596 0.436240 0.911273 0.134980
H23   H     H_    0.986582 0.063792 0.411257 0.134971
H24   H     H_    0.013423 0.936198 0.588749 0.134969
O21   O     O_3   0.667512 0.728577 0.928293 -0.548009
C61   C     C_3   0.717517 0.733707 0.987513 0.065944
H25   H     H_    0.725899 0.589723 0.006872 0.133224
H26   H     H_    0.703418 0.817791 0.030792 0.101462
C62   C     C_3   0.784228 0.806211 0.969317 -0.686552
H27   H     H_    0.777773 0.951298 0.950813 0.187717
H28   H     H_    0.823800 0.803285 0.015294 0.172333
H29   H     H_    0.801110 0.717831 0.929026 0.240318
O22   O     O_3   0.332491 0.271423 0.071710 -0.548010
C63   C     C_3   0.282487 0.266297 0.012488 0.065946
H30   H     H_    0.296587 0.182215 0.969209 0.101464
H31   H     H_    0.274107 0.410282 0.993130 0.133225
C64   C     C_3   0.215775 0.193796 0.030681 -0.686568
H32   H     H_    0.198897 0.282157 0.070979 0.240329
H33   H     H_    0.176202 0.196754 0.984704 0.172338
H34   H     H_    0.222224 0.048699 0.049175 0.187713
O23   O     O_3   0.832486 0.228605 0.571708 -0.548002
C65   C     C_3   0.782482 0.233745 0.512486 0.065908
H35   H     H_    0.774154 0.089788 0.493085 0.133203
H36   H     H_    0.796549 0.317997 0.469234 0.101447
C66   C     C_3   0.715744 0.305998 0.530700 -0.686395
H37   H     H_    0.722137 0.451089 0.549211 0.187707
H38   H     H_    0.676165 0.302985 0.484729 0.172299
H39   H     H_    0.698909 0.217526 0.570992 0.240331
O24   O     O_3   0.167508 0.771414 0.428287 -0.548010
C67   C     C_3   0.217516 0.766309 0.487504 0.065938
H40   H     H_    0.203417 0.682286 0.530797 0.101471
H41   H     H_    0.225908 0.910311 0.506840 0.133234
C68   C     C_3   0.284220 0.693738 0.469313 -0.686630
H42   H     H_    0.301091 0.782032 0.428993 0.240366
H43   H     H_    0.323802 0.696749 0.515282 0.172348
H44   H     H_    0.277766 0.548611 0.450855 0.187694

loop_
_geom_bond_atom_site_label_1
_geom_bond_atom_site_label_2
_ccdc_geom_bond_type
O17   V3    S    
C24   H3    S    
C47   C51   A    
O1    C5    A    
C65   H35   S    
O19   V1    S    
O13   V1    S    
O3    C7    A    
O1    V3    S    
C44   C48   A    
O15   V3    S    
C67   C68   S    
C45   C46   A    
C5    C12   S    
C42   C54   A    
O7    C3    A    
C6    C11   S    
C68   H43   S    
C41   C53   A    
O23   C65   S    
C9    C18   A    
O9    V1    S    
C17   H6    S    
C14   C18   A    
O4    C8    A    
C20   H7    S    
C56   C60   A    
C12   C23   A    
O2    V4    S    
O3    V1    S    
C34   C38   A    
C54   H18   S    
C64   H34   S    
C61   H26   S    
C57   H21   S    
C63   H30   S    
C1    O15   A    
C58   H22   S    
C2    O16   A    
C43   C47   A    
O2    C6    A    
C33   C37   A    
O14   V2    S    
C21   C25   A    
C16   C20   A    
C43   C55   A    
C31   H15   S    
C62   H29   S    
O11   C7    A    
C15   C28   A    
C60   H24   S    
C52   C59   A    
O12   C8    A    
C53   C57   A    
C9    C22   A    
C10   C17   A    
O10   V2    S    
C11   C24   A    
C18   H5    S    
C54   C58   A    
O5    V1    S    
C15   C19   A    
C68   H44   S    
O7    V3    S    
C27   C28   A    
O8    V4    S    
C48   C52   A    
C14   C25   A    
O18   V4    S    
C67   H41   S    
C65   C66   S    
C46   C50   A    
O4    V2    S    
C61   H25   S    
C62   H28   S    
C32   C36   A    
C39   O23   S    
C63   C64   S    
C44   C56   A    
C32   H16   S    
O5    C1    A    
C50   C57   A    
C49   C58   A    
C42   C46   A    
C13   H9    S    
C47   C48   A    
C41   C45   A    
O8    C4    A    
C7    C10   S    
C51   C60   A    
O9    C5    A    
C36   C40   A    
C10   C21   A    
C29   C49   A    
C11   C20   A    
C61   C62   S    
C64   H32   S    
C59   H23   S    
C19   H8    S    
O6    V2    S    
C21   H2    S    
O24   C67   S    
C32   C52   A    
C40   C44   A    
C62   H27   S    
O16   V4    S    
C38   O22   S    
C4    C34   S    
C3    O13   A    
C65   H36   S    
C53   H17   S    
C1    C35   S    
C55   H19   S    
C30   C50   A    
C23   C27   A    
C40   O24   S    
C3    C33   S    
O11   V3    S    
C67   H40   S    
O12   V4    S    
C16   C27   A    
C15   H11   S    
C68   H42   S    
C22   C26   A    
C31   C51   A    
C8    C9    S    
C16   H12   S    
C66   H39   S    
O20   V2    S    
C66   H37   S    
C29   H13   S    
O22   C63   S    
C35   C39   A    
C13   C26   A    
O10   C6    A    
C30   C34   A    
C29   C33   A    
C22   H1    S    
C31   C35   A    
C37   O21   S    
C13   C17   A    
C63   H31   S    
C64   H33   S    
O6    C2    A    
C56   H20   S    
C30   H14   S    
C55   C59   A    
C24   C28   A    
C25   C26   A    
C38   C42   A    
C4    O14   A    
C37   C41   A    
C12   C19   A    
C66   H38   S    
O21   C61   S    
C39   C43   A    
C45   C49   A    
C23   H4    S    
C14   H10   S    
C2    C36   S    
