data_mof_unit_26409.cif
_audit_creation_date              2012-12-11T17:07:46-0500
_audit_creation_method            fapswitch 2.2
_symmetry_space_group_name_H-M    P1
_symmetry_Int_Tables_number       1
_space_group_crystal_system       triclinic
_cell_length_a                    17.32684
_cell_length_b                    17.300106
_cell_length_c                    17.451609
_cell_angle_alpha                 89.661728
_cell_angle_beta                  89.607066
_cell_angle_gamma                 90.571737
_cell_volume                      5230.75068951

loop_
_atom_site_label
_atom_site_type_symbol
_atom_type_description
_atom_site_fract_x
_atom_site_fract_y
_atom_site_fract_z
_atom_type_partial_charge
C1    C     C_R   0.415314 0.325081 0.860521 0.450074
C2    C     C_R   0.197618 0.892833 0.400279 0.429080
C3    C     C_R   0.810160 0.842543 0.185502 -0.096428
C4    C     C_R   0.270393 0.297585 0.632047 -0.066314
C5    C     C_R   0.203132 0.848058 0.810635 -0.108782
C6    C     C_R   0.792171 0.685041 0.663730 -0.092780
C7    C     C_R   0.794685 0.152583 0.808524 -0.144987
C8    C     C_R   0.754258 0.196744 0.862005 -0.054007
C9    C     C_R   0.755191 0.651026 0.725729 -0.063887
C10   C     C_R   0.247120 0.803626 0.861097 -0.096694
C11   C     C_R   0.311781 0.341828 0.685001 -0.077890
C12   C     C_R   0.768170 0.798129 0.133223 -0.080762
C13   C     C_R   0.088695 0.178956 0.363147 0.476430
C14   C     C_R   0.706687 0.347291 0.306921 -0.107579
C15   C     C_R   0.289859 0.183908 0.161279 -0.102246
C16   C     C_R   0.235139 0.705434 0.216985 -0.096877
C17   C     C_R   0.803206 0.105077 0.398608 0.495391
C18   C     C_R   0.914618 0.175908 0.638368 0.455227
C19   C     C_R   0.198166 0.106547 0.598169 0.491684
C20   C     C_R   0.081619 0.826241 0.640950 0.452019
C21   C     C_R   0.801061 0.890510 0.596189 0.446124
C22   C     C_3   0.752938 0.296676 0.654358 0.196599
C23   C     C_3   0.615676 0.746685 0.590425 0.288065
C24   C     C_3   0.240233 0.707886 0.654341 0.251546
C25   C     C_R   0.697901 0.394457 0.901277 0.503946
C26   C     C_3   0.184182 0.176670 0.788605 0.203768
C27   C     C_3   0.728570 0.726342 0.347859 0.257586
C28   C     C_3   0.779160 0.150362 0.210030 0.159210
C29   C     C_3   0.072009 0.215827 0.158719 0.167107
C30   C     C_3   0.337110 0.705999 0.419365 0.242491
C31   C     C_3   0.385547 0.663774 0.360525 0.176697
C32   C     C_3   0.114282 0.250307 0.090901 0.277697
C33   C     C_3   0.734991 0.199823 0.153336 0.195435
C34   C     C_3   0.686577 0.675489 0.290582 0.237942
C35   C     C_3   0.225800 0.227334 0.846359 0.249086
C36   C     C_R   0.589091 0.679280 0.863486 0.474632
C37   C     C_3   0.283421 0.656801 0.710224 0.176667
C38   C     C_3   0.573521 0.713393 0.658933 0.171293
C39   C     C_3   0.711534 0.345954 0.713235 0.172674
C40   C     C_R   0.393501 0.697024 0.897618 -0.101250
C41   C     C_R   0.327774 0.419540 0.858262 -0.031426
C42   C     C_R   0.608450 0.302552 0.901837 -0.129167
C43   C     C_R   0.674301 0.582621 0.859597 -0.110612
C44   C     C_R   0.390505 0.301161 0.092705 -0.082882
C45   C     C_R   0.325339 0.581207 0.140072 -0.146804
C46   C     C_R   0.608625 0.697571 0.099048 -0.117373
C47   C     C_R   0.303022 0.605433 0.899112 0.483258
C48   C     C_R   0.673073 0.418588 0.141104 -0.021746
C49   C     C_R   0.893818 0.196730 0.396789 -0.114120
C50   C     C_R   0.827907 0.919762 0.358232 -0.039096
C51   C     C_R   0.107126 0.802203 0.403232 -0.115362
C52   C     C_R   0.173511 0.081964 0.358898 -0.131293
C53   C     C_R   0.890824 0.801086 0.592387 -0.090702
C54   C     C_R   0.825020 0.081527 0.640319 -0.063162
C55   C     C_R   0.110030 0.197846 0.596436 -0.101789
C56   C     C_R   0.171431 0.920003 0.642452 -0.014462
C57   C     C_R   0.356544 0.357757 0.818447 -0.116967
C58   C     C_R   0.414173 0.676343 0.138220 0.497814
C59   C     C_R   0.684716 0.318028 0.888312 -0.083715
C60   C     C_R   0.648663 0.647259 0.820505 -0.064793
C61   C     C_R   0.317552 0.681436 0.883115 -0.123545
C62   C     C_R   0.353520 0.644045 0.179071 -0.096055
C63   C     C_R   0.684888 0.683176 0.111821 -0.107543
C64   C     C_R   0.643257 0.356168 0.180749 -0.086083
C65   C     C_R   0.313466 0.312447 0.106565 -0.083207
C66   C     C_R   0.856959 0.858328 0.318166 -0.120231
C67   C     C_R   0.183066 0.815885 0.388300 -0.029406
C68   C     C_R   0.147661 0.146460 0.319603 -0.069782
C69   C     C_R   0.697737 0.606708 0.099126 0.491809
C70   C     C_R   0.818143 0.180705 0.381679 -0.098126
C71   C     C_R   0.853332 0.144399 0.679241 -0.103034
C72   C     C_R   0.186268 0.183365 0.609189 -0.106878
C73   C     C_R   0.140999 0.858308 0.683007 -0.102895
C74   C     C_R   0.813858 0.812125 0.606146 -0.080324
C75   C     C_R   0.757803 0.305316 0.773302 0.067491
C76   C     C_R   0.643960 0.731429 0.704469 0.091650
C77   C     C_R   0.239480 0.695983 0.772939 0.079438
C78   C     C_R   0.281677 0.246757 0.783264 0.017777
C79   C     C_R   0.745026 0.701828 0.232464 0.022970
C80   C     C_R   0.582760 0.325047 0.139825 0.452977
C81   C     C_R   0.699373 0.237476 0.221917 0.073047
C82   C     C_R   0.181343 0.267979 0.142720 0.017684
C83   C     C_R   0.346064 0.710778 0.300998 0.086955
C84   C     C_R   0.303519 0.751125 0.354222 0.051886
C85   C     C_R   0.142794 0.231966 0.204497 0.101477
C86   C     C_R   0.738560 0.193541 0.272435 0.087738
C87   C     C_R   0.783059 0.746639 0.283837 0.011251
C88   C     C_R   0.243910 0.202233 0.731362 0.049855
C89   C     C_R   0.200129 0.740554 0.722820 0.034810
C90   C     C_R   0.682243 0.766539 0.642092 0.008866
C91   C     C_R   0.300974 0.390807 0.096298 0.458601
C92   C     C_R   0.794363 0.261328 0.720665 0.069993
C93   C     C_R   0.734077 0.272621 0.842462 0.069211
C94   C     C_R   0.682717 0.677240 0.749714 0.020648
C95   C     C_R   0.266929 0.728154 0.840067 0.077857
C96   C     C_R   0.314292 0.317070 0.761638 0.141030
C97   C     C_R   0.733494 0.728924 0.158563 0.076212
C98   C     C_R   0.684035 0.314340 0.237309 0.111129
C99   C     C_R   0.258715 0.250488 0.127617 0.125684
C100  C     C_R   0.310436 0.684285 0.234798 0.055577
C101  C     C_R   0.226627 0.767656 0.339226 0.109663
C102  C     C_R   0.915716 0.825542 0.360152 0.436486
C103  C     C_R   0.180914 0.175964 0.248091 0.026434
C104  C     C_R   0.767916 0.226917 0.338237 0.063583
C105  C     C_R   0.814437 0.817397 0.261891 0.155351
C106  C     C_R   0.234310 0.228912 0.656952 0.063969
C107  C     C_R   0.181945 0.816362 0.739964 0.131536
C108  C     C_R   0.759908 0.749873 0.627840 0.110235
C109  C     C_R   0.812025 0.185009 0.736518 0.134539
C110  C     C_R   0.193324 0.747511 0.269096 -0.153331
C111  C     C_R   0.252275 0.148342 0.222225 -0.132895
C112  C     C_R   0.750081 0.303175 0.357872 -0.055787
Cl1   Cl    Cl    0.450942 0.231339 0.847485 -0.617517
Cl2   Cl    Cl    0.289806 0.931648 0.418021 -0.510399
Cl3   Cl    Cl    0.063898 0.277031 0.362460 -0.564429
Cl4   Cl    Cl    0.710924 0.067283 0.419951 -0.434342
Cl5   Cl    Cl    0.956710 0.267376 0.653488 -0.619727
Cl6   Cl    Cl    0.289240 0.067335 0.578460 -0.482826
Cl7   Cl    Cl    0.037501 0.735805 0.658901 -0.640183
Cl8   Cl    Cl    0.711070 0.931078 0.574999 -0.521896
Cl9   Cl    Cl    0.689414 0.230714 0.606807 -0.529994
Cl10  Cl    Cl    0.637540 0.673486 0.521690 -0.492763
Cl11  Cl    Cl    0.302183 0.776996 0.607454 -0.518609
Cl12  Cl    Cl    0.789226 0.433720 0.922249 -0.464888
Cl13  Cl    Cl    0.191669 0.076019 0.809346 -0.599612
Cl14  Cl    Cl    0.671256 0.806226 0.378282 -0.465203
Cl15  Cl    Cl    0.750007 0.051217 0.207824 -0.604812
Cl16  Cl    Cl    0.991639 0.272767 0.187638 -0.467148
Cl17  Cl    Cl    0.268303 0.642740 0.465000 -0.557643
Cl18  Cl    Cl    0.485601 0.687905 0.365682 -0.467594
Cl19  Cl    Cl    0.134752 0.178583 0.020253 -0.551368
Cl20  Cl    Cl    0.796584 0.263081 0.098565 -0.519041
Cl21  Cl    Cl    0.695188 0.574877 0.310849 -0.568877
Cl22  Cl    Cl    0.168890 0.308073 0.875305 -0.483072
Cl23  Cl    Cl    0.563387 0.777093 0.862341 -0.575298
Cl24  Cl    Cl    0.256905 0.557209 0.702799 -0.563349
Cl25  Cl    Cl    0.492817 0.770436 0.686474 -0.468146
Cl26  Cl    Cl    0.737182 0.445765 0.705544 -0.600181
Cl27  Cl    Cl    0.210811 0.566975 0.919463 -0.484510
Cl28  Cl    Cl    0.446538 0.772341 0.147030 -0.592358
Cl29  Cl    Cl    0.789340 0.568551 0.079808 -0.503501
Cl30  Cl    Cl    0.537222 0.235403 0.158193 -0.652381
Cl31  Cl    Cl    0.211214 0.431523 0.074414 -0.544878
Cl32  Cl    Cl    0.951470 0.731889 0.346486 -0.632882
H1    H     H_    0.792404 0.329243 0.615101 0.181315
H2    H     H_    0.087778 0.303366 0.066901 0.221102
H3    H     H_    0.692156 0.167573 0.118425 0.178164
H4    H     H_    0.627071 0.693778 0.276276 0.182456
H5    H     H_    0.253403 0.195549 0.894260 0.184902
H6    H     H_    0.346764 0.667400 0.712755 0.166982
H7    H     H_    0.560157 0.650452 0.655784 0.143248
H8    H     H_    0.648380 0.334818 0.718721 0.150214
H9    H     H_    0.419122 0.753880 0.899931 0.219572
H10   H     H_    0.278288 0.453336 0.843194 0.233257
H11   H     H_    0.584444 0.245287 0.908875 0.211993
H12   H     H_    0.588637 0.798774 0.564964 0.217868
H13   H     H_    0.719688 0.544292 0.843072 0.203034
H14   H     H_    0.414442 0.246422 0.076128 0.189325
H15   H     H_    0.275152 0.546759 0.154655 0.200869
H16   H     H_    0.584516 0.754450 0.094058 0.219469
H17   H     H_    0.723372 0.452190 0.155856 0.211498
H18   H     H_    0.919387 0.253624 0.398733 0.219003
H19   H     H_    0.778062 0.953181 0.343593 0.234335
H20   H     H_    0.082359 0.745484 0.412114 0.228512
H21   H     H_    0.218229 0.043055 0.341785 0.176430
H22   H     H_    0.915051 0.746472 0.575758 0.194606
H23   H     H_    0.200015 0.676689 0.615742 0.208394
H24   H     H_    0.774607 0.047398 0.654858 0.199783
H25   H     H_    0.087585 0.254986 0.587542 0.222253
H26   H     H_    0.221224 0.954119 0.657732 0.212756
H27   H     H_    0.135020 0.764277 0.254784 0.171919
H28   H     H_    0.282605 0.102980 0.251797 0.169768
H29   H     H_    0.771363 0.328508 0.410359 0.168218
H30   H     H_    0.837155 0.896386 0.167363 0.172732
H31   H     H_    0.264979 0.317298 0.573337 0.168268
H32   H     H_    0.188050 0.906694 0.825216 0.201586
H33   H     H_    0.850792 0.667320 0.652577 0.179040
H34   H     H_    0.124872 0.195404 0.773733 0.162758
H35   H     H_    0.810304 0.093629 0.822073 0.152615
H36   H     H_    0.736915 0.171672 0.916554 0.162257
H37   H     H_    0.786592 0.607821 0.757290 0.189209
H38   H     H_    0.267201 0.828156 0.914403 0.162679
H39   H     H_    0.339758 0.395265 0.667110 0.180796
H40   H     H_    0.761211 0.818076 0.074768 0.159177
H41   H     H_    0.693163 0.406611 0.320254 0.206570
H42   H     H_    0.348001 0.165369 0.149051 0.173892
H43   H     H_    0.208956 0.689403 0.163046 0.168554
H44   H     H_    0.757361 0.694645 0.395110 0.182831
H45   H     H_    0.842787 0.159632 0.209836 0.163750
H46   H     H_    0.058045 0.153113 0.154089 0.129004
H47   H     H_    0.370790 0.742866 0.459194 0.218477
H48   H     H_    0.373464 0.600716 0.355740 0.144520
N1    N     N_R   0.425360 0.368540 0.922560 -0.101318
N2    N     N_R   0.131460 0.925360 0.422560 -0.102055
N3    N     N_R   0.074640 0.131460 0.422560 -0.102310
N4    N     N_R   0.868540 0.074640 0.422560 -0.110686
N5    N     N_R   0.925360 0.131460 0.577440 -0.095007
N6    N     N_R   0.131460 0.074640 0.577440 -0.106091
N7    N     N_R   0.074640 0.868540 0.577440 -0.094325
N8    N     N_R   0.868540 0.925360 0.577440 -0.102507
N9    N     N_R   0.425340 0.631500 0.922560 -0.085577
N10   N     N_R   0.368500 0.425340 0.922560 -0.075224
N11   N     N_R   0.574660 0.368500 0.922560 -0.079983
N12   N     N_R   0.631460 0.425360 0.922560 -0.107001
N13   N     N_R   0.631500 0.574660 0.922560 -0.074244
N14   N     N_R   0.425340 0.368500 0.077440 -0.078238
N15   N     N_R   0.368500 0.574660 0.077440 -0.064209
N16   N     N_R   0.574660 0.631500 0.077440 -0.079636
N17   N     N_R   0.631500 0.425340 0.077440 -0.074356
N18   N     N_R   0.925340 0.131500 0.422560 -0.087766
N19   N     N_R   0.868500 0.925340 0.422560 -0.075455
N20   N     N_R   0.074660 0.868500 0.422560 -0.087671
N21   N     N_R   0.131500 0.074660 0.422560 -0.066995
N22   N     N_R   0.925340 0.868500 0.577440 -0.080604
N23   N     N_R   0.574640 0.631460 0.922560 -0.101396
N24   N     N_R   0.868500 0.074660 0.577440 -0.067548
N25   N     N_R   0.074660 0.131500 0.577440 -0.079842
N26   N     N_R   0.131500 0.925340 0.577440 -0.070499
N27   N     N_R   0.368540 0.574640 0.922560 -0.104986
N28   N     N_R   0.425360 0.631460 0.077440 -0.099996
N29   N     N_R   0.631460 0.574640 0.077440 -0.103168
N30   N     N_R   0.574640 0.368540 0.077440 -0.097044
N31   N     N_R   0.368540 0.425360 0.077440 -0.096294
N32   N     N_R   0.925360 0.868540 0.422560 -0.098464
Ni1   Ni    Ni4+2 0.500000 0.369720 0.000000 0.257739
Ni2   Ni    Ni4+2 0.630280 0.500000 0.000000 0.313146
Ni3   Ni    Ni4+2 0.500000 0.630280 0.000000 0.265331
Ni4   Ni    Ni4+2 0.369720 0.500000 0.000000 0.310558
Ni5   Ni    Ni4+2 0.000000 0.869720 0.500000 0.259670
Ni6   Ni    Ni4+2 0.130280 0.000000 0.500000 0.313670
Ni7   Ni    Ni4+2 0.000000 0.130280 0.500000 0.263704
Ni8   Ni    Ni4+2 0.869720 0.000000 0.500000 0.316260

loop_
_geom_bond_atom_site_label_1
_geom_bond_atom_site_label_2
_ccdc_geom_bond_type
C11   C96   A    
C58   C62   A    
N11   N12   A    
C53   N22   A    
C84   C101  A    
C43   N13   A    
C44   H14   S    
C82   C99   A    
N2    Ni6   S    
C1    N1    A    
C53   C74   A    
C45   H15   S    
C68   C103  S    
C37   H6    S    
C25   N12   A    
C86   C104  A    
C28   H45   S    
C6    C9    A    
C56   N26   A    
C42   N11   A    
C102  N32   A    
C7    C8    A    
C55   N25   A    
C9    H37   S    
C38   C76   S    
C3    C105  A    
C14   C112  A    
C67   C101  S    
N15   N28   A    
C1    Cl1   S    
N6    Ni6   S    
C34   H4    S    
C29   C32   S    
C36   N23   A    
C63   C69   A    
C30   C31   S    
C34   C79   S    
C27   Cl14  S    
C70   C104  S    
C92   C109  A    
C73   C107  S    
C32   H2    S    
C81   C98   A    
C22   C39   S    
C69   Cl29  S    
C21   Cl8   S    
C71   C109  S    
C45   C62   A    
C18   C71   A    
C31   C83   S    
C103  C111  A    
C111  H28   S    
C66   C102  A    
N26   Ni6   S    
C80   N30   A    
C3    C12   A    
C33   H3    S    
C76   C94   A    
C33   C81   S    
C58   N28   A    
C51   N20   A    
C54   C71   A    
N4    Ni8   S    
C19   Cl6   S    
C78   C96   A    
C4    H31   S    
C49   N18   A    
C20   C73   A    
N8    N22   A    
N18   Ni7   S    
C39   C75   S    
N27   Ni4   S    
C29   C85   S    
C81   C86   A    
C52   C68   A    
C28   Cl15  S    
N4    N18   A    
C110  H27   S    
C64   C98   S    
C112  H29   S    
C39   Cl26  S    
C17   C70   A    
C45   N15   A    
C23   H12   S    
C24   C89   S    
C30   C84   S    
N17   N30   A    
C64   C80   A    
C44   C65   A    
N7    N26   A    
C102  Cl32  S    
N14   Ni1   S    
C35   Cl22  S    
C79   C87   A    
C90   C108  A    
C14   C98   A    
C23   Cl10  S    
C91   Cl31  S    
N5    Ni7   S    
C27   C34   S    
C15   H42   S    
C78   C88   A    
C37   Cl24  S    
N19   Ni8   S    
C16   C110  A    
C15   C111  A    
N3    Ni7   S    
C24   H23   S    
C11   H39   S    
C65   C99   S    
C2    C67   A    
C54   H24   S    
N15   Ni4   S    
C104  C112  A    
C14   H41   S    
N31   Ni4   S    
C16   C100  A    
N10   Ni4   S    
C48   H17   S    
N30   Ni1   S    
C43   H13   S    
N16   N29   A    
N7    Ni5   S    
C47   N27   A    
C39   H8    S    
C77   C95   A    
C24   Cl11  S    
C40   C61   A    
C7    C109  A    
N28   Ni3   S    
C82   C85   A    
C2    N2    A    
C26   Cl13  S    
C54   N24   A    
C20   N7    A    
C46   N16   A    
C1    C57   A    
C52   H21   S    
C88   C106  A    
C8    H36   S    
C3    H30   S    
C83   C84   A    
C87   C105  A    
C22   H1    S    
N14   N31   A    
C46   H16   S    
C89   C107  A    
C18   N5    A    
C44   N14   A    
C24   C37   S    
C49   H18   S    
C23   C90   S    
C7    H35   S    
N13   Ni2   S    
C51   C67   A    
C30   H47   S    
C48   N17   A    
C4    C11   A    
C27   C87   S    
C50   C66   A    
C18   Cl5   S    
N9    N27   A    
C12   C97   A    
C13   Cl3   S    
N5    N24   A    
C43   C60   A    
C4    C106  A    
C62   C100  S    
C75   C92   A    
C33   Cl20  S    
C26   C88   S    
C41   C57   A    
C72   C106  S    
C28   C33   S    
C80   Cl30  S    
C49   C70   A    
C6    H33   S    
C28   C86   S    
C10   H38   S    
C5    H32   S    
C40   H9    S    
N6    N25   A    
N17   Ni2   S    
C66   C105  S    
C91   N31   A    
C21   C74   A    
C36   Cl23  S    
C38   H7    S    
N11   Ni1   S    
C31   H48   S    
C21   N8    A    
C75   C93   A    
C22   Cl9   S    
N9    Ni3   S    
C41   H10   S    
C5    C107  A    
C58   Cl28  S    
C53   H22   S    
C65   C91   A    
C13   C68   A    
C19   N6    A    
C6    C108  A    
C56   C73   A    
C56   H26   S    
C50   H19   S    
C79   C97   A    
C8    C93   A    
C55   C72   A    
C15   C99   A    
C36   C60   A    
C16   H43   S    
C85   C103  A    
C42   C59   A    
C47   C61   A    
C61   C95   S    
C83   C100  A    
C77   C89   A    
C31   Cl18  S    
C30   Cl17  S    
C32   C82   S    
C35   C78   S    
C34   Cl21  S    
C23   C38   S    
C46   C63   A    
C19   C72   A    
C59   C93   S    
C42   H11   S    
C101  C110  A    
N1    Ni1   S    
C5    C10   A    
N16   Ni3   S    
N32   Ni5   S    
N25   Ni7   S    
N20   Ni5   S    
C2    Cl2   S    
C12   H40   S    
C37   C77   S    
C10   C95   A    
C57   C96   S    
N19   N32   A    
N29   Ni2   S    
C52   N21   A    
N24   Ni8   S    
C38   Cl25  S    
C50   N19   A    
N23   Ni3   S    
C27   H44   S    
C20   Cl7   S    
C51   H20   S    
C25   Cl12  S    
N3    N21   A    
N2    N20   A    
C48   C64   A    
N1    N10   A    
C74   C108  S    
C26   C35   S    
N8    Ni8   S    
C40   N9    A    
N13   N23   A    
C63   C97   S    
C13   N3    A    
C29   Cl16  S    
C47   Cl27  S    
C22   C92   S    
C29   H46   S    
C17   N4    A    
C25   C59   A    
C35   H5    S    
C69   N29   A    
C41   N10   A    
N22   Ni5   S    
N12   Ni2   S    
C9    C94   A    
C55   H25   S    
C32   Cl19  S    
N21   Ni6   S    
C17   Cl4   S    
C76   C90   A    
C26   H34   S    
C60   C94   S    
