data_mof_unit_42317.cif
_audit_creation_date              2013-03-05T15:47:07-0500
_audit_creation_method            fapswitch 2.2
_symmetry_space_group_name_H-M    P1
_symmetry_Int_Tables_number       1
_space_group_crystal_system       triclinic
_cell_length_a                    10.203736
_cell_length_b                    10.807968
_cell_length_c                    13.598683
_cell_angle_alpha                 92.536009
_cell_angle_beta                  100.946954
_cell_angle_gamma                 97.083813
_cell_volume                      1457.62893772

loop_
_atom_site_label
_atom_site_type_symbol
_atom_site_description
_atom_site_fract_x
_atom_site_fract_y
_atom_site_fract_z
_atom_type_partial_charge
O1    O     O_R   0.935190 0.693030 0.507870 -0.578228
O2    O     O_R   0.064810 0.306970 0.492130 -0.564666
O3    O     O_R   0.142080 0.658430 0.482770 -0.561614
O4    O     O_R   0.857920 0.341570 0.517230 -0.568069
C1    C     C_R   0.055653 0.732614 0.496435 0.952110
C2    C     C_R   0.944333 0.267396 0.503515 0.962233
O5    O     O_R   0.969700 0.527180 0.651960 -0.607879
O6    O     O_R   0.030300 0.472820 0.348040 -0.607322
O7    O     O_R   0.176600 0.492580 0.626860 -0.586976
O8    O     O_R   0.823400 0.507420 0.373140 -0.561543
C3    C     C_R   0.094003 0.513140 0.685928 0.917879
C4    C     C_R   0.905223 0.485464 0.313929 0.899557
Zn1   Zn    Zn3+2 0.861850 0.523100 0.516760 1.085213
Zn2   Zn    Zn3+2 0.138150 0.476900 0.483240 1.088860
C5    C     C_R   0.139961 0.512325 0.794044 -0.141523
C6    C     C_R   0.846197 0.454493 0.207891 -0.113151
C7    C     C_R   0.114681 0.559929 0.964406 0.420813
C8    C     C_R   0.821090 0.317722 0.057914 0.423764
C9    C     C_R   0.065967 0.557219 0.861377 -0.157590
C10   C     C_R   0.898101 0.370045 0.149716 -0.154005
C11   C     C_R   0.258241 0.463277 0.829766 -0.104532
C12   C     C_R   0.721023 0.490816 0.171758 -0.084709
C13   C     C_R   0.303344 0.454453 0.932233 0.068957
C14   C     C_R   0.633063 0.424672 0.090045 0.064910
C15   C     C_R   0.236326 0.512192 0.000369 -0.003059
C16   C     C_R   0.686543 0.342376 0.028417 -0.023170
C17   C     C_R   0.423080 0.402897 0.967793 -0.042330
C18   C     C_R   0.495220 0.442509 0.065793 -0.029146
C19   C     C_R   0.423743 0.494091 0.135020 0.376517
C20   C     C_R   0.473404 0.313374 0.909979 0.368199
C21   C     C_R   0.294712 0.524220 0.102051 -0.168969
C22   C     C_R   0.603429 0.284346 0.940803 -0.153225
H1    H     H_    0.242872 0.561780 0.156699 0.225188
H2    H     H_    0.638249 0.215188 0.895565 0.239168
H3    H     H_    0.692669 0.569478 0.210437 0.206202
H4    H     H_    0.318704 0.437601 0.777022 0.224087
H5    H     H_    0.996414 0.342333 0.176561 0.208978
H6    H     H_    0.973278 0.594954 0.834064 0.212489
C23   C     C_2   0.085079 0.864298 0.485227 -0.281257
C24   C     C_2   0.914847 0.135697 0.514510 -0.290855
C25   C     C_2   0.013431 0.942589 0.524241 0.322223
C26   C     C_2   0.986719 0.057553 0.475564 0.313147
H7    H     H_    0.856498 0.109149 0.570925 0.200862
H8    H     H_    0.143195 0.890698 0.428644 0.200132
N1    N     N_2   0.322180 0.446120 0.460900 -0.199628
N2    N     N_2   0.677820 0.553880 0.539100 -0.210498
C27   C     C_2   0.431634 0.507551 0.515873 0.273865
C28   C     C_2   0.569417 0.473021 0.511500 0.277118
H9    H     H_    0.664573 0.643482 0.560154 0.220205
H10   H     H_    0.332997 0.372643 0.413537 0.232959
Cl1   Cl    Cl    0.023912 0.630672 0.044406 -0.579559
Cl2   Cl    Cl    0.895311 0.217496 0.985461 -0.509073
Cl3   Cl    Cl    0.475755 0.505095 0.266258 -0.624827
Cl4   Cl    Cl    0.370722 0.215337 0.809926 -0.502687
Cl5   Cl    Cl    0.046990 0.091802 0.363469 -0.536549
Cl6   Cl    Cl    0.953547 0.908625 0.636512 -0.506964
N3    N     N_R   0.579999 0.347037 0.479563 0.219420
O9    O     O_R   0.526608 0.255088 0.523898 -0.344473
O10   O     O_R   0.617521 0.323245 0.395329 -0.302809
N4    N     N_R   0.422293 0.610850 0.582646 0.213017
O11   O     O_R   0.468112 0.606740 0.678337 -0.388224
O12   O     O_R   0.407366 0.718848 0.546599 -0.328961

loop_
_geom_bond_atom_site_label_1
_geom_bond_atom_site_label_2
_geom_bond_distance
_ccdc_geom_bond_type
C15   C21   1.391369 A    
C20   C22   1.391926 A    
O7    Zn2   1.913196 S    
C21   H1    1.082770 S    
C25   Cl6   1.785389 S    
C16   C22   1.396789 A    
C23   H8    1.084490 S    
C12   H3    1.077984 S    
C9    H6    1.083466 S    
C13   C17   1.415762 A    
C26   Cl5   1.785689 S    
C20   Cl4   1.768863 S    
C25   C26   1.464283 S    
C27   C28   1.509491 S    
C8    C16   1.416774 A    
C6    C10   1.397792 A    
O6    C4    1.298636 A    
C7    C15   1.412711 A    
C7    Cl1   1.763416 S    
C24   C26   1.338777 D    
C8    Cl2   1.763232 S    
C28   N3    1.433899 S    
C19   C21   1.391028 A    
C11   H4    1.079236 S    
C17   C20   1.423554 A    
O5    C3    1.294707 A    
C10   H5    1.083507 S    
O7    C3    1.300930 A    
N2    H9    1.029819 S    
N3    O9    1.300813 A    
O2    C2    1.290961 A    
O3    Zn2   1.957747 S    
O8    C4    1.299607 A    
N1    H10   1.030064 S    
O1    C1    1.291072 A    
O4    C2    1.295568 A    
C18   C19   1.429537 A    
C7    C9    1.392548 A    
C14   C16   1.420813 A    
Zn2   N1    2.022587 S    
C8    C10   1.396813 A    
C13   C15   1.417855 A    
C11   C13   1.393380 A    
Zn1   N2    2.022587 S    
O2    Zn2   1.913832 S    
C12   C14   1.394284 A    
C5    C11   1.389792 A    
N3    O10   1.299855 A    
O1    Zn1   1.913831 S    
N2    C28   1.304980 D    
C14   C18   1.421454 A    
O5    Zn1   1.950805 S    
C2    C24   1.438483 S    
C23   C25   1.338688 D    
N4    O12   1.300796 A    
N1    C27   1.305029 D    
C17   C18   1.414340 A    
C1    C23   1.438806 S    
C6    C12   1.388982 A    
O6    Zn2   1.950805 S    
O3    C1    1.295584 A    
C27   N4    1.431583 S    
C5    C9    1.399103 A    
C3    C5    1.456667 S    
C24   H7    1.084511 S    
C4    C6    1.460072 S    
O4    Zn1   1.957748 S    
N4    O11   1.301178 A    
C19   Cl3   1.756914 S    
O8    Zn1   1.913194 S    
C22   H2    1.082207 S    
