data_mof_unit_18692.cif
_audit_creation_date              2012-12-10T17:25:15-0500
_audit_creation_method            fapswitch 2.2
_symmetry_space_group_name_H-M    P1
_symmetry_Int_Tables_number       1
_space_group_crystal_system       triclinic
_cell_length_a                    27.823862
_cell_length_b                    10.773062
_cell_length_c                    9.60036
_cell_angle_alpha                 89.998471
_cell_angle_beta                  89.890347
_cell_angle_gamma                 92.568382
_cell_volume                      2874.79447236

loop_
_atom_site_label
_atom_site_type_symbol
_atom_type_description
_atom_site_fract_x
_atom_site_fract_y
_atom_site_fract_z
_atom_type_partial_charge
C1    C     C_R   0.498320 0.262584 0.500044 0.789313
C2    C     C_R   0.279324 0.475118 0.372242 -0.105497
C3    C     C_R   0.253464 0.504917 0.491619 0.320658
C4    C     C_R   0.101741 0.506087 0.486056 -0.044240
C5    C     C_R   0.125372 0.393996 0.470717 -0.022897
C6    C     C_R   0.098262 0.282620 0.456048 -0.146696
C7    C     C_R   0.129367 0.617994 0.501208 -0.024703
C8    C     C_R   0.354411 0.502726 0.500150 -0.074856
C9    C     C_R   0.645409 0.502813 0.499163 -0.038301
C10   C     C_R   0.972285 0.393762 0.463327 0.042385
C11   C     C_R   0.976356 0.618865 0.514199 0.043070
C12   C     C_R   0.407500 0.500772 0.500236 0.807111
C13   C     C_R   0.949081 0.506290 0.489771 0.067876
C14   C     C_R   0.943335 0.285789 0.432729 -0.205665
C15   C     C_R   0.893459 0.287311 0.433271 -0.144388
C16   C     C_R   0.870336 0.396387 0.463780 -0.021441
C17   C     C_R   0.897962 0.506213 0.491923 -0.043915
C18   C     C_R   0.874329 0.615940 0.522276 -0.019606
C19   C     C_R   0.823828 0.613759 0.524144 0.533241
C20   C     C_R   0.819924 0.398353 0.466190 0.535098
C21   C     C_R   0.720770 0.496492 0.371875 -0.104711
C22   C     C_R   0.670657 0.495234 0.372638 -0.221034
C23   C     C_R   0.498551 0.737096 0.500020 0.762770
C24   C     C_R   0.671261 0.512750 0.624685 -0.220639
C25   C     C_R   0.721416 0.514495 0.623521 -0.102467
C26   C     C_R   0.746285 0.505957 0.497206 0.359485
C27   C     C_R   0.023347 0.392796 0.467605 0.043548
C28   C     C_R   0.050620 0.506230 0.486660 0.068454
C29   C     C_R   0.027414 0.619767 0.506677 0.042827
C30   C     C_R   0.048342 0.281711 0.454725 -0.204991
C31   C     C_R   0.106238 0.729622 0.515413 -0.144602
C32   C     C_R   0.951369 0.726823 0.546768 -0.206228
C33   C     C_R   0.901444 0.725145 0.550443 -0.146836
C34   C     C_R   0.592454 0.500803 0.499858 0.779879
C35   C     C_R   0.056355 0.730814 0.517809 -0.204670
C36   C     C_R   0.421624 0.120268 0.646335 -0.184953
C37   C     C_R   0.385869 0.051061 0.717520 -0.131508
C38   C     C_R   0.385929 0.921962 0.717546 -0.103752
C39   C     C_R   0.421765 0.861284 0.646474 -0.159002
C40   C     C_R   0.458887 0.929514 0.575419 0.086444
C41   C     C_R   0.458813 0.060798 0.575363 0.096322
C42   C     C_R   0.495059 0.128402 0.499940 -0.098465
C43   C     C_R   0.529036 0.067476 0.421376 -0.184860
C44   C     C_R   0.529111 0.939456 0.421417 -0.198134
C45   C     C_R   0.175861 0.395705 0.472192 0.538543
C46   C     C_R   0.495199 0.870486 0.500007 -0.085425
C47   C     C_R   0.564115 0.664744 0.143677 -0.148662
C48   C     C_R   0.595481 0.745235 0.071374 -0.209343
C49   C     C_R   0.595450 0.745414 0.927848 -0.199139
C50   C     C_R   0.564047 0.665118 0.855735 -0.145515
C51   C     C_R   0.531483 0.581112 0.925050 0.206718
C52   C     C_R   0.531499 0.580988 0.074618 0.211947
C53   C     C_R   0.469971 0.423042 0.074041 -0.057223
C54   C     C_R   0.469989 0.423060 0.926158 -0.021049
C55   C     C_R   0.179784 0.615713 0.501248 0.540961
C56   C     C_R   0.277878 0.533993 0.615428 -0.207275
C57   C     C_R   0.328374 0.533464 0.621280 0.367463
C58   C     C_R   0.329318 0.474177 0.376310 -0.293464
Cu1   Cu    Cu3+1 0.500000 0.499990 0.640660 0.952745
Cu2   Cu    Cu3+1 0.500000 0.500010 0.359340 0.938439
H1    H     H_    0.348347 0.450229 0.282224 0.178248
H2    H     H_    0.257333 0.556917 0.707131 0.136988
H3    H     H_    0.126658 0.817226 0.524999 0.188567
H4    H     H_    0.969246 0.814385 0.572820 0.137930
H5    H     H_    0.652810 0.519281 0.723670 0.163006
H6    H     H_    0.884150 0.810436 0.575764 0.186956
H7    H     H_    0.741003 0.521757 0.720751 0.140694
H8    H     H_    0.041696 0.821284 0.526242 0.136439
H9    H     H_    0.556361 0.119557 0.362214 0.156535
H10   H     H_    0.419106 0.220091 0.645414 0.141613
H11   H     H_    0.357623 0.097803 0.771316 0.148080
H12   H     H_    0.260596 0.452833 0.276044 0.153104
H13   H     H_    0.357726 0.868479 0.771318 0.158184
H14   H     H_    0.419371 0.760953 0.645795 0.182111
H15   H     H_    0.556500 0.893936 0.362312 0.140134
H16   H     H_    0.445347 0.359933 0.129329 0.138098
H17   H     H_    0.567108 0.672575 0.253423 0.193454
H18   H     H_    0.619979 0.808080 0.127469 0.156963
H19   H     H_    0.619942 0.808367 0.871609 0.161893
H20   H     H_    0.567010 0.673262 0.745941 0.197536
H21   H     H_    0.445377 0.359964 0.871087 0.140040
H22   H     H_    0.115553 0.194920 0.445898 0.185733
H23   H     H_    0.651755 0.487868 0.274263 0.164802
H24   H     H_    0.739855 0.490204 0.273898 0.140404
H25   H     H_    0.873035 0.201980 0.409426 0.188983
H26   H     H_    0.957973 0.198282 0.405271 0.138682
H27   H     H_    0.030490 0.191340 0.446171 0.135785
N1    N     N_R   0.201928 0.505524 0.487565 -0.457873
N2    N     N_R   0.797804 0.506015 0.496107 -0.469068
N3    N     N_R   0.500460 0.501210 0.147910 -0.199772
N4    N     N_R   0.500480 0.501290 0.852040 -0.199370
O1    O     O_R   0.500000 0.319640 0.618810 -0.581045
O2    O     O_2   0.793183 0.293389 0.439781 -0.534015
O3    O     O_2   0.206503 0.722761 0.514348 -0.535105
O4    O     O_2   0.800884 0.718595 0.552601 -0.537049
O5    O     O_R   0.500000 0.319660 0.381240 -0.574404
O6    O     O_R   0.430260 0.500010 0.618770 -0.532778
O7    O     O_R   0.430270 0.500030 0.381200 -0.588714
O8    O     O_R   0.500000 0.680340 0.618760 -0.600538
O9    O     O_R   0.500000 0.680360 0.381190 -0.587576
O10   O     O_R   0.569730 0.499970 0.618800 -0.598152
O11   O     O_R   0.569740 0.499990 0.381230 -0.601467
O12   O     O_2   0.198739 0.288376 0.459833 -0.535799
O13   O     O_3   0.352588 0.564177 0.742892 -0.734846
H28   H     H_    0.328982 0.583972 0.816237 0.317464

loop_
_geom_bond_atom_site_label_1
_geom_bond_atom_site_label_2
_ccdc_geom_bond_type
C10   C27   A    
C23   O8    A    
C21   C26   A    
C6    H22   S    
Cu1   O8    S    
C41   C42   A    
C52   N3    A    
C25   H7    S    
C7    C55   A    
C20   O2    S    
C53   C54   A    
C26   N2    S    
C40   C46   A    
C34   O11   A    
C36   C37   A    
Cu2   O7    S    
C4    C7    A    
C5    C6    A    
Cu2   O11   S    
C9    C22   A    
C15   C16   A    
C56   C57   A    
C18   C19   A    
C39   H14   S    
C48   H18   S    
C55   N1    A    
C45   O12   S    
C8    C58   A    
C36   H10   S    
C16   C17   A    
C12   O7    A    
C8    C12   S    
C15   H25   S    
C51   N4    A    
C58   H1    S    
C23   O9    A    
Cu1   Cu2   S    
C43   H9    S    
C23   C46   S    
C21   C22   A    
C27   C30   A    
C36   C41   A    
C55   O3    S    
C2    H12   S    
O13   H28   S    
C4    C28   A    
C44   C46   A    
C33   H6    S    
C17   C18   A    
C34   O10   A    
C7    C31   A    
C51   C52   A    
Cu1   O10   S    
C31   H3    S    
C45   N1    A    
C24   C25   A    
C32   H4    S    
C10   C14   A    
C39   C40   A    
C25   C26   A    
C5    C45   A    
C49   H19   S    
C44   H15   S    
C43   C44   A    
C37   C38   A    
C19   N2    A    
C8    C57   A    
C3    C56   A    
C47   C48   A    
C21   H24   S    
C16   C20   A    
C50   C51   A    
Cu1   N4    S    
C14   H26   S    
C12   O6    A    
C24   H5    S    
Cu2   O5    S    
C40   C41   A    
C6    C30   A    
C11   C32   A    
C1    O1    A    
C37   H11   S    
C9    C34   S    
Cu1   O6    S    
C31   C35   A    
C53   H16   S    
C42   C43   A    
C47   H17   S    
C53   N3    A    
C19   O4    S    
C57   O13   S    
C28   C29   A    
C3    N1    S    
C4    C5    A    
Cu2   O9    S    
C10   C13   A    
C50   H20   S    
C2    C58   A    
C9    C24   A    
C47   C52   A    
Cu2   N3    S    
C20   N2    A    
C29   C35   A    
C13   C17   A    
C32   C33   A    
C2    C3    A    
C54   N4    A    
C22   H23   S    
C11   C13   A    
C38   C39   A    
C35   H8    S    
C1    O5    A    
C48   C49   A    
C56   H2    S    
Cu1   O1    S    
C18   C33   A    
C1    C42   S    
C11   C29   A    
C49   C50   A    
C27   C28   A    
C14   C15   A    
C30   H27   S    
C54   H21   S    
C38   H13   S    
