data_mof_unit_16517.cif
_audit_creation_date              2013-03-05T15:51:37-0500
_audit_creation_method            fapswitch 2.2
_symmetry_space_group_name_H-M    P1
_symmetry_Int_Tables_number       1
_space_group_crystal_system       triclinic
_cell_length_a                    31.802812
_cell_length_b                    18.573171
_cell_length_c                    25.844702
_cell_angle_alpha                 89.860626
_cell_angle_beta                  145.226778
_cell_angle_gamma                 90.08396
_cell_volume                      8706.58099214

loop_
_atom_site_label
_atom_site_type_symbol
_atom_site_description
_atom_site_fract_x
_atom_site_fract_y
_atom_site_fract_z
_atom_type_partial_charge
Zn1   Zn    Zn3+2 0.000000 0.086750 0.293940 1.065396
Zn2   Zn    Zn3+2 0.000000 0.913250 0.706060 1.077282
Zn3   Zn    Zn3+2 0.000000 0.086750 0.706060 1.072903
Zn4   Zn    Zn3+2 0.000000 0.913250 0.293940 1.078056
Zn5   Zn    Zn3+2 0.500000 0.586750 0.293940 1.091244
Zn6   Zn    Zn3+2 0.500000 0.413250 0.706060 1.064230
Zn7   Zn    Zn3+2 0.500000 0.586750 0.706060 1.088856
Zn8   Zn    Zn3+2 0.500000 0.413250 0.293940 1.060661
Zn9   Zn    Zn3+2 0.913220 0.000000 0.119290 1.108185
Zn10  Zn    Zn3+2 0.086780 0.000000 0.880710 1.107458
Zn11  Zn    Zn3+2 0.413220 0.500000 0.119290 1.104242
Zn12  Zn    Zn3+2 0.586780 0.500000 0.880710 1.115882
Zn13  Zn    Zn3+2 0.086730 0.000000 0.292800 1.075221
Zn14  Zn    Zn3+2 0.913270 1.000000 0.707200 1.073798
Zn15  Zn    Zn3+2 0.586730 0.500000 0.292800 1.104334
Zn16  Zn    Zn3+2 0.413270 0.500000 0.707200 1.099789
O1    O     O_3   0.999990 0.000000 0.249990 -0.537137
O2    O     O_3   0.000010 0.000000 0.750010 -0.538239
O3    O     O_3   0.499990 0.500000 0.249990 -0.543422
O4    O     O_3   0.500010 0.500000 0.750010 -0.540188
O5    O     O_R   0.914560 0.853840 0.195310 -0.634165
O6    O     O_R   0.085440 0.146160 0.804690 -0.643717
O7    O     O_R   0.085440 0.853840 0.804690 -0.635042
O8    O     O_R   0.914560 0.146160 0.195310 -0.646665
O9    O     O_R   0.414560 0.353840 0.195310 -0.633650
O10   O     O_R   0.585440 0.646160 0.804690 -0.634316
O11   O     O_R   0.585440 0.353840 0.804690 -0.630592
O12   O     O_R   0.414560 0.646160 0.195310 -0.633785
O13   O     O_R   0.085440 0.146150 0.366190 -0.643495
O14   O     O_R   0.914560 0.853850 0.633810 -0.598131
O15   O     O_R   0.914560 0.146150 0.633810 -0.646280
O16   O     O_R   0.085440 0.853850 0.366190 -0.598059
O17   O     O_R   0.585440 0.646150 0.366190 -0.613350
O18   O     O_R   0.414560 0.353850 0.633810 -0.639427
O19   O     O_R   0.414560 0.646150 0.633810 -0.608714
O20   O     O_R   0.585440 0.353850 0.366190 -0.643519
O21   O     O_R   0.853820 0.085430 0.073070 -0.550495
O22   O     O_R   0.146180 0.914570 0.926930 -0.627419
O23   O     O_R   0.146180 0.085430 0.926930 -0.552156
O24   O     O_R   0.853820 0.914570 0.073070 -0.627831
O25   O     O_R   0.353820 0.585430 0.073070 -0.591682
O26   O     O_R   0.646180 0.414570 0.926930 -0.606102
O27   O     O_R   0.646180 0.585430 0.926930 -0.593163
O28   O     O_R   0.353820 0.414570 0.073070 -0.616877
O29   O     O_R   0.146150 0.914540 0.365390 -0.643102
O30   O     O_R   0.853850 0.085460 0.634610 -0.587806
O31   O     O_R   0.853850 0.914540 0.634610 -0.643428
O32   O     O_R   0.146150 0.085460 0.365390 -0.588953
O33   O     O_R   0.646150 0.414540 0.365390 -0.593558
O34   O     O_R   0.353850 0.585460 0.634610 -0.617993
O35   O     O_R   0.353850 0.414540 0.634610 -0.590470
O36   O     O_R   0.646150 0.585460 0.365390 -0.602892
O37   O     O_R   0.939240 0.000000 0.071950 -0.594649
O38   O     O_R   0.060760 0.000000 0.928050 -0.595155
O39   O     O_R   0.439240 0.500000 0.071950 -0.581262
O40   O     O_R   0.560760 0.500000 0.928050 -0.563138
O41   O     O_R   0.000020 0.939290 0.367320 -0.593088
O42   O     O_R   0.999980 0.060710 0.632680 -0.613955
O43   O     O_R   0.999980 0.939290 0.632680 -0.594108
O44   O     O_R   0.000020 0.060710 0.367320 -0.623744
O45   O     O_R   0.500020 0.439290 0.367320 -0.587766
O46   O     O_R   0.499980 0.560710 0.632680 -0.598991
O47   O     O_R   0.499980 0.439290 0.632680 -0.604750
O48   O     O_R   0.500020 0.560710 0.367320 -0.603136
O49   O     O_R   0.060680 0.000000 0.193390 -0.618958
O50   O     O_R   0.939320 0.000000 0.806610 -0.618359
O51   O     O_R   0.560680 0.500000 0.193390 -0.602010
O52   O     O_R   0.439320 0.500000 0.806610 -0.615491
C1    C     C_R   0.855842 0.863984 0.108791 0.809569
C2    C     C_R   0.139977 0.141119 0.892391 0.884311
C3    C     C_R   0.143930 0.863864 0.891215 0.809809
C4    C     C_R   0.859932 0.141142 0.107478 0.878181
C5    C     C_R   0.357356 0.362237 0.107614 0.789643
C6    C     C_R   0.640269 0.640665 0.891562 0.878498
C7    C     C_R   0.642961 0.362558 0.892562 0.816957
C8    C     C_R   0.359402 0.640367 0.108383 0.880273
C9    C     C_R   0.136611 0.143218 0.382759 0.889375
C10   C     C_R   0.860178 0.860317 0.610168 0.830825
C11   C     C_R   0.863417 0.143350 0.617090 0.893700
C12   C     C_R   0.139923 0.860377 0.390068 0.833090
C13   C     C_R   0.639787 0.639770 0.389846 0.860778
C14   C     C_R   0.363062 0.356886 0.616745 0.880667
C15   C     C_R   0.360204 0.639732 0.610153 0.843606
C16   C     C_R   0.636580 0.356655 0.382911 0.873153
C17   C     C_R   0.999162 0.994607 0.107555 0.870128
C18   C     C_R   0.000753 0.994299 0.892330 0.869558
C19   C     C_R   0.499933 0.504748 0.108770 0.848228
C20   C     C_R   0.500290 0.496117 0.891323 0.851217
C21   C     C_R   0.996147 0.999974 0.387500 0.903236
C22   C     C_R   0.004739 0.000107 0.613448 0.902314
C23   C     C_R   0.495614 0.500001 0.386931 0.908961
C24   C     C_R   0.503368 0.500229 0.612008 0.907651
C25   C     C_3   0.035222 0.941586 0.515900 -0.162052
C26   C     C_3   0.967530 0.058522 0.486822 -0.162686
C27   C     C_3   0.970346 0.940109 0.489860 -0.159600
C28   C     C_3   0.032333 0.059980 0.512782 -0.157970
C29   C     C_3   0.543738 0.450298 0.524322 -0.146361
C30   C     C_3   0.453529 0.551206 0.473099 -0.186049
C31   C     C_3   0.479762 0.435568 0.498613 -0.120503
C32   C     C_3   0.517022 0.565925 0.498136 -0.150392
C33   C     C_3   0.071850 0.001672 0.584529 0.322971
C34   C     C_3   0.931036 0.998519 0.418410 0.306932
C35   C     C_3   0.567057 0.515645 0.580296 0.313852
C36   C     C_3   0.429963 0.486110 0.416811 0.315195
H1    H     H_    0.063191 0.893268 0.528236 0.251001
H2    H     H_    0.939019 0.106636 0.473780 0.234762
H3    H     H_    0.944501 0.890596 0.479633 0.253932
H4    H     H_    0.058209 0.109372 0.522873 0.234312
H5    H     H_    0.581277 0.408943 0.545933 0.246464
H6    H     H_    0.415924 0.592552 0.451401 0.236071
H7    H     H_    0.462667 0.382145 0.496406 0.257947
H8    H     H_    0.532406 0.619715 0.498291 0.253500
C37   C     C_3   0.008151 0.000243 0.559555 -0.182705
C38   C     C_3   0.994477 0.999958 0.443144 -0.189301
C39   C     C_3   0.504689 0.500995 0.556064 -0.189236
C40   C     C_3   0.492478 0.500308 0.441099 -0.190207
H9    H     H_    0.332694 0.097069 0.447442 0.212363
H10   H     H_    0.618509 0.957807 0.305392 0.202595
H11   H     H_    0.675329 0.102035 0.566175 0.211112
H12   H     H_    0.379652 0.954830 0.698512 0.204396
H13   H     H_    0.880882 0.543420 0.696702 0.206664
H14   H     H_    0.161824 0.409203 0.541603 0.224506
H15   H     H_    0.120924 0.546127 0.300378 0.206610
H16   H     H_    0.825812 0.400108 0.436475 0.227495
C41   C     C_R   0.110770 0.291432 0.397443 -0.153352
C42   C     C_R   0.897638 0.716972 0.676943 -0.203695
C43   C     C_R   0.884918 0.289374 0.591441 -0.153462
C44   C     C_R   0.103272 0.718462 0.321436 -0.205391
C45   C     C_R   0.601514 0.784608 0.325657 -0.176093
C46   C     C_R   0.386666 0.210045 0.596903 -0.156756
C47   C     C_R   0.397278 0.782208 0.678056 -0.200408
C48   C     C_R   0.615350 0.211211 0.409658 -0.158509
C49   C     C_R   0.104564 0.345788 0.427820 0.170837
C50   C     C_R   0.918023 0.648188 0.712916 0.179238
C51   C     C_R   0.887729 0.341037 0.555272 0.169521
C52   C     C_R   0.083295 0.650366 0.284434 0.179560
C53   C     C_R   0.581173 0.853543 0.290098 0.189152
C54   C     C_R   0.391724 0.157811 0.563662 0.178971
C55   C     C_R   0.417338 0.850645 0.714419 0.184863
C56   C     C_R   0.612832 0.160479 0.446768 0.180984
C57   C     C_R   0.634685 0.905479 0.336465 -0.193258
C58   C     C_R   0.327887 0.131991 0.475892 -0.197646
C59   C     C_R   0.363849 0.902965 0.667036 -0.192737
C60   C     C_R   0.678041 0.135828 0.534778 -0.197058
C61   C     C_R   0.167650 0.372772 0.515117 -0.189564
C62   C     C_R   0.864778 0.595618 0.665427 -0.170273
C63   C     C_R   0.822715 0.365679 0.467125 -0.186028
C64   C     C_R   0.136627 0.597785 0.332159 -0.174273
C65   C     C_R   0.709207 0.889753 0.420044 0.296800
C66   C     C_R   0.258278 0.153286 0.423741 0.313738
C67   C     C_R   0.289678 0.888154 0.581819 0.294232
C68   C     C_R   0.746400 0.156566 0.583234 0.313865
C69   C     C_R   0.237764 0.350267 0.569603 0.313666
C70   C     C_R   0.790440 0.610682 0.580680 0.289954
C71   C     C_R   0.754139 0.344136 0.417685 0.319091
C72   C     C_R   0.210625 0.612120 0.418124 0.290477
C73   C     C_R   0.730579 0.820970 0.462524 -0.034548
C74   C     C_R   0.253585 0.197005 0.464205 -0.023347
C75   C     C_R   0.268876 0.820100 0.538759 -0.034141
C76   C     C_R   0.748282 0.198572 0.538851 -0.025129
C77   C     C_R   0.244015 0.304786 0.531646 -0.018685
C78   C     C_R   0.769179 0.679375 0.538084 -0.036445
C79   C     C_R   0.751911 0.301662 0.461537 -0.021388
C80   C     C_R   0.231376 0.680083 0.461344 -0.036193
C81   C     C_R   0.180615 0.266417 0.452021 0.011138
C82   C     C_R   0.823629 0.733856 0.588930 0.015575
C83   C     C_R   0.816654 0.264696 0.541758 0.010024
C84   C     C_R   0.176883 0.734571 0.410402 0.012518
C85   C     C_R   0.675961 0.766799 0.412185 0.009272
C86   C     C_R   0.317313 0.234826 0.544157 0.011319
C87   C     C_R   0.323442 0.765714 0.589594 0.004590
C88   C     C_R   0.683483 0.235493 0.458646 0.011744
C89   C     C_R   0.803739 0.804343 0.552345 -0.083283
C90   C     C_R   0.188153 0.205215 0.427680 -0.098116
C91   C     C_R   0.196315 0.804334 0.447901 -0.084510
C92   C     C_R   0.811845 0.205520 0.571405 -0.098877
C93   C     C_R   0.310321 0.295595 0.569808 -0.094132
C94   C     C_R   0.696132 0.695879 0.448011 -0.082804
C95   C     C_R   0.688203 0.294530 0.428721 -0.091435
C96   C     C_R   0.303874 0.695797 0.552305 -0.084458
H17   H     H_    0.060620 0.270512 0.329853 0.181456
H18   H     H_    0.941250 0.756408 0.719542 0.153258
H19   H     H_    0.936515 0.270697 0.659780 0.184534
H20   H     H_    0.059678 0.758004 0.278963 0.151736
H21   H     H_    0.557426 0.745857 0.283728 0.180634
H22   H     H_    0.437360 0.229692 0.665006 0.181256
H23   H     H_    0.441022 0.742849 0.720413 0.173435
H24   H     H_    0.563595 0.229676 0.341299 0.177942
C97   C     C_R   0.819735 0.790017 0.172104 0.100218
C98   C     C_R   0.197951 0.208500 0.857174 0.068199
C99   C     C_R   0.178371 0.789530 0.826955 0.103970
C100  C     C_R   0.790032 0.201465 0.130087 0.053314
C101  C     C_R   0.308744 0.310794 0.157305 0.080895
C102  C     C_R   0.678382 0.733590 0.841486 0.088299
C103  C     C_R   0.699752 0.318736 0.849959 0.058729
C104  C     C_R   0.324256 0.734639 0.161671 0.086101
C105  C     C_R   0.822198 0.739779 0.214785 0.160055
C106  C     C_R   0.193558 0.254965 0.809845 0.182170
C107  C     C_R   0.174069 0.738692 0.783059 0.158623
C108  C     C_R   0.789798 0.244639 0.174448 0.185648
C109  C     C_R   0.323241 0.265601 0.213568 0.197831
C110  C     C_R   0.659431 0.790157 0.788730 0.167954
C111  C     C_R   0.692480 0.277335 0.798353 0.216838
C112  C     C_R   0.343360 0.792196 0.213486 0.170158
C113  C     C_R   0.285671 0.200001 0.177716 0.149949
C114  C     C_R   0.668648 0.861668 0.814878 0.115793
C115  C     C_R   0.724514 0.209355 0.829590 0.145227
C116  C     C_R   0.332650 0.863271 0.185148 0.117744
C117  C     C_R   0.767617 0.686381 0.161285 0.142351
C118  C     C_R   0.206600 0.329008 0.829481 0.103474
C119  C     C_R   0.227319 0.683902 0.835630 0.142567
C120  C     C_R   0.784759 0.319776 0.164549 0.114156
C121  C     C_R   0.233841 0.182731 0.086269 0.221704
C122  C     C_R   0.707729 0.875627 0.900796 0.201154
C123  C     C_R   0.771188 0.187612 0.917628 0.224107
C124  C     C_R   0.292684 0.876146 0.098553 0.202205
C125  C     C_R   0.714311 0.683236 0.067385 0.230504
C126  C     C_R   0.229362 0.355053 0.901227 0.186151
C127  C     C_R   0.281413 0.680962 0.929769 0.231015
C128  C     C_R   0.767750 0.350117 0.098678 0.192449
C129  C     C_R   0.234724 0.219706 0.038271 -0.074736
C130  C     C_R   0.733254 0.816081 0.956214 -0.088402
C131  C     C_R   0.768500 0.223145 0.964108 -0.076666
C132  C     C_R   0.266701 0.815942 0.043825 -0.091339
C133  C     C_R   0.729561 0.717923 0.034448 -0.074513
C134  C     C_R   0.243127 0.304989 0.955815 -0.090896
C135  C     C_R   0.267629 0.716345 0.963958 -0.074338
C136  C     C_R   0.755752 0.303468 0.043690 -0.086223
C137  C     C_R   0.782080 0.774567 0.087670 -0.057885
C138  C     C_R   0.211897 0.236434 0.921222 -0.088861
C139  C     C_R   0.216069 0.773649 0.911446 -0.059429
C140  C     C_R   0.784376 0.233771 0.074918 -0.081932
C141  C     C_R   0.278383 0.282674 0.080742 -0.079418
C142  C     C_R   0.701617 0.748851 0.915708 -0.090552
C143  C     C_R   0.725652 0.287081 0.922506 -0.072397
C144  C     C_R   0.298587 0.748684 0.085111 -0.086703
C145  C     C_R   0.198255 0.197404 0.953875 -0.037990
C146  C     C_R   0.788501 0.819952 0.050201 -0.001678
C147  C     C_R   0.801483 0.197594 0.045418 -0.037915
C148  C     C_R   0.210874 0.819498 0.949652 0.000211
C149  C     C_R   0.693488 0.700889 0.950000 -0.027999
C150  C     C_R   0.289472 0.319141 0.045308 0.001686
C151  C     C_R   0.305360 0.700071 0.049731 -0.027979
C152  C     C_R   0.711761 0.320661 0.955818 -0.005730
H25   H     H_    0.248026 0.936893 0.299445 0.194531
H26   H     H_    0.751511 0.937311 0.700024 0.193640
H27   H     H_    0.503953 0.255221 0.062767 0.178737
H28   H     H_    0.462505 0.741739 0.905949 0.179128
C153  C     C_R   0.870596 0.018522 0.903619 0.287953
C154  C     C_R   0.128319 0.017903 0.095169 0.291455
C155  C     C_R   0.513546 0.638186 0.059912 0.218783
C156  C     C_R   0.515454 0.360355 0.966889 0.168711
C157  C     C_R   0.803086 0.998114 0.813292 -0.035988
C158  C     C_R   0.196051 0.997750 0.185665 -0.031796
C159  C     C_R   0.496546 0.699652 0.013815 -0.063990
C160  C     C_R   0.513982 0.298660 0.996476 -0.060724
C161  C     C_R   0.802792 0.950867 0.770887 -0.106942
C162  C     C_R   0.196634 0.950514 0.228561 -0.104436
C163  C     C_R   0.474927 0.693815 0.940810 -0.090817
C164  C     C_R   0.505280 0.303608 0.040679 -0.081878
C165  C     C_R   0.870173 0.932747 0.816136 -0.098222
C166  C     C_R   0.129323 0.932358 0.183553 -0.101758
C167  C     C_R   0.474924 0.626884 0.917142 -0.035716
C168  C     C_R   0.500068 0.370510 0.058632 -0.053302
C169  C     C_R   0.936117 0.954353 0.907272 0.040418
C170  C     C_R   0.063278 0.953846 0.092225 0.037014
C171  C     C_R   0.491769 0.563347 0.962541 0.059970
C172  C     C_R   0.502246 0.434766 0.031158 0.058541
C173  C     C_R   0.932240 0.976219 0.954875 -0.044414
C174  C     C_R   0.067225 0.975159 0.044526 -0.049794
C175  C     C_R   0.502962 0.568085 0.027485 0.026453
C176  C     C_R   0.506888 0.430445 0.981312 0.026357
C177  C     C_R   0.002088 0.972723 0.948375 -0.158776
C178  C     C_R   0.997492 0.973265 0.051205 -0.157804
C179  C     C_R   0.500169 0.495948 0.946392 -0.070245
C180  C     C_R   0.501692 0.503014 0.054963 -0.071969
H29   H     H_    0.753408 0.027506 0.771842 0.241530
H30   H     H_    0.245799 0.026543 0.226407 0.243296
H31   H     H_    0.503101 0.752737 0.037041 0.182096
H32   H     H_    0.519886 0.245766 0.985393 0.185347
H33   H     H_    0.870468 0.905868 0.779326 0.158834
H34   H     H_    0.129165 0.905626 0.220648 0.159562
H35   H     H_    0.462383 0.625938 0.863574 0.146899
H36   H     H_    0.494833 0.370984 0.095033 0.130602
N1    N     N_R   0.151346 0.004228 0.672590 0.229373
O53   O     O_R   0.191133 0.949849 0.697761 -0.310843
O54   O     O_R   0.183092 0.066543 0.709048 -0.287330
N2    N     N_R   0.851827 0.998253 0.330101 0.228582
O55   O     O_R   0.812268 0.946436 0.309565 -0.299279
O56   O     O_R   0.819423 0.057419 0.283337 -0.292341
N3    N     N_R   0.644059 0.533212 0.667589 0.231740
O57   O     O_R   0.666514 0.598185 0.680065 -0.295741
O58   O     O_R   0.692417 0.481552 0.716361 -0.291184
N4    N     N_R   0.352129 0.471901 0.329356 0.231356
O59   O     O_R   0.324221 0.411003 0.316386 -0.296175
O60   O     O_R   0.307876 0.525759 0.276409 -0.317854
N5    N     N_R   0.177347 0.133899 0.042980 0.224329
O61   O     O_R   0.194260 0.067798 0.071680 -0.318708
O62   O     O_R   0.108633 0.154223 0.971333 -0.399406
N6    N     N_R   0.708922 0.947045 0.924078 0.247502
O63   O     O_R   0.703805 0.004233 0.890050 -0.272908
O64   O     O_R   0.708495 0.955039 0.973651 -0.357629
N7    N     N_R   0.825730 0.136004 0.960379 0.220712
O65   O     O_R   0.806281 0.070622 0.929259 -0.308804
O66   O     O_R   0.895192 0.153646 0.032682 -0.406208
N8    N     N_R   0.290432 0.947283 0.073376 0.248060
O67   O     O_R   0.296031 0.004938 0.107156 -0.283947
O68   O     O_R   0.288935 0.954646 0.021781 -0.360292
N9    N     N_R   0.640648 0.660530 0.005729 0.223397
O69   O     O_R   0.629552 0.613120 0.030661 -0.329294
O70   O     O_R   0.584381 0.696689 0.931375 -0.457888
N10   N     N_R   0.222424 0.430766 0.905815 0.253605
O71   O     O_R   0.240234 0.479835 0.890091 -0.271832
O72   O     O_R   0.198856 0.451040 0.927256 -0.346010
N11   N     N_R   0.355251 0.660904 0.990476 0.222619
O73   O     O_R   0.367214 0.613115 0.966967 -0.332533
O74   O     O_R   0.410131 0.699958 0.061984 -0.432600
N12   N     N_R   0.772908 0.426833 0.096463 0.260560
O75   O     O_R   0.745535 0.471104 0.102726 -0.265886
O76   O     O_R   0.800600 0.452655 0.081819 -0.341167
I1    I     I_    0.893651 0.129235 0.913954 -0.002167
I2    I     I_    0.102122 0.128056 0.081263 0.008522
I3    I     I_    0.574455 0.662960 0.189150 -0.188086
I4    I     I_    0.535323 0.332869 0.907870 -0.259044
I5    I     I_    0.999296 0.381435 0.344778 -0.103021
I6    I     I_    0.029625 0.625080 0.842329 -0.215283
I7    I     I_    0.990643 0.376874 0.631491 -0.095612
I8    I     I_    0.972244 0.628307 0.153425 -0.219440
I9    I     I_    0.469056 0.877764 0.162939 -0.151679
I10   I     I_    0.496261 0.123827 0.642939 -0.052138
I11   I     I_    0.528860 0.873967 0.843652 -0.156492
I12   I     I_    0.510214 0.126426 0.372571 -0.052347
N13   N     N_R   0.761457 0.942227 0.455143 0.191164
O77   O     O_R   0.804312 0.926705 0.459622 -0.357998
O78   O     O_R   0.753467 0.009366 0.460375 -0.398347
N14   N     N_R   0.194670 0.139240 0.327680 0.240320
O79   O     O_R   0.139713 0.184349 0.271164 -0.357105
O80   O     O_R   0.195031 0.085950 0.295514 -0.375245
N15   N     N_R   0.236971 0.940625 0.545471 0.189767
O81   O     O_R   0.192755 0.924723 0.538763 -0.364111
O82   O     O_R   0.245920 0.007917 0.541916 -0.396802
N16   N     N_R   0.811910 0.143109 0.679431 0.237846
O83   O     O_R   0.866779 0.188203 0.733625 -0.359286
O84   O     O_R   0.813727 0.090217 0.714294 -0.376657
N17   N     N_R   0.299799 0.363877 0.665581 0.233472
O85   O     O_R   0.299594 0.418793 0.696570 -0.317204
O86   O     O_R   0.351776 0.315969 0.722616 -0.383850
N18   N     N_R   0.738089 0.557941 0.544859 0.185923
O87   O     O_R   0.747140 0.490803 0.541201 -0.391507
O88   O     O_R   0.694295 0.573318 0.538894 -0.371291
N19   N     N_R   0.688971 0.356919 0.321215 0.229414
O89   O     O_R   0.687824 0.408176 0.285625 -0.318620
O90   O     O_R   0.634227 0.311718 0.267532 -0.435237
N20   N     N_R   0.263310 0.559265 0.455064 0.187513
O91   O     O_R   0.253949 0.492179 0.458621 -0.392863
O92   O     O_R   0.307781 0.574456 0.462023 -0.383266
N21   N     N_R   0.637231 0.919035 0.753512 0.288475
O93   O     O_R   0.565991 0.923821 0.676837 -0.278641
O94   O     O_R   0.679251 0.956474 0.765443 -0.288132
N22   N     N_R   0.297649 0.151945 0.232302 0.244967
O95   O     O_R   0.349291 0.103684 0.280984 -0.261965
O96   O     O_R   0.270051 0.166667 0.249582 -0.308440
N23   N     N_R   0.362990 0.921487 0.244857 0.289044
O97   O     O_R   0.320216 0.958545 0.231813 -0.290916
O98   O     O_R   0.434126 0.927552 0.321354 -0.276564
N24   N     N_R   0.708821 0.161524 0.771760 0.231856
O99   O     O_R   0.667583 0.105666 0.738922 -0.272973
O100  O     O_R   0.720756 0.181145 0.736220 -0.303871
N25   N     N_R   0.197399 0.377108 0.777163 0.283511
O101  O     O_R   0.134840 0.379658 0.689382 -0.252574
O102  O     O_R   0.254978 0.407724 0.814911 -0.260784
N26   N     N_R   0.762195 0.640343 0.200140 0.287527
O103  O     O_R   0.801825 0.582062 0.242647 -0.223814
O104  O     O_R   0.723873 0.660327 0.201468 -0.270282
N27   N     N_R   0.795099 0.364498 0.219616 0.272438
O105  O     O_R   0.754728 0.355055 0.219877 -0.270371
O106  O     O_R   0.847913 0.411805 0.273885 -0.239004
N28   N     N_R   0.231321 0.636828 0.795980 0.290625
O107  O     O_R   0.188191 0.581050 0.750074 -0.225163
O108  O     O_R   0.269612 0.655276 0.794180 -0.277179
I13   I     I_    0.829109 0.898384 0.205340 -0.092160
I14   I     I_    0.214907 0.096788 0.859886 -0.089423
I15   I     I_    0.171696 0.898118 0.795575 -0.097531
I16   I     I_    0.771448 0.089231 0.119841 -0.067155
I17   I     I_    0.308119 0.424192 0.168803 -0.093585
I18   I     I_    0.705188 0.631814 0.837043 -0.094380
I19   I     I_    0.690766 0.432389 0.832665 -0.115759
I20   I     I_    0.305272 0.631985 0.176470 -0.111195
N29   N     N_R   0.874537 0.749041 0.309107 0.255206
O109  O     O_R   0.856591 0.736341 0.338851 -0.253454
O110  O     O_R   0.940033 0.774047 0.365309 -0.319561
N30   N     N_R   0.173214 0.227256 0.739593 0.272006
O111  O     O_R   0.111491 0.192398 0.671952 -0.327780
O112  O     O_R   0.212127 0.242797 0.738112 -0.275241
N31   N     N_R   0.121550 0.748680 0.688720 0.254970
O113  O     O_R   0.138418 0.734141 0.658010 -0.257454
O114  O     O_R   0.057023 0.776038 0.633472 -0.322738
N32   N     N_R   0.797704 0.212565 0.232424 0.272417
O115  O     O_R   0.739254 0.192942 0.198891 -0.272049
O116  O     O_R   0.861082 0.215037 0.319970 -0.313561
N33   N     N_R   0.377478 0.285876 0.306410 0.257466
O117  O     O_R   0.371840 0.266310 0.348876 -0.252916
O118  O     O_R   0.436217 0.320581 0.351340 -0.353724
N34   N     N_R   0.629200 0.775158 0.707928 0.268500
O119  O     O_R   0.579829 0.724987 0.652393 -0.302733
O120  O     O_R   0.649109 0.812929 0.687962 -0.289456
N35   N     N_R   0.651324 0.303957 0.713576 0.258900
O121  O     O_R   0.684843 0.322463 0.704982 -0.275291
O122  O     O_R   0.581229 0.316595 0.647797 -0.366938
N36   N     N_R   0.375258 0.778694 0.295731 0.262304
O123  O     O_R   0.354181 0.815586 0.314533 -0.297577
O124  O     O_R   0.427712 0.731394 0.354014 -0.324134

loop_
_geom_bond_atom_site_label_1
_geom_bond_atom_site_label_2
_geom_bond_distance
_ccdc_geom_bond_type
C84   C91   1.421227 A    
C153  C157  1.403895 A    
N21   O93   1.300707 A    
C45   H21   1.078391 S    
C33   C37   1.540446 S    
N3    O57   1.300498 A    
C164  C168  1.384389 A    
C48   H24   1.081448 S    
C66   N14   1.440412 S    
N7    O66   1.303263 A    
N13   O77   1.302259 A    
C167  C171  1.420831 A    
C47   C87   1.420032 A    
O26   C7    1.259807 A    
C15   C96   1.458305 S    
C161  C165  1.398623 A    
C13   C94   1.460691 S    
C163  C167  1.386771 A    
O30   C11   1.294856 A    
C103  C111  1.386148 A    
C101  C109  1.387566 A    
N26   O103  1.300247 A    
Zn12  O26   1.950791 S    
C122  C130  1.420696 A    
C73   C85   1.418018 A    
C36   C40   1.537936 S    
C74   C90   1.420453 A    
C112  C116  1.407773 A    
C109  N33   1.441393 S    
C2    C145  1.488979 S    
C104  C112  1.404891 A    
C63   C71   1.403939 A    
C27   C34   1.533429 S    
C114  C122  1.417948 A    
C59   C67   1.398824 A    
C28   H4    1.110474 S    
C28   C38   1.541916 S    
C154  I2    2.125657 S    
O11   C7    1.306167 A    
O34   C15   1.289410 A    
C50   C62   1.383403 A    
H16   C63   1.082427 S    
C70   N18   1.433870 S    
C80   C84   1.418167 A    
N30   O112  1.301177 A    
Zn1   O44   1.955536 S    
C25   C33   1.536186 S    
N16   O83   1.301710 A    
C120  C128  1.411311 A    
C42   C82   1.419681 A    
Zn5   O48   1.955536 S    
C69   C77   1.428392 A    
C98   C138  1.415397 A    
C125  N9    1.439732 S    
Zn6   O47   1.955536 S    
C106  N30   1.433076 S    
C124  C132  1.420785 A    
Zn7   O46   1.957816 S    
C34   C38   1.536607 S    
O16   C12   1.280988 A    
H28   C163  1.082813 S    
C35   N3    1.455389 S    
N7    O65   1.299760 A    
C62   C70   1.398899 A    
Zn16  O4    1.954424 S    
C171  C179  1.413975 A    
Zn12  O4    1.926578 S    
Zn1   O13   1.937272 S    
N8    O67   1.299680 A    
C76   C88   1.411863 A    
C33   N1    1.456443 S    
C26   C28   1.557756 S    
H25   C162  1.082326 S    
Zn4   O16   1.936633 S    
C75   C87   1.418102 A    
C88   C95   1.417431 A    
N29   O109  1.300699 A    
C49   C61   1.390275 A    
C77   C93   1.425529 A    
C46   C54   1.391638 A    
N6    O63   1.299592 A    
C97   C105  1.395316 A    
C130  C142  1.392738 A    
C126  N10   1.443916 S    
N14   O79   1.301750 A    
C49   I5    2.109055 S    
N27   O105  1.301060 A    
Zn10  O22   1.950791 S    
C117  C125  1.417184 A    
C3    C148  1.486384 S    
H9    C58   1.082585 S    
N1    O54   1.298350 A    
C131  C147  1.454953 A    
O25   C8    1.281950 A    
Zn13  O29   1.944262 S    
Zn10  O2    1.926578 S    
C176  C179  1.420885 A    
C110  N34   1.437559 S    
N18   O87   1.301167 A    
O29   C12   1.289093 A    
C25   C38   1.543224 S    
Zn15  O33   1.944262 S    
N33   O118  1.300021 A    
C45   C53   1.386487 A    
C26   C34   1.532885 S    
C99   C139  1.410564 A    
O37   C17   1.267944 A    
C48   C88   1.412262 A    
O48   C23   1.288920 A    
N28   O107  1.300222 A    
C36   N4    1.454379 S    
C126  C134  1.423660 A    
C77   C81   1.412267 A    
N2    O56   1.296542 A    
C47   H23   1.079492 S    
C135  C139  1.416196 A    
C9    C90   1.495084 S    
C101  I17   2.130141 S    
N19   O89   1.301704 A    
Zn16  O35   1.947189 S    
C156  I4    2.138866 S    
N33   O117  1.299964 A    
C55   I11   2.112792 S    
C17   C178  1.468531 S    
Zn7   O10   1.929930 S    
C173  C178  1.421156 A    
C120  N27   1.435131 S    
O33   C16   1.294849 A    
N3    O58   1.299389 A    
C46   C86   1.412564 A    
C134  C150  1.411539 A    
C23   C40   1.483023 S    
C34   N2    1.452426 S    
C127  N11   1.435878 S    
N12   O76   1.301663 A    
C55   C59   1.383624 A    
C71   N19   1.441352 S    
C5    C150  1.478026 S    
C172  C176  1.414504 A    
Zn5   O17   1.937272 S    
C107  N31   1.441295 S    
C100  C108  1.405715 A    
Zn15  O51   1.946912 S    
C25   C27   1.558646 S    
N5    O62   1.303122 A    
C162  C166  1.399397 A    
C171  C175  1.403827 A    
N22   O95   1.299199 A    
C26   C37   1.542329 S    
N9    O70   1.301534 A    
C175  C180  1.417533 A    
Zn8   O3    1.968947 S    
C18   C177  1.468542 S    
C8    C151  1.482799 S    
N34   O119  1.301407 A    
C121  C129  1.436746 A    
O38   C18   1.269251 A    
C74   C86   1.411981 A    
C105  N29   1.441483 S    
C71   C79   1.428007 A    
C81   C90   1.413315 A    
C134  C138  1.396456 A    
C103  I19   2.127126 S    
O5    C1    1.289106 A    
C139  C148  1.414193 A    
C67   C75   1.438288 A    
O32   C9    1.292814 A    
C41   C81   1.411386 A    
C140  C147  1.419048 A    
C29   H5    1.110102 S    
C79   C83   1.411933 A    
C31   H7    1.109550 S    
C172  C180  1.416779 A    
C4    C147  1.492224 S    
Zn11  O28   1.951015 S    
C132  C148  1.407424 A    
C42   C50   1.386798 A    
N36   O123  1.301180 A    
C52   C64   1.383470 A    
C157  H29   1.077466 S    
C165  H33   1.082295 S    
C169  C177  1.408880 A    
C51   C63   1.390637 A    
C79   C95   1.420802 A    
N32   O116  1.300854 A    
O8    C4    1.304428 A    
C50   I6    2.112704 S    
Zn9   O1    1.926578 S    
C129  C141  1.413569 A    
C11   C92   1.494980 S    
C70   C78   1.438647 A    
C12   C91   1.458778 S    
O50   C18   1.274796 A    
C124  N8    1.446968 S    
C123  N7    1.414052 S    
Zn1   O1    1.973462 S    
Zn13  O1    1.954423 S    
Zn2   O14   1.937271 S    
C60   C68   1.403621 A    
H26   C161  1.082342 S    
C155  I3    2.120403 S    
C30   C39   1.542052 S    
C160  C164  1.382068 A    
N26   O104  1.301673 A    
O9    C5    1.302362 A    
C56   I12   2.108718 S    
O39   C19   1.273347 A    
O36   C13   1.292968 A    
C106  C118  1.405960 A    
C78   C94   1.422730 A    
C47   C55   1.387220 A    
C157  C161  1.399663 A    
C141  C150  1.395945 A    
O13   C9    1.299998 A    
H15   C64   1.083118 S    
Zn1   O8    1.927393 S    
C73   C89   1.422366 A    
N20   O91   1.301117 A    
C72   N20   1.433500 S    
Zn2   O7    1.927391 S    
C109  C113  1.397529 A    
H13   C62   1.083098 S    
C138  C145  1.422470 A    
O18   C14   1.301363 A    
O31   C10   1.290841 A    
O6    C2    1.302133 A    
C118  N25   1.434167 S    
C125  C133  1.431641 A    
N25   O102  1.301184 A    
C154  C158  1.404193 A    
C30   H6    1.110510 S    
C32   C40   1.543738 S    
H10   C57   1.083101 S    
H27   C164  1.082737 S    
C119  C127  1.416153 A    
Zn14  O30   1.944259 S    
Zn15  O3    1.954423 S    
Zn11  O3    1.926578 S    
O41   C21   1.290860 A    
C144  C151  1.423348 A    
C20   C179  1.426380 S    
Zn16  O34   1.944259 S    
C44   C52   1.386791 A    
C119  N28   1.431665 S    
C31   C39   1.543373 S    
N4    O59   1.299857 A    
N16   O84   1.300194 A    
C133  C149  1.438247 A    
C102  C110  1.403911 A    
C128  C136  1.424802 A    
Zn8   O20   1.936633 S    
C101  C141  1.409002 A    
C169  C173  1.394849 A    
N24   O99   1.299376 A    
C113  N22   1.429704 S    
C7    C152  1.479202 S    
C78   C82   1.418582 A    
C68   N16   1.439862 S    
C10   C89   1.459878 S    
N8    O68   1.301506 A    
N23   O97   1.298525 A    
N17   O86   1.300775 A    
C1    C146  1.490500 S    
C80   C96   1.422852 A    
C31   C36   1.534003 S    
C113  C121  1.416973 A    
N11   O73   1.298105 A    
N21   O94   1.298387 A    
C28   C33   1.535064 S    
H11   C60   1.082658 S    
C174  C177  1.418414 A    
C103  C143  1.413663 A    
H12   C59   1.083068 S    
C67   N15   1.433674 S    
C153  I1    2.124585 S    
N6    O64   1.301218 A    
N13   O78   1.302320 A    
C86   C93   1.417523 A    
C41   H17   1.081948 S    
C153  C173  1.395899 A    
N14   O80   1.300223 A    
C54   C58   1.390688 A    
O19   C15   1.280530 A    
C104  C144  1.412104 A    
N9    O69   1.298079 A    
Zn9   O24   1.951015 S    
C133  C137  1.419913 A    
Zn6   O18   1.937271 S    
Zn10  O23   1.951013 S    
C16   C95   1.494693 S    
C35   C39   1.535892 S    
C165  C169  1.412132 A    
N1    O53   1.301006 A    
O7    C3    1.289499 A    
C155  C159  1.397135 A    
N15   O81   1.301247 A    
C115  C123  1.411484 A    
Zn15  O36   1.947188 S    
C29   C40   1.543020 S    
O15   C11   1.296193 A    
O42   C22   1.289856 A    
C27   H3    1.110503 S    
Zn4   O1    1.968947 S    
C32   H8    1.110336 S    
C30   C32   1.556785 S    
C168  H36   1.081772 S    
C52   I8    2.112506 S    
Zn9   O37   1.960861 S    
Zn8   O9    1.929932 S    
O12   C8    1.289289 A    
C136  C140  1.395409 A    
Zn11  O39   1.960861 S    
C117  N26   1.431469 S    
C100  C140  1.414277 A    
C53   C57   1.383196 A    
C21   C38   1.482055 S    
C82   C89   1.421937 A    
C66   C74   1.426964 A    
Zn2   O43   1.955536 S    
C56   C60   1.390116 A    
N34   O120  1.301156 A    
N30   O111  1.301036 A    
C102  I18   2.116554 S    
C118  C126  1.412284 A    
N23   O98   1.300734 A    
N31   O113  1.300583 A    
N19   O90   1.301517 A    
Zn5   O3    1.973462 S    
C48   C56   1.391283 A    
Zn6   O4    1.973464 S    
C58   C66   1.404252 A    
C132  C144  1.395345 A    
C158  H30   1.077634 S    
C166  H34   1.082262 S    
C170  C178  1.409858 A    
C14   C93   1.496412 S    
N10   O72   1.301866 A    
C32   C35   1.535191 S    
O28   C5    1.259211 A    
C24   C39   1.480593 S    
C143  C152  1.397705 A    
O40   C20   1.267140 A    
Zn3   O42   1.957816 S    
Zn7   O4    1.968946 S    
O21   C4    1.272484 A    
C129  C145  1.456495 A    
N29   O110  1.301630 A    
C64   C72   1.398818 A    
C127  C135  1.429949 A    
C137  C146  1.417897 A    
C65   C73   1.438479 A    
C121  N5    1.414282 S    
C111  N35   1.429533 S    
C68   C76   1.427011 A    
Zn2   O2    1.973464 S    
C43   H19   1.081600 S    
N5    O61   1.299544 A    
Zn14  O2    1.954424 S    
C97   C137  1.409685 A    
C44   H20   1.079515 S    
N22   O96   1.299903 A    
C57   C65   1.398865 A    
Zn13  O49   1.946912 S    
O44   C21   1.289172 A    
N10   O71   1.300534 A    
C54   I10   2.111525 S    
C108  C120  1.403640 A    
C45   C85   1.420024 A    
C99   C107  1.395403 A    
Zn12  O27   1.951013 S    
C135  C151  1.439845 A    
C22   C37   1.483298 S    
C158  C162  1.400236 A    
C167  H35   1.081242 S    
Zn3   O2    1.968946 S    
H14   C61   1.082464 S    
C65   N13   1.434284 S    
C97   I13   2.112747 S    
C25   H1    1.110521 S    
C6    C149  1.483246 S    
C99   I15   2.116794 S    
C136  C152  1.412435 A    
O47   C24   1.292043 A    
C102  C142  1.406911 A    
N35   O121  1.300535 A    
Zn16  O52   1.946914 S    
N36   O124  1.301282 A    
C98   C106  1.405337 A    
C69   N17   1.439123 S    
C156  C160  1.397963 A    
C61   C69   1.403976 A    
O27   C6    1.279462 A    
N35   O122  1.299349 A    
C116  C124  1.416525 A    
C75   C91   1.422740 A    
C76   C92   1.420065 A    
C116  N23   1.428416 S    
Zn10  O38   1.960859 S    
N18   O88   1.301331 A    
C29   C31   1.560251 S    
C128  N12   1.440404 S    
N27   O106  1.300715 A    
C51   I7    2.108033 S    
C159  C163  1.383476 A    
N11   O74   1.300616 A    
O24   C1    1.279679 A    
C170  C174  1.394217 A    
C155  C175  1.432272 A    
C156  C176  1.441535 A    
C111  C115  1.389762 A    
C130  C146  1.407710 A    
O46   C24   1.287149 A    
C100  I16   2.122907 S    
O43   C22   1.290817 A    
Zn4   O41   1.957816 S    
Zn3   O15   1.936633 S    
N12   O75   1.301691 A    
Zn5   O12   1.927393 S    
Zn6   O11   1.927391 S    
C168  C172  1.417634 A    
Zn9   O21   1.950790 S    
Zn14  O50   1.946914 S    
C29   C35   1.535988 S    
C114  N21   1.428457 S    
O35   C14   1.292740 A    
Zn12  O40   1.960859 S    
C131  C143  1.419374 A    
C122  N6    1.445420 S    
C112  N36   1.437299 S    
N15   O82   1.301085 A    
N20   O92   1.301275 A    
O52   C20   1.258487 A    
C87   C96   1.421556 A    
C42   H18   1.079178 S    
C19   C180  1.437375 S    
C154  C174  1.393265 A    
C85   C94   1.422887 A    
C44   C84   1.419549 A    
N25   O101  1.300784 A    
C41   C49   1.390525 A    
C98   I14   2.130995 S    
O22   C3    1.280460 A    
C26   H2    1.110491 S    
C159  H31   1.082863 S    
Zn7   O19   1.936633 S    
C160  H32   1.082926 S    
O20   C16   1.296081 A    
Zn3   O6    1.929930 S    
C123  C131  1.434791 A    
C166  C170  1.412611 A    
Zn13  O32   1.947188 S    
C46   H22   1.081645 S    
O49   C17   1.276436 A    
Zn14  O31   1.947189 S    
Zn8   O45   1.957816 S    
O51   C19   1.257556 A    
C115  N24   1.432429 S    
N2    O55   1.301044 A    
C108  N32   1.428418 S    
N4    O60   1.299024 A    
Zn4   O5    1.929932 S    
N31   O114  1.301551 A    
O17   C13   1.280395 A    
C27   C37   1.544502 S    
C30   C36   1.534455 S    
C53   I9    2.112623 S    
O10   C6    1.288252 A    
O23   C2    1.269789 A    
Zn11  O25   1.950790 S    
C107  C119  1.402786 A    
C43   C51   1.391131 A    
N24   O100  1.300488 A    
C105  C117  1.402555 A    
C142  C149  1.420490 A    
O14   C10   1.281862 A    
C72   C80   1.438761 A    
C43   C83   1.411496 A    
C110  C114  1.408707 A    
C104  I20   2.125650 S    
N32   O115  1.300867 A    
N17   O85   1.301683 A    
N28   O108  1.301662 A    
O45   C23   1.291475 A    
C83   C92   1.416492 A    
