data_mof_unit_40435.cif
_audit_creation_date              2012-12-10T17:47:38-0500
_audit_creation_method            fapswitch 2.2
_symmetry_space_group_name_H-M    P1
_symmetry_Int_Tables_number       1
_space_group_crystal_system       triclinic
_cell_length_a                    10.718197
_cell_length_b                    10.698324
_cell_length_c                    9.971765
_cell_angle_alpha                 90.492385
_cell_angle_beta                  89.488915
_cell_angle_gamma                 93.780245
_cell_volume                      1140.85990637

loop_
_atom_site_label
_atom_site_type_symbol
_atom_type_description
_atom_site_fract_x
_atom_site_fract_y
_atom_site_fract_z
_atom_type_partial_charge
C1    C     C_R   0.515356 0.261868 0.499596 0.957630
C2    C     C_3   0.878056 0.501294 0.497993 -0.114005
C3    C     C_3   0.932932 0.600316 0.600536 -0.449343
C4    C     C_3   0.932285 0.538804 0.355632 -0.051193
C5    C     C_R   0.585656 0.119645 0.741615 -0.102430
C6    C     C_R   0.566000 0.060290 0.863989 -0.188803
C7    C     C_R   0.488542 0.951318 0.870866 -0.197676
C8    C     C_R   0.442309 0.893676 0.752880 0.283019
C9    C     C_R   0.483687 0.941978 0.626266 0.071701
C10   C     C_R   0.536174 0.064908 0.622517 0.001248
C11   C     C_R   0.535918 0.129130 0.499458 -0.154373
C12   C     C_R   0.257735 0.499770 0.500513 0.966646
C13   C     C_R   0.529264 0.061708 0.377635 0.255196
C14   C     C_R   0.500757 0.934517 0.381283 -0.285761
C15   C     C_R   0.480089 0.873440 0.503759 -0.140218
C16   C     C_R   0.358741 0.295652 0.125404 0.448408
C17   C     C_R   0.313268 0.196292 0.043463 -0.256022
C18   C     C_R   0.308344 0.210415 0.907625 -0.190414
C19   C     C_R   0.358555 0.319175 0.851734 -0.004731
C20   C     C_R   0.430773 0.408145 0.925468 0.035195
C21   C     C_R   0.430663 0.403712 0.069708 0.060489
C22   C     C_R   0.564539 0.590025 0.072981 -0.138066
C23   C     C_R   0.488949 0.739233 0.501223 0.868803
C24   C     C_R   0.567099 0.590518 0.929358 0.253625
C25   C     C_R   0.741905 0.502056 0.499312 0.876918
C26   C     C_3   0.058798 0.363631 0.511772 0.255569
C27   C     C_3   0.916880 0.368393 0.537337 0.237719
C28   C     C_3   0.073652 0.586006 0.616264 0.283922
C29   C     C_3   0.076950 0.554585 0.362331 -0.126999
C30   C     C_3   0.120592 0.500541 0.500383 -0.178852
H1    H     H_    0.894738 0.630392 0.330250 0.195131
H2    H     H_    0.122842 0.680095 0.608360 0.110159
H3    H     H_    0.917560 0.696249 0.564363 0.143229
H4    H     H_    0.640402 0.207803 0.741020 0.215281
H5    H     H_    0.603647 0.103775 0.954123 0.160453
H6    H     H_    0.460773 0.913753 0.967957 0.132312
H7    H     H_    0.500090 0.882989 0.287166 0.163216
H8    H     H_    0.616231 0.661478 0.130562 0.153201
H9    H     H_    0.069287 0.317001 0.413296 0.117080
H10   H     H_    0.265728 0.112563 0.085326 0.188338
H11   H     H_    0.259817 0.139611 0.845912 0.211616
H12   H     H_    0.338943 0.332238 0.749686 0.262645
H13   H     H_    0.867047 0.295955 0.473554 0.049215
H14   H     H_    0.885220 0.592269 0.699824 0.258020
H15   H     H_    0.116058 0.498732 0.278908 0.226269
N1    N     N_R   0.498810 0.498800 0.142780 -0.121706
N2    N     N_R   0.498760 0.498720 0.857170 -0.156916
O1    O     O_R   0.500000 0.316780 0.614690 -0.663040
O2    O     O_R   0.499990 0.316750 0.385360 -0.536548
O3    O     O_R   0.314800 0.499990 0.614670 -0.577567
O4    O     O_R   0.314790 0.499970 0.385330 -0.589481
O5    O     O_R   0.500010 0.683250 0.614640 -0.633828
O6    O     O_R   0.500000 0.683220 0.385310 -0.637359
O7    O     O_R   0.685210 0.500030 0.614670 -0.619059
O8    O     O_R   0.685200 0.500010 0.385330 -0.609789
Zn1   Zn    Zn3+2 0.500010 0.500020 0.653130 0.963135
Zn2   Zn    Zn3+2 0.499990 0.499980 0.346870 0.981714
Cl1   Cl    Cl    0.132197 0.258891 0.620869 -0.550310
N3    N     N_2   0.554597 0.119981 0.251418 -0.278500
H16   H     H_    0.516537 0.071164 0.170396 0.208229
C31   C     C_3   0.684131 0.162329 0.229414 -0.749567
H17   H     H_    0.692589 0.219042 0.136760 0.238892
H18   H     H_    0.742482 0.080679 0.218672 0.229463
H19   H     H_    0.719354 0.222562 0.313679 0.241672
N4    N     N_2   0.338616 0.804191 0.762986 -0.289546
H20   H     H_    0.352971 0.734934 0.831457 0.261895
C32   C     C_3   0.222388 0.862059 0.790292 -0.799055
H21   H     H_    0.144776 0.789839 0.803561 0.271723
H22   H     H_    0.199846 0.923815 0.706018 0.269246
H23   H     H_    0.228676 0.917214 0.885215 0.228995
Cl2   Cl    Cl    0.278242 0.276826 0.276871 -0.645191
N5    N     N_2   0.636811 0.688317 0.858531 -0.291456
H24   H     H_    0.669024 0.663492 0.765940 0.283780
C33   C     C_3   0.723752 0.775858 0.927247 -0.855288
H25   H     H_    0.676175 0.826783 0.008194 0.242733
H26   H     H_    0.762278 0.847096 0.854925 0.267106
H27   H     H_    0.802939 0.726710 0.967288 0.243633
Cl3   Cl    Cl    0.871139 0.327535 0.706808 -0.548560
Cl4   Cl    Cl    0.104276 0.530804 0.782499 -0.575341
N6    N     N_2   0.120983 0.686177 0.344936 -0.297134
H28   H     H_    0.203414 0.713086 0.392776 0.230094
C34   C     C_3   0.121803 0.732816 0.208925 -0.740658
H29   H     H_    0.156116 0.833081 0.208633 0.237729
H30   H     H_    0.026202 0.726183 0.166819 0.243157
H31   H     H_    0.185037 0.679454 0.144422 0.250318
N7    N     N_2   0.892155 0.445891 0.253329 -0.310592
H32   H     H_    0.928383 0.359433 0.259720 0.222071
C35   C     C_3   0.886233 0.489507 0.117007 -0.650301
H33   H     H_    0.831081 0.573120 0.113428 0.216700
H34   H     H_    0.839006 0.415324 0.053372 0.261838
H35   H     H_    0.981800 0.511836 0.076452 0.269300

loop_
_geom_bond_atom_site_label_1
_geom_bond_atom_site_label_2
_ccdc_geom_bond_type
C16   C21   A    
C7    H6    S    
C19   C20   A    
C1    C11   S    
C27   Cl3   S    
C7    C8    A    
C26   C27   S    
C33   H26   S    
C3    C28   S    
C5    C6    A    
N6    H28   S    
N7    C35   S    
C26   H9    S    
C4    N7    S    
C3    H3    S    
C22   H8    S    
O2    Zn2   S    
C6    H5    S    
C18   C19   A    
C31   H18   S    
C28   Cl4   S    
C8    C9    A    
N4    C32   S    
C33   H27   S    
C2    C27   S    
O4    Zn2   S    
C9    C10   A    
C4    C29   S    
C19   H12   S    
C15   C23   S    
C8    N4    S    
C13   C14   A    
C16   Cl2   S    
C23   O6    A    
O7    Zn1   S    
C3    H14   S    
N3    C31   S    
C33   H25   S    
C32   H21   S    
C4    H1    S    
C28   H2    S    
C25   O7    A    
N6    C34   S    
C18   H11   S    
O6    Zn2   S    
N7    H32   S    
C16   C17   A    
O3    Zn1   S    
C29   H15   S    
C32   H22   S    
C17   H10   S    
C31   H19   S    
C2    C4    S    
C29   C30   S    
C35   H35   S    
C5    H4    S    
C17   C18   A    
C20   C21   A    
C26   Cl1   S    
N5    C33   S    
C22   N1    A    
C35   H34   S    
C26   C30   S    
C34   H30   S    
O8    Zn2   S    
N1    Zn2   S    
C22   C24   A    
C12   O4    A    
C24   N5    S    
C21   N1    A    
O1    Zn1   S    
C12   C30   S    
C24   N2    A    
C25   O8    A    
N5    H24   S    
C12   O3    A    
C1    O1    A    
C6    C7    A    
C13   N3    S    
C34   H31   S    
C32   H23   S    
C28   C30   S    
C2    C3    S    
C9    C15   A    
C5    C10   A    
C14   H7    S    
C11   C13   A    
C23   O5    A    
C29   N6    S    
C2    C25   S    
N4    H20   S    
C31   H17   S    
C20   N2    A    
C10   C11   A    
C27   H13   S    
N3    H16   S    
C35   H33   S    
C34   H29   S    
C14   C15   A    
C1    O2    A    
O5    Zn1   S    
N2    Zn1   S    
