data_mof_unit_40204.cif
_audit_creation_date              2012-12-11T15:48:02-0500
_audit_creation_method            fapswitch 2.2
_symmetry_space_group_name_H-M    P1
_symmetry_Int_Tables_number       1
_space_group_crystal_system       triclinic
_cell_length_a                    6.931797
_cell_length_b                    17.597141
_cell_length_c                    19.44444
_cell_angle_alpha                 108.497984
_cell_angle_beta                  89.582596
_cell_angle_gamma                 90.555721
_cell_volume                      2249.16016193

loop_
_atom_site_label
_atom_site_type_symbol
_atom_type_description
_atom_site_fract_x
_atom_site_fract_y
_atom_site_fract_z
_atom_type_partial_charge
O1    O     O_R   0.494330 0.415710 0.413720 -0.541273
O2    O     O_R   0.819360 0.430070 0.560210 -0.543272
O3    O     O_R   0.994320 0.584290 0.586280 -0.540790
C1    C     C_R   0.650084 0.414497 0.581481 0.712902
O4    O     O_R   0.823740 0.406290 0.412670 -0.543764
O5    O     O_R   0.998730 0.560340 0.437690 -0.539283
C2    C     C_R   0.654752 0.383111 0.384679 0.685614
O6    O     O_R   0.489920 0.439660 0.562310 -0.539091
O7    O     O_3   0.662330 0.550570 0.508380 -0.369790
V1    V     V_3+5 0.935370 0.490620 0.498440 1.398674
O8    O     O_R   0.328720 0.569930 0.439790 -0.541878
C3    C     C_R   0.160682 0.585180 0.418234 0.711886
O9    O     O_R   0.324340 0.593710 0.587330 -0.544033
C4    C     C_R   0.155196 0.616885 0.615316 0.684733
V2    V     V_3+5 0.435940 0.509380 0.501560 1.398860
O10   O     O_3   0.159110 0.449430 0.491620 -0.369550
C5    C     C_R   0.312287 0.723647 0.718719 -0.157143
H1    H     H_    0.453183 0.704409 0.695739 0.116476
C6    C     C_R   0.301039 0.787431 0.783680 -0.151122
H2    H     H_    0.433869 0.815474 0.808612 0.118630
C7    C     C_R   0.121224 0.814645 0.815868 -0.046548
C8    C     C_R   0.952985 0.776284 0.781208 -0.157172
H3    H     H_    0.812080 0.795516 0.804182 0.116467
C9    C     C_R   0.964232 0.712506 0.716252 -0.151108
H4    H     H_    0.831390 0.684469 0.691327 0.118735
C10   C     C_R   0.144039 0.685289 0.684061 -0.046652
C11   C     C_R   0.308221 0.634570 0.321743 -0.220842
C12   C     C_R   0.153215 0.634704 0.369022 -0.083723
C13   C     C_R   0.990011 0.681518 0.368327 -0.219019
C14   C     C_R   0.981843 0.728360 0.321787 0.089151
C15   C     C_R   0.136681 0.726936 0.273855 0.053288
C16   C     C_R   0.299877 0.679468 0.273553 0.090252
C17   C     C_R   0.821579 0.776714 0.322328 -0.189336
C18   C     C_R   0.813384 0.822413 0.275154 -0.182755
C19   C     C_R   0.965015 0.820460 0.226385 0.090251
C20   C     C_R   0.128213 0.772993 0.226084 0.053283
C21   C     C_R   0.283052 0.771571 0.178152 0.089157
C22   C     C_R   0.443316 0.723217 0.177612 -0.189332
C23   C     C_R   0.451509 0.677515 0.224784 -0.182754
C24   C     C_R   0.956666 0.865355 0.178193 -0.220848
C25   C     C_R   0.111673 0.865222 0.130915 -0.083686
C26   C     C_R   0.274883 0.818412 0.131613 -0.219023
H5    H     H_    0.433917 0.598274 0.321476 0.124096
H6    H     H_    0.870269 0.682315 0.404732 0.127963
H7    H     H_    0.701696 0.778803 0.358946 0.134579
H8    H     H_    0.687499 0.858897 0.276476 0.135663
H9    H     H_    0.830967 0.901648 0.178457 0.124094
H10   H     H_    0.394624 0.817618 0.095208 0.127918
H11   H     H_    0.563200 0.721128 0.140994 0.134578
H12   H     H_    0.577393 0.641030 0.223462 0.135663
C27   C     C_R   0.467433 0.185637 0.867525 -0.219626
C28   C     C_R   0.623490 0.135857 0.870057 -0.084811
C29   C     C_R   0.784226 0.132842 0.824643 -0.220234
C30   C     C_R   0.787983 0.177577 0.776235 0.089934
C31   C     C_R   0.630978 0.227414 0.774272 0.053642
C32   C     C_R   0.470873 0.231862 0.820510 0.088066
C33   C     C_R   0.945324 0.172931 0.729291 -0.185699
C34   C     C_R   0.948324 0.217904 0.681448 -0.184698
C35   C     C_R   0.794032 0.268338 0.679670 0.088064
C36   C     C_R   0.633924 0.272788 0.725907 0.053653
C37   C     C_R   0.476918 0.322621 0.723939 0.089938
C38   C     C_R   0.319588 0.327271 0.770887 -0.185709
C39   C     C_R   0.316592 0.282301 0.818735 -0.184690
C40   C     C_R   0.797457 0.314549 0.632645 -0.219639
C41   C     C_R   0.641389 0.364315 0.630096 -0.084863
C42   C     C_R   0.480663 0.367342 0.675518 -0.220238
H13   H     H_    0.343206 0.188783 0.902497 0.129442
H14   H     H_    0.904558 0.094373 0.825821 0.125273
H15   H     H_    0.066784 0.134817 0.729842 0.133998
H16   H     H_    0.072212 0.213642 0.646141 0.134737
H17   H     H_    0.921679 0.311391 0.597670 0.129452
H18   H     H_    0.360325 0.405802 0.674328 0.125293
H19   H     H_    0.198130 0.365383 0.770334 0.134014
H20   H     H_    0.192719 0.286569 0.854045 0.134759
C43   C     C_R   0.811582 0.276346 0.281557 -0.156150
H21   H     H_    0.952281 0.295566 0.304763 0.116650
C44   C     C_R   0.800498 0.212563 0.216593 -0.151936
H22   H     H_    0.933188 0.184504 0.191888 0.118658
C45   C     C_R   0.620994 0.185363 0.184123 -0.046437
C46   C     C_R   0.452876 0.223734 0.218499 -0.156139
H23   H     H_    0.312187 0.204507 0.195287 0.116634
C47   C     C_R   0.463961 0.287522 0.283467 -0.152006
H24   H     H_    0.331283 0.315587 0.308179 0.118530
C48   C     C_R   0.643473 0.314718 0.315935 -0.046619
O11   O     O_R   0.774940 0.060470 0.937800 -0.539132
O12   O     O_R   0.440880 0.093730 0.087350 -0.543683
O13   O     O_R   0.266130 0.939630 0.062280 -0.539280
C49   C     C_R   0.609809 0.116964 0.115381 0.685893
O14   O     O_R   0.445480 0.069960 0.939820 -0.543248
O15   O     O_R   0.270770 0.915690 0.913690 -0.540807
C50   C     C_R   0.614770 0.085617 0.918619 0.712920
O16   O     O_R   0.770300 0.084410 0.086380 -0.541489
O17   O     O_3   0.602600 0.949510 0.991670 -0.369830
V3    V     V_3+5 0.329470 0.009370 0.001550 1.398731
O18   O     O_R   0.940760 0.906160 0.912560 -0.544318
C51   C     C_R   0.109969 0.883044 0.884613 0.684484
O19   O     O_R   0.936150 0.929930 0.060100 -0.541947
C52   C     C_R   0.104190 0.914741 0.081700 0.711849
V4    V     V_3+5 0.828930 0.990450 0.998310 1.398956
O20   O     O_3   0.105670 0.050490 0.008320 -0.369469

loop_
_geom_bond_atom_site_label_1
_geom_bond_atom_site_label_2
_ccdc_geom_bond_type
C24   H9    S    
C31   C32   A    
O17   V3    S    
C17   H7    S    
C25   C26   A    
O18   C51   A    
C1    O6    A    
O19   C52   A    
O11   C50   A    
C22   H11   S    
C44   H22   S    
C35   C40   A    
C38   C39   A    
C3    C12   S    
C5    C10   A    
C12   C13   A    
C6    C7    A    
C21   C22   A    
C9    C10   A    
C18   C19   A    
C15   C20   A    
O5    C3    A    
C1    C41   S    
O12   C49   A    
C43   C48   A    
C40   H17   S    
V2    O10   S    
O13   V3    S    
C21   C26   A    
C27   C32   A    
C16   C23   A    
O14   V3    S    
C29   H14   S    
O12   V3    S    
O8    V2    S    
C37   C42   A    
C42   H18   S    
C49   O16   A    
C38   H19   S    
C18   H8    S    
O9    C4    A    
O14   C50   A    
O7    V1    S    
O17   V4    S    
O13   C52   A    
C2    C48   S    
C35   C36   A    
C31   C36   A    
C45   C49   S    
O19   V4    S    
O15   V3    S    
C44   C45   A    
C27   C28   A    
C9    H4    S    
C46   C47   A    
O4    C2    A    
C34   H16   S    
C26   H10   S    
C34   C35   A    
C29   C30   A    
C36   C37   A    
C19   C20   A    
O2    C1    A    
C43   H21   S    
C13   C14   A    
O11   V4    S    
C15   C16   A    
V3    O20   S    
C14   C15   A    
C5    H1    S    
C32   C39   A    
C27   H13   S    
C4    C10   S    
C43   C44   A    
O3    C4    A    
O1    V2    S    
C24   C25   A    
C39   H20   S    
C41   C42   A    
O6    V2    S    
C47   C48   A    
O9    V2    S    
C13   H6    S    
C8    C9    A    
O2    V1    S    
C28   C29   A    
C30   C31   A    
C20   C21   A    
C14   C17   A    
C11   C16   A    
O1    C2    A    
C8    H3    S    
C46   H23   S    
O5    V1    S    
O8    C3    A    
O15   C51   A    
C7    C51   S    
V4    O20   S    
C40   C41   A    
C6    H2    S    
C19   C24   A    
O7    V2    S    
O4    V1    S    
O3    V1    S    
V1    O10   S    
C33   C34   A    
C22   C23   A    
C5    C6    A    
C17   C18   A    
O18   V4    S    
C37   C38   A    
C45   C46   A    
C11   H5    S    
C23   H12   S    
C47   H24   S    
C11   C12   A    
C25   C52   S    
C28   C50   S    
C33   H15   S    
C7    C8    A    
O16   V4    S    
C30   C33   A    
