data_mof_unit_29757.cif
_audit_creation_date              2012-12-10T17:54:28-0500
_audit_creation_method            fapswitch 2.2
_symmetry_space_group_name_H-M    P1
_symmetry_Int_Tables_number       1
_space_group_crystal_system       triclinic
_cell_length_a                    27.692347
_cell_length_b                    10.620956
_cell_length_c                    9.912577
_cell_angle_alpha                 89.94997
_cell_angle_beta                  90.189394
_cell_angle_gamma                 91.723809
_cell_volume                      2914.14300202

loop_
_atom_site_label
_atom_site_type_symbol
_atom_type_description
_atom_site_fract_x
_atom_site_fract_y
_atom_site_fract_z
_atom_type_partial_charge
Br1   Br    Br    0.981098 0.876217 0.589397 -0.580436
C1    C     C_R   0.501255 0.260741 0.500092 0.856077
C2    C     C_R   0.972874 0.372589 0.537612 0.055156
C3    C     C_R   0.976138 0.604503 0.516190 -0.023376
C4    C     C_R   0.406059 0.498883 0.499781 0.858039
C5    C     C_R   0.949228 0.488880 0.525130 0.042631
C6    C     C_R   0.944691 0.259488 0.537712 -0.195988
C7    C     C_R   0.894679 0.260985 0.529683 -0.117680
C8    C     C_R   0.871090 0.375227 0.522668 -0.016427
C9    C     C_R   0.898244 0.489544 0.521899 -0.054115
C10   C     C_R   0.874341 0.604525 0.517995 -0.077682
C11   C     C_R   0.823861 0.603081 0.511943 0.528442
C12   C     C_R   0.277748 0.484372 0.621347 -0.100519
C13   C     C_R   0.820684 0.378208 0.516147 0.507738
C14   C     C_R   0.721067 0.471970 0.625876 -0.106398
C15   C     C_R   0.671004 0.474755 0.623673 -0.237790
C16   C     C_R   0.501418 0.739444 0.499918 0.877652
C17   C     C_R   0.672917 0.516545 0.382549 -0.205119
C18   C     C_R   0.723088 0.514289 0.385267 -0.101669
C19   C     C_R   0.747040 0.491988 0.506901 0.322560
C20   C     C_R   0.023850 0.373161 0.547114 0.041196
C21   C     C_R   0.050405 0.485903 0.518038 0.075966
C22   C     C_R   0.026472 0.599864 0.494163 0.061544
C23   C     C_R   0.252602 0.484172 0.498863 0.315671
C24   C     C_R   0.049350 0.264546 0.582247 -0.200635
C25   C     C_R   0.103168 0.700020 0.429041 -0.130049
C26   C     C_R   0.951260 0.719043 0.530801 0.235029
C27   C     C_R   0.901029 0.717918 0.526689 -0.146609
C28   C     C_R   0.593911 0.499765 0.500335 0.841127
C29   C     C_R   0.053235 0.702551 0.439586 -0.150161
C30   C     C_R   0.582454 0.137648 0.624141 -0.175154
C31   C     C_R   0.620473 0.074889 0.684195 -0.112142
C32   C     C_R   0.620516 0.943865 0.684073 -0.116469
C33   C     C_R   0.582556 0.875155 0.623805 -0.191632
C34   C     C_R   0.101310 0.484320 0.510110 -0.055382
C35   C     C_R   0.543429 0.937392 0.563712 0.092907
C36   C     C_R   0.543366 0.069361 0.563905 0.098300
C37   C     C_R   0.504565 0.128717 0.499884 -0.087258
C38   C     C_R   0.467938 0.061810 0.432523 -0.209817
C39   C     C_R   0.468006 0.933218 0.432337 -0.190432
C40   C     C_R   0.176301 0.375850 0.537695 0.507943
C41   C     C_R   0.504697 0.872006 0.499504 -0.101504
C42   C     C_R   0.436439 0.335406 0.139730 -0.162161
C43   C     C_R   0.405095 0.254310 0.069376 -0.194464
C44   C     C_R   0.405133 0.254098 0.929730 -0.183244
C45   C     C_R   0.125816 0.374188 0.543144 -0.025571
C46   C     C_R   0.436515 0.334978 0.859615 -0.158360
C47   C     C_R   0.468700 0.418742 0.927513 0.168107
C48   C     C_R   0.468684 0.418872 0.072115 0.172077
C49   C     C_R   0.529992 0.577577 0.071689 -0.110082
C50   C     C_R   0.529972 0.577569 0.928563 -0.112190
C51   C     C_R   0.178065 0.589924 0.463274 0.513709
C52   C     C_R   0.277573 0.488161 0.376540 -0.096059
C53   C     C_R   0.327769 0.493053 0.376596 -0.222871
C54   C     C_R   0.327914 0.489340 0.621804 -0.218589
C55   C     C_R   0.099522 0.265564 0.581183 -0.120016
C56   C     C_R   0.127675 0.592686 0.467995 -0.026573
C57   C     C_R   0.353274 0.494238 0.499358 -0.041924
C58   C     C_R   0.646590 0.497189 0.501967 -0.037607
H1    H     H_    0.346726 0.489527 0.717782 0.167872
H2    H     H_    0.650213 0.128139 0.729758 0.151838
H3    H     H_    0.258317 0.481690 0.715991 0.143260
H4    H     H_    0.650285 0.895298 0.729582 0.152073
H5    H     H_    0.584643 0.773665 0.623036 0.144729
H6    H     H_    0.438841 0.881028 0.382258 0.159080
H7    H     H_    0.554505 0.640973 0.125582 0.148145
H8    H     H_    0.434320 0.329832 0.246688 0.199280
H9    H     H_    0.380664 0.191154 0.123737 0.157060
H10   H     H_    0.380721 0.190781 0.875187 0.162561
H11   H     H_    0.434470 0.328950 0.752624 0.204525
H12   H     H_    0.258009 0.487893 0.281760 0.143461
H13   H     H_    0.554457 0.640991 0.874905 0.145575
H14   H     H_    0.117599 0.180257 0.609068 0.200478
H15   H     H_    0.651495 0.458806 0.716959 0.161770
H16   H     H_    0.739789 0.454842 0.719905 0.138258
H17   H     H_    0.874566 0.171884 0.529010 0.202637
H18   H     H_    0.960439 0.167922 0.539026 0.185831
H19   H     H_    0.031430 0.178151 0.614417 0.181742
H20   H     H_    0.346494 0.496104 0.280834 0.167742
H21   H     H_    0.122404 0.782190 0.389268 0.197150
H22   H     H_    0.654845 0.534203 0.287633 0.159499
H23   H     H_    0.882857 0.806469 0.535455 0.216636
H24   H     H_    0.743403 0.529870 0.293290 0.138501
H25   H     H_    0.035790 0.783667 0.398619 0.192285
H26   H     H_    0.438733 0.109417 0.382517 0.142663
H27   H     H_    0.584465 0.239396 0.623727 0.152753
N1    N     N_R   0.201143 0.482953 0.499128 -0.358384
N2    N     N_R   0.798397 0.491011 0.510342 -0.358789
N3    N     N_R   0.499540 0.498800 0.142780 -0.122210
N4    N     N_R   0.499520 0.498720 0.857170 -0.122107
O1    O     O_R   0.500000 0.316780 0.614690 -0.640424
O2    O     O_R   0.571250 0.499990 0.614680 -0.635463
O3    O     O_R   0.571240 0.499970 0.385350 -0.613449
O4    O     O_2   0.200460 0.271450 0.569988 -0.551951
O5    O     O_2   0.794057 0.269628 0.515456 -0.549323
O6    O     O_2   0.203924 0.693575 0.424963 -0.549386
O7    O     O_2   0.800283 0.712468 0.508502 -0.548348
O8    O     O_R   0.500000 0.316750 0.385360 -0.627082
O9    O     O_R   0.428760 0.500030 0.614650 -0.635286
O10   O     O_R   0.428750 0.500010 0.385320 -0.640435
O11   O     O_R   0.500000 0.683250 0.614640 -0.612508
O12   O     O_R   0.500000 0.683220 0.385310 -0.610207
Zn1   Zn    Zn3+2 0.500000 0.500020 0.653130 0.935293
Zn2   Zn    Zn3+2 0.500000 0.499980 0.346870 0.944940

loop_
_geom_bond_atom_site_label_1
_geom_bond_atom_site_label_2
_ccdc_geom_bond_type
C14   H16   S    
C35   C41   A    
C18   C19   A    
C24   C55   A    
C7    H17   S    
C42   C43   A    
C2    C5    A    
C6    C7    A    
C30   C31   A    
C52   C53   A    
C21   C34   A    
C4    C57   S    
C15   H15   S    
C35   C36   A    
C31   H2    S    
C2    C6    A    
C50   N4    A    
C37   C38   A    
C14   C15   A    
O10   Zn2   S    
C17   H22   S    
C17   C18   A    
C16   O11   A    
C16   C41   S    
O2    Zn1   S    
C12   H3    S    
C46   C47   A    
C7    C8    A    
C40   C45   A    
C8    C9    A    
C6    H18   S    
C39   C41   A    
O11   Zn1   S    
C30   H27   S    
C47   N4    A    
C54   H1    S    
C18   H24   S    
O3    Zn2   S    
C23   N1    S    
C49   C50   A    
C44   C46   A    
C14   C19   A    
C40   N1    A    
C11   N2    A    
C27   H23   S    
C24   H19   S    
C22   C29   A    
C28   C58   S    
C3    C5    A    
O9    Zn1   S    
C51   C56   A    
O1    Zn1   S    
C38   C39   A    
C8    C13   A    
C42   C48   A    
C23   C52   A    
C44   H10   S    
C25   H21   S    
C30   C36   A    
C12   C23   A    
C15   C58   A    
C16   O12   A    
C46   H11   S    
C36   C37   A    
C1    C37   S    
C49   N3    A    
C40   O4    S    
C4    O10   A    
C32   H4    S    
C33   H5    S    
C32   C33   A    
O12   Zn2   S    
C49   H7    S    
C11   O7    S    
C47   C48   A    
C25   C29   A    
C39   H6    S    
N3    Zn2   S    
C43   H9    S    
C50   H13   S    
C38   H26   S    
C52   H12   S    
C13   O5    S    
C3    C26   A    
C43   C44   A    
C53   H20   S    
C53   C57   A    
C3    C22   A    
C20   C24   A    
C55   H14   S    
C51   N1    A    
C48   N3    A    
C5    C9    A    
C10   C11   A    
C4    O9    A    
C34   C56   A    
C31   C32   A    
C13   N2    A    
C28   O3    A    
C10   C27   A    
O8    Zn2   S    
C19   N2    S    
C51   O6    S    
C33   C35   A    
C29   H25   S    
C1    O1    A    
C25   C56   A    
N4    Zn1   S    
C2    C20   A    
C9    C10   A    
C17   C58   A    
C1    O8    A    
C42   H8    S    
C54   C57   A    
C45   C55   A    
C26   C27   A    
Br1   C26   S    
C21   C22   A    
C20   C21   A    
C34   C45   A    
C28   O2    A    
C12   C54   A    
