data_mof_unit_36550.cif
_audit_creation_date              2012-12-11T16:22:18-0500
_audit_creation_method            fapswitch 2.2
_symmetry_space_group_name_H-M    P1
_symmetry_Int_Tables_number       1
_space_group_crystal_system       triclinic
_cell_length_a                    19.651628
_cell_length_b                    6.926473
_cell_length_c                    17.782194
_cell_angle_alpha                 89.921182
_cell_angle_beta                  108.015983
_cell_angle_gamma                 90.09842
_cell_volume                      2301.7712186

loop_
_atom_site_label
_atom_site_type_symbol
_atom_type_description
_atom_site_fract_x
_atom_site_fract_y
_atom_site_fract_z
_atom_type_partial_charge
O1    O     O_R   0.561700 0.369960 0.440190 -0.536782
O2    O     O_R   0.061700 0.630040 0.940190 -0.511262
O3    O     O_R   0.413790 0.033680 0.407460 -0.507040
O4    O     O_R   0.913790 0.966320 0.907460 -0.507771
O5    O     O_R   0.438300 0.869760 0.559810 -0.514046
O6    O     O_R   0.938300 0.130240 0.059810 -0.535311
C1    C     C_R   0.386044 0.202956 0.385767 0.768186
C2    C     C_R   0.885981 0.796989 0.885855 0.768123
O7    O     O_R   0.559630 0.039830 0.430710 -0.536546
O8    O     O_R   0.059630 0.960170 0.930710 -0.547002
O9    O     O_R   0.585190 0.875950 0.583220 -0.549543
O10   O     O_R   0.085190 0.124050 0.083220 -0.552875
C3    C     C_R   0.581114 0.209080 0.416076 0.824019
C4    C     C_R   0.081428 0.791393 0.915715 0.768941
O11   O     O_R   0.414810 0.363770 0.416780 -0.550574
O12   O     O_R   0.914810 0.636230 0.916780 -0.545955
O13   O     O_3   0.508210 0.205480 0.550010 -0.374937
O14   O     O_3   0.008210 0.794520 0.050010 -0.382614
V1    V     V_3+5 0.498480 0.928140 0.490720 1.559854
V2    V     V_3+5 0.998480 0.071860 0.990720 1.512405
O15   O     O_R   0.586210 0.546600 0.592540 -0.548972
O16   O     O_R   0.086210 0.453400 0.092540 -0.547342
C5    C     C_R   0.614776 0.715146 0.613656 0.658584
C6    C     C_R   0.114810 0.284963 0.113610 0.664119
O17   O     O_R   0.440370 0.540460 0.569290 -0.555097
O18   O     O_R   0.940370 0.459540 0.069290 -0.541089
C7    C     C_R   0.419630 0.709354 0.585395 0.768652
C8    C     C_R   0.916857 0.290688 0.082281 0.727232
V3    V     V_3+5 0.501520 0.428910 0.509280 1.494132
V4    V     V_3+5 0.001520 0.571090 0.009280 1.492026
O19   O     O_3   0.491790 0.701440 0.449990 -0.360859
O20   O     O_3   0.991790 0.298560 0.949990 -0.353586
C9    C     C_R   0.320678 0.890905 0.726616 0.280260
C10   C     C_R   0.776078 0.102011 0.174164 0.287393
C11   C     C_R   0.367978 0.886178 0.679994 0.256822
C12   C     C_R   0.819547 0.115993 0.123782 0.244821
C13   C     C_R   0.371092 0.719702 0.635276 -0.189386
C14   C     C_R   0.864878 0.278983 0.128538 -0.200941
C15   C     C_R   0.325204 0.564281 0.635186 -0.257967
C16   C     C_R   0.861157 0.431085 0.179246 -0.302438
C17   C     C_R   0.274948 0.572286 0.676230 0.335370
C18   C     C_R   0.815055 0.422989 0.226256 0.320086
C19   C     C_R   0.272488 0.737007 0.722844 -0.058864
C20   C     C_R   0.772551 0.257346 0.224273 -0.011687
C21   C     C_R   0.225631 0.611360 0.830005 -0.231617
C22   C     C_R   0.748023 0.286911 0.355162 -0.156584
C23   C     C_R   0.180212 0.624795 0.877680 0.319198
C24   C     C_R   0.701739 0.276460 0.402030 0.259834
C25   C     C_R   0.131290 0.780642 0.866980 -0.166871
C26   C     C_R   0.629896 0.220278 0.367298 -0.097974
C27   C     C_R   0.129939 0.921455 0.808281 0.256898
C28   C     C_R   0.604394 0.178328 0.285947 0.274482
C29   C     C_R   0.174218 0.901659 0.760417 -0.069921
C30   C     C_R   0.650984 0.194374 0.239670 -0.158662
H1    H     H_    0.171548 0.008935 0.715161 0.175141
H2    H     H_    0.630779 0.166691 0.176707 0.146259
C31   C     C_R   0.222638 0.748403 0.771136 0.021912
C32   C     C_R   0.723156 0.246721 0.273781 0.118693
C33   C     C_2   0.710643 0.890660 0.713781 -0.238657
C34   C     C_2   0.211037 0.109267 0.213189 -0.256691
C35   C     C_2   0.686641 0.723157 0.675151 0.186201
C36   C     C_2   0.186713 0.277228 0.175079 0.184107
C37   C     C_2   0.783368 0.920588 0.772935 0.396807
C38   C     C_2   0.283807 0.079831 0.272292 0.405648
C39   C     C_2   0.815662 0.779609 0.823961 -0.258263
C40   C     C_2   0.315758 0.220137 0.323823 -0.254712
H3    H     H_    0.788550 0.642626 0.822732 0.149749
H4    H     H_    0.288396 0.356318 0.322964 0.145546
O21   O     O_3   0.321798 0.040648 0.778323 -0.634614
H5    H     H_    0.370583 0.096378 0.796671 0.300441
O22   O     O_3   0.735621 0.938809 0.175256 -0.632403
H6    H     H_    0.745090 0.838038 0.140402 0.344271
O23   O     O_3   0.731618 0.564676 0.688283 -0.647457
H7    H     H_    0.708604 0.460310 0.651057 0.304308
O24   O     O_3   0.231421 0.436649 0.188712 -0.646900
H8    H     H_    0.208217 0.541550 0.151866 0.295626
O25   O     O_3   0.816442 0.098532 0.778132 -0.624162
H9    H     H_    0.786203 0.182796 0.735876 0.307214
O26   O     O_3   0.317289 0.902909 0.276909 -0.622787
H10   H     H_    0.287274 0.819082 0.234327 0.303722
O27   O     O_3   0.411953 0.040568 0.677902 -0.638915
H11   H     H_    0.388587 0.161116 0.686818 0.297614
O28   O     O_3   0.815115 0.970563 0.069490 -0.651751
H12   H     H_    0.816196 0.030851 0.019312 0.289520
H13   H     H_    0.326002 0.437637 0.599761 0.167277
H14   H     H_    0.894584 0.557344 0.182606 0.161511
O29   O     O_3   0.229059 0.416828 0.667928 -0.629961
H15   H     H_    0.188156 0.452643 0.686281 0.305070
O30   O     O_3   0.810128 0.576449 0.273866 -0.627651
H16   H     H_    0.843590 0.679764 0.269193 0.307031
H17   H     H_    0.263858 0.494301 0.839074 0.154789
H18   H     H_    0.803728 0.324809 0.382392 0.147104
O31   O     O_3   0.184198 0.489864 0.936240 -0.642940
H19   H     H_    0.220268 0.390636 0.935364 0.289568
O32   O     O_3   0.725721 0.317357 0.481957 -0.650360
H20   H     H_    0.776918 0.354654 0.497015 0.304702
O33   O     O_3   0.084024 0.076122 0.794067 -0.625337
H21   H     H_    0.098999 0.156661 0.842428 0.317289
O34   O     O_3   0.533602 0.125509 0.252792 -0.635364
H22   H     H_    0.524256 0.101110 0.195543 0.303972
H23   H     H_    0.676794 0.017819 0.698997 0.107174
H24   H     H_    0.177452 0.981471 0.198009 0.101337

loop_
_geom_bond_atom_site_label_1
_geom_bond_atom_site_label_2
_ccdc_geom_bond_type
C27   O33   S    
C40   H4    S    
O29   H15   S    
C37   C39   D    
O31   H19   S    
C24   O32   S    
O13   V3    S    
O23   H7    S    
O32   H20   S    
O4    C2    A    
V1    O19   S    
O33   H21   S    
C11   O27   S    
C23   C25   A    
O25   H9    S    
C21   C31   A    
C11   C13   A    
O3    C1    A    
C30   C32   A    
C4    C25   S    
C22   H18   S    
C12   O28   S    
O12   V4    S    
C34   C36   D    
C21   C23   A    
C16   H14   S    
O7    C3    A    
C9    C11   A    
O5    C7    A    
O7    V1    S    
O6    C8    A    
O34   H22   S    
C20   C32   S    
C39   H3    S    
C21   H17   S    
C26   C28   A    
O3    V1    S    
O14   V4    S    
C10   C12   A    
C9    O21   S    
C24   C26   A    
C2    C39   S    
C2    O12   A    
C14   C16   A    
C22   C32   A    
C17   C19   A    
C18   C20   A    
V2    O20   S    
C34   H24   S    
C28   C30   A    
O11   V3    S    
C22   C24   A    
C29   H1    S    
O17   V3    S    
C17   O29   S    
C30   H2    S    
C33   C35   D    
C33   H23   S    
C10   C20   A    
C15   C17   A    
O8    C4    A    
O8    V2    S    
C29   C31   A    
C1    O11   A    
C25   C27   A    
O15   V3    S    
O27   H11   S    
C3    C26   S    
C27   C29   A    
C38   C40   D    
O24   H8    S    
O28   H12   S    
C8    C14   S    
O9    V1    S    
O10   V2    S    
O1    V3    S    
C23   O31   S    
O18   V4    S    
O15   C5    A    
C38   O26   S    
O16   C6    A    
C36   O24   S    
O1    C3    A    
C15   H13   S    
C37   O25   S    
C6    C36   S    
O16   V4    S    
C33   C37   S    
C16   C18   A    
O5    V1    S    
O17   C7    A    
O6    V2    S    
O10   C6    A    
C28   O34   S    
O18   C8    A    
O2    V4    S    
C34   C38   S    
C18   O30   S    
C35   O23   S    
C12   C14   A    
O22   H6    S    
V3    O19   S    
C1    C40   S    
V4    O20   S    
C7    C13   S    
O9    C5    A    
O13   V1    S    
O14   V2    S    
O21   H5    S    
O2    C4    A    
C19   C31   S    
O26   H10   S    
O4    V2    S    
C5    C35   S    
C13   C15   A    
O30   H16   S    
C9    C19   A    
C10   O22   S    
