data_mof_unit_64379.cif
_audit_creation_date              2012-12-10T17:46:06-0500
_audit_creation_method            fapswitch 2.2
_symmetry_space_group_name_H-M    P1
_symmetry_Int_Tables_number       1
_space_group_crystal_system       triclinic
_cell_length_a                    16.047101
_cell_length_b                    17.894683
_cell_length_c                    17.9601
_cell_angle_alpha                 115.555521
_cell_angle_beta                  99.251316
_cell_angle_gamma                 76.182278
_cell_volume                      4508.35061495

loop_
_atom_site_label
_atom_site_type_symbol
_atom_type_description
_atom_site_fract_x
_atom_site_fract_y
_atom_site_fract_z
_atom_type_partial_charge
Br1   Br    Br    0.547388 0.166416 0.251545 -0.489313
Br2   Br    Br    0.580548 0.208666 0.592353 -0.509143
Br3   Br    Br    0.469617 0.608408 0.239332 -0.548145
C1    C     C_R   0.462640 0.456830 0.281082 0.545309
C2    C     C_R   0.539545 0.526190 0.922148 0.032126
C3    C     C_R   0.594506 0.582900 0.972926 0.049539
C4    C     C_R   0.537899 0.542864 0.719105 0.510459
C5    C     C_R   0.506560 0.480667 0.955391 0.029991
C6    C     C_R   0.519365 0.501348 0.041807 0.052885
C7    C     C_R   0.579107 0.553493 0.088579 -0.093643
C8    C     C_R   0.615307 0.594242 0.054985 -0.123747
C9    C     C_R   0.466173 0.411681 0.904499 -0.124797
C10   C     C_R   0.439585 0.364739 0.937517 -0.118778
C11   C     C_R   0.446236 0.388547 0.022663 0.027314
C12   C     C_1   0.889354 0.476295 0.476737 -0.032503
C13   C     C_R   0.479487 0.461877 0.076757 0.047701
C14   C     C_R   0.420629 0.338939 0.054125 -0.128617
C15   C     C_R   0.427116 0.361464 0.138760 -0.136147
C16   C     C_R   0.462134 0.723574 0.548009 0.506611
C17   C     C_R   0.471413 0.491495 0.163056 0.125164
C18   C     C_R   0.541127 0.184409 0.422286 0.050264
C19   C     C_R   0.448419 0.813326 0.567985 0.038883
C20   C     C_R   0.538322 0.045814 0.311010 -0.104174
C21   C     C_R   0.542568 0.130264 0.337067 0.130821
C22   C     C_R   0.534832 0.151961 0.479688 0.105886
C23   C     C_1   0.110795 0.524903 0.521940 -0.035393
C24   C     C_R   0.513849 0.070920 0.451186 0.036669
C25   C     C_R   0.523241 0.015947 0.366807 -0.007563
C26   C     C_R   0.483827 0.042373 0.502962 0.059227
C27   C     C_R   0.482303 0.955078 0.475091 0.029967
C28   C     C_R   0.536736 0.275991 0.451393 0.564170
C29   C     C_R   0.499340 0.900865 0.392060 -0.120409
C30   C     C_R   0.516565 0.931648 0.338406 -0.116661
C31   C     C_R   0.447311 0.099496 0.578056 -0.092300
C32   C     C_R   0.422628 0.071445 0.630610 -0.122344
C33   C     C_R   0.431544 0.985375 0.609016 0.049562
C34   C     C_1   0.813998 0.481033 0.481162 0.027554
C35   C     C_R   0.460398 0.925883 0.530402 0.031819
C36   C     C_R   0.411015 0.958233 0.665180 -0.120146
C37   C     C_R   0.420349 0.872503 0.645040 -0.122579
C38   C     C_R   0.467954 0.839382 0.511079 -0.110623
C39   C     C_R   0.276170 0.513639 0.513059 0.496462
C40   C     C_R   0.724381 0.486634 0.486539 0.514694
C41   C     C_1   0.186304 0.519819 0.517870 0.026660
C42   C     C_2   0.020601 0.530789 0.526780 -0.116598
C43   C     C_2   0.979435 0.470653 0.471626 -0.114867
C44   C     C_R   0.556352 0.558896 0.807076 0.023091
C45   C     C_R   0.450689 0.438035 0.193164 0.057058
C46   C     C_R   0.630104 0.625970 0.940403 -0.126979
C47   C     C_R   0.611674 0.613583 0.857874 -0.123872
C48   C     C_R   0.519494 0.517101 0.839843 -0.114758
H1    H     H_    0.013267 0.416554 0.422282 0.143440
H2    H     H_    0.986786 0.584856 0.576162 0.142488
H3    H     H_    0.494786 0.835162 0.365126 0.142516
H4    H     H_    0.433791 0.166736 0.595473 0.164437
H5    H     H_    0.388832 0.003373 0.725157 0.114806
H6    H     H_    0.660434 0.634333 0.093343 0.117863
H7    H     H_    0.411559 0.320161 0.162142 0.144685
H8    H     H_    0.413084 0.309547 0.895986 0.115525
H9    H     H_    0.672881 0.668721 0.978697 0.117661
H10   H     H_    0.640819 0.646658 0.833847 0.143788
H11   H     H_    0.473876 0.478961 0.800285 0.136591
H12   H     H_    0.602893 0.559298 0.150139 0.164954
H13   H     H_    0.459679 0.388436 0.838036 0.125521
H14   H     H_    0.398048 0.281321 0.013064 0.125223
H15   H     H_    0.525138 0.888901 0.274119 0.126740
H16   H     H_    0.492688 0.790487 0.454089 0.125471
H17   H     H_    0.405778 0.852229 0.689483 0.114418
H18   H     H_    0.396625 0.117506 0.688688 0.112654
H19   H     H_    0.542652 0.004204 0.245937 0.151656
O1    O     O_3   0.500000 0.500000 0.500000 -0.458794
O2    O     O_R   0.299440 0.550140 0.473730 -0.538209
O3    O     O_R   0.684420 0.431670 0.431640 -0.523560
O4    O     O_R   0.331720 0.471780 0.548240 -0.538867
O5    O     O_R   0.684420 0.546410 0.546380 -0.535747
O6    O     O_R   0.525630 0.690350 0.582790 -0.540623
O7    O     O_R   0.571070 0.303900 0.411450 -0.495552
O8    O     O_R   0.412800 0.516450 0.332470 -0.499043
O9    O     O_R   0.490500 0.489300 0.673290 -0.530845
O10   O     O_R   0.525640 0.414150 0.306600 -0.520087
O11   O     O_R   0.571060 0.580100 0.687640 -0.549865
O12   O     O_R   0.412790 0.677900 0.493930 -0.516418
O13   O     O_R   0.490510 0.327840 0.511830 -0.509390
Zn1   Zn    Zn3+2 0.569080 0.577860 0.577850 0.953590
Zn2   Zn    Zn3+2 0.407860 0.560080 0.450890 0.981463
Zn3   Zn    Zn3+2 0.453980 0.448130 0.557350 0.967383
Zn4   Zn    Zn3+2 0.569080 0.413920 0.413920 1.008340

loop_
_geom_bond_atom_site_label_1
_geom_bond_atom_site_label_2
_ccdc_geom_bond_type
C40   O3    A    
C24   C26   A    
C32   C33   A    
C20   H19   S    
O6    Zn1   S    
O2    Zn2   S    
C23   C41   T    
C38   H16   S    
C42   C43   D    
C18   C28   S    
C46   H9    S    
C16   O6    A    
C6    C13   A    
C1    O10   A    
O10   Zn4   S    
C2    C3    A    
C9    H13   S    
O5    Zn1   S    
C19   C38   A    
C43   H1    S    
C28   O13   A    
C27   C35   A    
C31   C32   A    
O3    Zn4   S    
C23   C42   S    
O1    Zn2   S    
C15   H7    S    
C12   C34   T    
C7    H12   S    
C5    C6    A    
C20   C21   A    
C16   O12   A    
C6    C7    A    
C5    C9    A    
C42   H2    S    
C31   H4    S    
C10   C11   A    
C11   C14   A    
C48   H11   S    
C39   C41   S    
C29   H3    S    
C30   H15   S    
C28   O7    A    
C44   C47   A    
C40   O5    A    
C39   O4    A    
C16   C19   S    
C35   C38   A    
C36   C37   A    
C44   C48   A    
C26   C31   A    
C4    C44   S    
C34   C40   S    
C1    O8    A    
C26   C27   A    
O1    Zn3   S    
C36   H5    S    
C13   C17   A    
C19   C37   A    
C39   O2    A    
C14   C15   A    
Br3   C17   S    
C20   C25   A    
O4    Zn3   S    
C32   H18   S    
C17   C45   A    
O1    Zn4   S    
O8    Zn2   S    
C4    O11   A    
C25   C30   A    
C11   C13   A    
C3    C8    A    
O11   Zn1   S    
C4    O9    A    
O1    Zn1   S    
C1    C45   S    
C18   C22   A    
C33   C36   A    
C15   C45   A    
C2    C5    A    
C10   H8    S    
C22   C24   A    
O12   Zn2   S    
C14   H14   S    
C29   C30   A    
C33   C35   A    
C27   C29   A    
Br2   C22   S    
C3    C46   A    
C7    C8    A    
O13   Zn3   S    
C9    C10   A    
O7    Zn4   S    
Br1   C21   S    
C46   C47   A    
C37   H17   S    
C18   C21   A    
C24   C25   A    
C47   H10   S    
C2    C48   A    
C12   C43   S    
C8    H6    S    
O9    Zn3   S    
