data_mof_unit_15580.cif
_audit_creation_date              2012-12-11T16:53:45-0500
_audit_creation_method            fapswitch 2.2
_symmetry_space_group_name_H-M    P1
_symmetry_Int_Tables_number       1
_space_group_crystal_system       triclinic
_cell_length_a                    14.931049
_cell_length_b                    14.78226
_cell_length_c                    17.00775
_cell_angle_alpha                 108.960157
_cell_angle_beta                  106.339198
_cell_angle_gamma                 108.382966
_cell_volume                      3045.44652678

loop_
_atom_site_label
_atom_site_type_symbol
_atom_type_description
_atom_site_fract_x
_atom_site_fract_y
_atom_site_fract_z
_atom_type_partial_charge
C1    C     C_R   0.086695 0.283039 0.072311 -0.143883
C2    C     C_R   0.064419 0.476346 0.250704 -0.146189
C3    C     C_R   0.224876 0.799288 0.188232 -0.131455
C4    C     C_R   0.934310 0.462782 0.733837 -0.128875
C5    C     C_R   0.698839 0.408179 0.998287 -0.128242
C6    C     C_R   0.240946 0.804912 0.274712 0.058462
C7    C     C_R   0.640830 0.440996 0.945185 0.098177
C8    C     C_R   0.973328 0.413375 0.250803 0.065346
C9    C     C_R   0.996073 0.817853 0.971212 0.056796
C10   C     C_R   0.401870 0.473276 0.882784 0.117422
C11   C     C_R   0.350336 0.418094 0.922693 -0.021330
C12   C     C_R   0.026160 0.489270 0.722919 0.065345
C13   C     C_R   0.370701 0.332515 0.929195 0.300748
C14   C     C_R   0.463837 0.331246 0.927082 -0.251801
C15   C     C_R   0.529715 0.408981 0.912000 -0.018014
C16   C     C_R   0.720968 0.213708 0.823214 -0.131601
C17   C     C_R   0.489425 0.467280 0.876142 0.166763
C18   C     C_3   0.540586 0.581527 0.894711 -0.508734
C19   C     C_3   0.445450 0.589075 0.902889 -0.511117
C20   C     C_R   0.965910 0.369851 0.315924 0.125120
C21   C     C_R   0.036009 0.447374 0.636877 0.133184
C22   C     C_R   0.142356 0.452337 0.552702 -0.228008
C23   C     C_R   0.664660 0.216468 0.744584 0.065176
C24   C     C_R   0.134707 0.478021 0.635829 -0.172741
C25   C     C_R   0.945941 0.378100 0.554355 -0.280342
C26   C     C_R   0.952661 0.356524 0.471208 0.187424
C27   C     C_R   0.051405 0.398678 0.470800 0.195551
C28   C     C_R   0.260598 0.534779 0.951324 -0.141709
C29   C     C_R   0.057197 0.400025 0.391311 -0.295105
C30   C     C_R   0.868088 0.313953 0.312291 -0.166873
C31   C     C_R   0.861651 0.305656 0.389689 -0.225919
C32   C     C_R   0.555645 0.143008 0.678236 0.130010
C33   C     C_R   0.281916 0.901212 0.361502 0.137625
C34   C     C_R   0.290078 0.459907 0.965493 0.091414
C35   C     C_R   0.384852 0.093275 0.449169 -0.233684
C36   C     C_R   0.317730 0.003198 0.365216 -0.182418
C37   C     C_R   0.299848 0.892232 0.443571 -0.278628
C38   C     C_R   0.372803 0.980465 0.526781 0.187669
C39   C     C_R   0.419278 0.080792 0.528706 0.195364
C40   C     C_R   0.726749 0.310075 0.746744 -0.136231
C41   C     C_R   0.507901 0.162951 0.606185 -0.281602
C42   C     C_R   0.502558 0.047086 0.680076 -0.175928
C43   C     C_R   0.410049 0.966751 0.605167 -0.224003
C44   C     C_R   0.078122 0.121324 0.148577 0.147719
C45   C     C_R   0.217629 0.702171 0.264886 -0.126648
C46   C     C_R   0.994263 0.104427 0.072945 0.040211
C47   C     C_R   0.901293 0.008612 0.033208 -0.209133
C48   C     C_R   0.889101 0.941767 0.076531 -0.184154
C49   C     C_R   0.969481 0.968841 0.159418 0.032986
C50   C     C_R   0.065790 0.054464 0.190392 0.154254
C51   C     C_3   0.134346 0.144537 0.284492 -0.473166
C52   C     C_R   0.255616 0.439149 0.028650 -0.133717
C53   C     C_3   0.148102 0.218211 0.239382 -0.529873
C54   C     C_R   0.107417 0.558670 0.809580 -0.139103
C55   C     C_R   0.914065 0.198285 0.993769 -0.122098
C56   C     C_R   0.705689 0.502128 0.919437 -0.149289
C57   C     C_R   0.999377 0.187417 0.041043 0.065285
C58   C     C_3   0.300439 0.246144 0.942586 -1.037366
C59   C     C_R   0.891465 0.393834 0.174354 -0.124833
C60   C     C_R   0.082729 0.803922 0.010516 -0.137215
C61   C     C_R   0.910720 0.719934 0.936995 -0.118099
H1    H     H_    0.164131 0.308868 0.122546 0.097478
H2    H     H_    0.611972 0.632799 0.960842 0.200118
H3    H     H_    0.855134 0.413970 0.681669 0.092966
H4    H     H_    0.549017 0.589111 0.833942 0.185104
H5    H     H_    0.463300 0.644393 0.973907 0.200050
H6    H     H_    0.400080 0.602309 0.847196 0.184995
H7    H     H_    0.133397 0.438047 0.393704 0.117273
H8    H     H_    0.796139 0.284948 0.253327 0.112963
H9    H     H_    0.218769 0.482814 0.553044 0.126469
H10   H     H_    0.785417 0.270337 0.388566 0.126797
H11   H     H_    0.206027 0.526008 0.698584 0.111926
H12   H     H_    0.682952 0.525173 0.865714 0.099463
H13   H     H_    0.869458 0.348946 0.553628 0.118457
H14   H     H_    0.544747 0.237775 0.604815 0.114609
H15   H     H_    0.691732 0.160478 0.850771 0.082212
H16   H     H_    0.535407 0.030585 0.735996 0.113343
H17   H     H_    0.418082 0.170511 0.450198 0.124584
H18   H     H_    0.373909 0.890527 0.605033 0.126518
H19   H     H_    0.300971 0.013349 0.303410 0.113044
H20   H     H_    0.267923 0.815168 0.442729 0.118501
H21   H     H_    0.835661 0.988494 0.972130 0.125826
H22   H     H_    0.815174 0.872365 0.048601 0.129423
H23   H     H_    0.810699 0.336554 0.145947 0.082668
H24   H     H_    0.091421 0.157633 0.327640 0.204913
H25   H     H_    0.207310 0.139805 0.317333 0.190361
H26   H     H_    0.113195 0.273981 0.256256 0.206769
H27   H     H_    0.279092 0.573118 0.911170 0.105016
H28   H     H_    0.229195 0.256046 0.246822 0.185803
H29   H     H_    0.703703 0.346932 0.704539 0.083182
H30   H     H_    0.268539 0.388819 0.059770 0.116576
H31   H     H_    0.186272 0.608183 0.824281 0.081435
H32   H     H_    0.832944 0.147182 0.972702 0.086799
H33   H     H_    0.221325 0.675201 0.316919 0.096141
H34   H     H_    0.162777 0.860194 0.034177 0.091973
H35   H     H_    0.334529 0.261182 0.015260 0.244602
H36   H     H_    0.220613 0.240251 0.922346 0.259204
H37   H     H_    0.292269 0.167332 0.897799 0.256326
H38   H     H_    0.830811 0.698182 0.894737 0.090569
H39   H     H_    0.143206 0.494654 0.292394 0.085102
H40   H     H_    0.236992 0.864566 0.170816 0.091540
H41   H     H_    0.669818 0.348048 0.019772 0.086429
H42   H     H_    0.487927 0.275672 0.944243 0.141160
N1    N     N_R   0.055640 0.348550 0.045600 -0.038090
N2    N     N_R   0.811290 0.303400 0.871650 -0.037599
N3    N     N_R   0.205180 0.552990 0.997660 -0.041327
N4    N     N_R   0.814810 0.361830 0.823710 -0.037891
N5    N     N_R   0.201660 0.494570 0.045600 -0.042910
N6    N     N_R   0.068420 0.560530 0.871650 -0.037033
N7    N     N_R   0.948050 0.295860 0.997660 -0.038942
N8    N     N_R   0.185190 0.638170 0.176290 -0.041928
N9    N     N_R   0.798340 0.505430 0.954400 -0.039559
N10   N     N_R   0.931580 0.439470 0.128350 -0.038152
N11   N     N_R   0.051950 0.704140 0.002340 -0.039318
N12   N     N_R   0.944360 0.651450 0.954400 -0.040758
N13   N     N_R   0.039170 0.492150 0.176290 -0.037166
N14   N     N_R   0.188710 0.696600 0.128350 -0.041007
N15   N     N_R   0.794820 0.447010 0.002340 -0.040139
N16   N     N_R   0.960830 0.507850 0.823710 -0.039651
Ni1   Ni    Ni4+2 0.119330 0.493420 0.109950 0.207131
Ni2   Ni    Ni4+2 0.880670 0.506580 0.890050 0.207213
Ni3   Ni    Ni4+2 0.872590 0.372590 0.000000 0.206936
Ni4   Ni    Ni4+2 0.127410 0.627410 0.000000 0.212577

loop_
_geom_bond_atom_site_label_1
_geom_bond_atom_site_label_2
_ccdc_geom_bond_type
N9    N15   A    
N12   Ni2   S    
C6    C45   A    
C27   C29   A    
N5    Ni1   S    
C60   N11   A    
C35   C36   A    
C58   H37   S    
C55   H32   S    
C3    C6    A    
C1    H1    S    
C51   H24   S    
N11   N12   A    
C39   C41   A    
C20   C30   A    
C18   H4    S    
C54   H31   S    
N2    N4    A    
C24   H11   S    
C26   C27   A    
C8    C20   S    
C9    C61   A    
C18   C19   S    
C8    C59   A    
C30   C31   A    
C18   H2    S    
C10   C17   A    
C43   H18   S    
C23   C40   A    
C33   C36   A    
C19   H5    S    
C25   H13   S    
N15   Ni3   S    
C47   H21   S    
C58   H35   S    
C3    N14   A    
C46   C47   A    
C2    N13   A    
C44   C53   S    
N10   Ni3   S    
C28   N3    A    
N3    Ni4   S    
C28   H27   S    
C32   C41   A    
C4    N16   A    
C19   H6    S    
C4    C12   A    
N10   N13   A    
C3    H40   S    
C31   H10   S    
C2    H39   S    
C26   C31   A    
C13   C14   A    
C37   H20   S    
C61   H38   S    
C58   H36   S    
C7    C56   A    
C48   H22   S    
C45   H33   S    
C51   H25   S    
C44   C46   A    
C50   C51   S    
C20   C29   A    
N16   Ni2   S    
C59   H23   S    
C36   H19   S    
C5    C7    A    
N6    Ni4   S    
C13   C58   S    
C25   C26   A    
C12   C21   S    
C33   C37   A    
N13   Ni1   S    
C54   N6    A    
N8    Ni1   S    
C51   C53   S    
C35   C39   A    
C61   N12   A    
C37   C38   A    
C1    C57   A    
C41   H14   S    
C29   H7    S    
C47   C48   A    
C10   C19   S    
C59   N10   A    
C17   C18   S    
C53   H26   S    
C1    N1    A    
C16   N2    A    
C40   N4    A    
N11   Ni4   S    
C48   C49   A    
C16   C23   A    
C22   C27   A    
C55   C57   A    
C46   C57   S    
C53   H28   S    
C22   C24   A    
C42   C43   A    
N4    Ni2   S    
C30   H8    S    
N6    N16   A    
C44   C50   A    
C15   C17   A    
C21   C25   A    
C5    H41   S    
C56   H12   S    
C16   H15   S    
C11   C34   S    
C2    C8    A    
C45   N8    A    
C4    H3    S    
C35   H17   S    
C34   C52   A    
C6    C33   S    
C5    N15   A    
N8    N14   A    
C9    C60   A    
C23   C32   S    
N14   Ni4   S    
C38   C43   A    
C55   N7    A    
N7    Ni3   S    
N1    N7    A    
C11   C13   A    
C14   H42   S    
C38   C39   A    
N3    N5    A    
C7    C15   S    
C56   N9    A    
N2    Ni3   S    
C10   C11   A    
C28   C34   A    
C60   H34   S    
N9    Ni2   S    
C52   N5    A    
C42   H16   S    
C49   C50   A    
C21   C24   A    
C32   C42   A    
C14   C15   A    
C52   H30   S    
C40   H29   S    
C22   H9    S    
C12   C54   A    
N1    Ni1   S    
