data_mof_unit_38221.cif
_audit_creation_date              2012-12-10T17:36:22-0500
_audit_creation_method            fapswitch 2.2
_symmetry_space_group_name_H-M    P1
_symmetry_Int_Tables_number       1
_space_group_crystal_system       triclinic
_cell_length_a                    12.368196
_cell_length_b                    13.187495
_cell_length_c                    15.844676
_cell_angle_alpha                 77.678973
_cell_angle_beta                  100.992639
_cell_angle_gamma                 116.362811
_cell_volume                      2248.62316439

loop_
_atom_site_label
_atom_site_type_symbol
_atom_type_description
_atom_site_fract_x
_atom_site_fract_y
_atom_site_fract_z
_atom_type_partial_charge
C1    C     C_R   0.854696 0.285853 0.508548 0.855974
C2    C     C_3   0.989966 0.381720 0.068439 -0.465214
C3    C     C_3   0.002185 0.499160 0.083534 0.234396
C4    C     C_3   0.125464 0.591572 0.050224 0.341680
C5    C     C_3   0.121359 0.598164 0.950594 -0.435801
C6    C     C_1   0.001537 0.498691 0.175668 -0.084994
C7    C     C_1   0.001140 0.500375 0.824851 -0.092431
C8    C     C_1   0.999818 0.500166 0.749098 -0.180932
C9    C     C_R   0.266706 0.035337 0.443551 0.482102
C10   C     C_R   0.226931 0.834822 0.484729 -0.120389
C11   C     C_R   0.815573 0.080649 0.566015 0.430848
C12   C     C_R   0.999642 0.499794 0.659485 0.807972
C13   C     C_R   0.731519 0.965723 0.583186 -0.262388
C14   C     C_R   0.608765 0.933885 0.562210 -0.188199
C15   C     C_R   0.562726 0.011590 0.513765 0.025173
C16   C     C_R   0.645707 0.124117 0.483288 -0.051447
C17   C     C_R   0.435822 0.979525 0.493733 0.006321
C18   C     C_R   0.392659 0.063484 0.455637 0.027719
C19   C     C_R   0.474842 0.171195 0.422208 -0.336011
C20   C     C_R   0.598260 0.195003 0.422243 0.455447
C21   C     C_R   0.350895 0.865432 0.506810 -0.237213
C22   C     C_R   0.184522 0.919517 0.455247 -0.299320
C23   C     C_R   0.144720 0.713200 0.490010 0.820592
C24   C     C_R   0.772086 0.161431 0.515593 -0.190150
C25   C     C_R   0.364255 0.359194 0.655485 0.345593
C26   C     C_R   0.764529 0.649983 0.386937 0.003026
C27   C     C_R   0.680296 0.696405 0.370926 -0.411160
C28   C     C_R   0.577417 0.647412 0.417081 0.498534
C29   C     C_R   0.558828 0.545996 0.478157 -0.063615
C30   C     C_R   0.655206 0.509602 0.498203 0.213907
C31   C     C_R   0.452046 0.482577 0.524127 -0.154420
C32   C     C_R   0.457810 0.406589 0.600998 -0.002733
C33   C     C_R   0.556223 0.377668 0.622038 -0.229592
C34   C     C_R   0.000385 0.500036 0.340538 0.838217
C35   C     C_R   0.649346 0.423815 0.569457 -0.171741
C36   C     C_R   0.336570 0.484364 0.494540 0.629209
C37   C     C_R   0.259707 0.378368 0.628277 -0.142767
C38   C     C_3   0.993595 0.384005 0.970500 -0.386711
C39   C     C_3   0.893603 0.520529 0.931382 -0.389220
C40   C     C_3   0.890183 0.514668 0.029340 -0.413739
C41   C     C_1   0.000984 0.499291 0.251073 -0.218357
C42   C     C_3   0.002639 0.500655 0.917164 0.273438
Cu1   Cu    Cu3+1 0.098280 0.475420 0.519630 0.978061
Cu2   Cu    Cu3+1 0.901720 0.524580 0.480370 0.943074
H1    H     H_    0.903272 0.311957 0.089782 0.187108
H2    H     H_    0.072869 0.369378 0.962638 0.163646
H3    H     H_    0.064362 0.361321 0.107805 0.159353
H4    H     H_    0.088220 0.895708 0.437986 0.165409
H5    H     H_    0.439257 0.231467 0.387932 0.177740
H6    H     H_    0.379681 0.797459 0.528181 0.186013
H7    H     H_    0.552414 0.847168 0.587610 0.157147
H8    H     H_    0.757809 0.898781 0.617915 0.128441
H9    H     H_    0.910268 0.312964 0.945740 0.175660
H10   H     H_    0.187932 0.344215 0.669785 0.178525
H11   H     H_    0.560262 0.316001 0.678559 0.187322
H12   H     H_    0.843876 0.690691 0.352016 0.151360
H13   H     H_    0.699623 0.774127 0.325055 0.153664
H14   H     H_    0.717677 0.392611 0.589226 0.197004
H15   H     H_    0.900175 0.605358 0.896258 0.157538
H16   H     H_    0.807285 0.454510 0.904443 0.175806
H17   H     H_    0.806083 0.439866 0.049375 0.187588
H18   H     H_    0.881223 0.590101 0.041308 0.145100
H19   H     H_    0.201325 0.588946 0.936847 0.141436
H20   H     H_    0.127854 0.682491 0.914848 0.169455
H21   H     H_    0.193631 0.556782 0.079771 0.105588
N1    N     N_R   0.246300 0.438200 0.549400 -0.253231
N2    N     N_R   0.754300 0.561180 0.451130 -0.194243
O1    O     O_R   0.972520 0.318130 0.524690 -0.532881
O2    O     O_R   0.806530 0.359650 0.491530 -0.567364
O3    O     O_R   0.083030 0.479240 0.637150 -0.584468
O4    O     O_R   0.917040 0.520750 0.603990 -0.596856
O5    O     O_R   0.193470 0.640350 0.508470 -0.559427
O6    O     O_R   0.027480 0.681870 0.475310 -0.595074
O7    O     O_R   0.082960 0.479250 0.396010 -0.561820
O8    O     O_R   0.916970 0.520760 0.362850 -0.580810
O9    O     O_3   0.175833 0.700227 0.079264 -0.616680
C43   C     C_3   0.100095 0.758625 0.057889 0.077371
H22   H     H_    0.036531 0.728442 0.108077 0.151408
H23   H     H_    0.048601 0.747793 0.992457 0.135142
C44   C     C_3   0.178957 0.886290 0.059116 -0.327665
H24   H     H_    0.228898 0.899893 0.124877 0.220801
H25   H     H_    0.246368 0.917910 0.011466 0.223135
C45   C     C_3   0.102582 0.954866 0.036362 -0.945330
H26   H     H_    0.053895 0.944739 0.969959 0.252534
H27   H     H_    0.162565 0.046950 0.038310 0.257910
H28   H     H_    0.035514 0.925667 0.083886 0.257118
O10   O     O_3   0.226277 0.120090 0.408922 -0.616992
C46   C     C_3   0.137239 0.115004 0.456386 0.075903
H29   H     H_    0.173242 0.195875 0.484005 0.166661
H30   H     H_    0.113046 0.045137 0.512759 0.135430
C47   C     C_3   0.022624 0.103855 0.395295 -0.791839
H31   H     H_    0.983229 0.022012 0.368497 0.230203
H32   H     H_    0.954484 0.105252 0.430906 0.235781
H33   H     H_    0.043780 0.175889 0.340783 0.234726
O11   O     O_3   0.939197 0.118922 0.597759 -0.573815
C48   C     C_3   0.968711 0.037250 0.659278 0.013051
H34   H     H_    0.960682 0.967024 0.626628 0.144736
H35   H     H_    0.910114 0.002855 0.713254 0.146382
C49   C     C_3   0.099012 0.092354 0.699878 -0.744205
H36   H     H_    0.123788 0.026144 0.743500 0.201175
H37   H     H_    0.161329 0.133125 0.648555 0.252144
H38   H     H_    0.108777 0.156837 0.739136 0.239946
O12   O     O_3   0.672249 0.279042 0.361151 -0.592603
C50   C     C_3   0.606833 0.323787 0.292041 0.067268
H39   H     H_    0.579069 0.380794 0.316442 0.151307
H40   H     H_    0.526625 0.253177 0.263498 0.142310
C51   C     C_3   0.684920 0.395567 0.218723 -0.321780
H41   H     H_    0.719742 0.343492 0.194892 0.214962
H42   H     H_    0.762113 0.470675 0.242482 0.249137
C52   C     C_3   0.611642 0.439889 0.144029 -0.988750
H43   H     H_    0.534706 0.367175 0.115976 0.258123
H44   H     H_    0.670329 0.495566 0.092595 0.260665
H45   H     H_    0.575916 0.491650 0.167299 0.267372
O13   O     O_3   0.372945 0.289855 0.733211 -0.621578
C53   C     C_3   0.392174 0.347826 0.804085 0.053085
H46   H     H_    0.363987 0.281960 0.862136 0.166328
H47   H     H_    0.335284 0.396150 0.795243 0.123998
C54   C     C_3   0.526946 0.427333 0.822374 -0.351847
H48   H     H_    0.581906 0.377226 0.832881 0.216654
H49   H     H_    0.556856 0.495511 0.765871 0.218974
C55   C     C_3   0.549631 0.483542 0.902526 -0.945080
H50   H     H_    0.498094 0.536713 0.892474 0.260003
H51   H     H_    0.647863 0.539223 0.915042 0.255923
H52   H     H_    0.520945 0.416983 0.959923 0.261390
O14   O     O_3   0.313538 0.529584 0.409567 -0.581871
C56   C     C_3   0.266196 0.443875 0.354556 0.077068
H53   H     H_    0.211679 0.470990 0.298202 0.184735
H54   H     H_    0.203564 0.359479 0.386273 0.144651
C57   C     C_3   0.364758 0.432343 0.317250 -0.414460
H55   H     H_    0.430358 0.517807 0.289885 0.218476
H56   H     H_    0.413353 0.393089 0.369645 0.209740
C58   C     C_3   0.309380 0.357762 0.244889 -0.911671
H57   H     H_    0.238865 0.273016 0.268466 0.297167
H58   H     H_    0.380600 0.344352 0.222097 0.252455
H59   H     H_    0.268051 0.400320 0.188904 0.239349
O15   O     O_3   0.508799 0.707919 0.416012 -0.586148
C59   C     C_3   0.480138 0.758430 0.331214 0.125884
H60   H     H_    0.381339 0.736517 0.322461 0.193209
H61   H     H_    0.495459 0.724997 0.277735 0.115501
C60   C     C_3   0.547972 0.888946 0.322333 -0.371823
H62   H     H_    0.512720 0.920333 0.365461 0.237478
H63   H     H_    0.646522 0.915111 0.342623 0.224367
C61   C     C_3   0.529939 0.945235 0.229367 -0.919230
H64   H     H_    0.567851 0.918202 0.184586 0.256407
H65   H     H_    0.577496 0.039720 0.225938 0.261463
H66   H     H_    0.431850 0.921343 0.208394 0.258896

loop_
_geom_bond_atom_site_label_1
_geom_bond_atom_site_label_2
_ccdc_geom_bond_type
C33   H11   S    
C61   H66   S    
C22   H4    S    
O10   C46   S    
C56   H53   S    
O11   C48   S    
C19   C20   A    
C60   C61   S    
C5    C42   S    
C3    C6    S    
C50   H40   S    
O13   C53   S    
C7    C8    T    
C20   O12   S    
C43   H22   S    
C10   C22   A    
C59   H61   S    
C26   C27   A    
Cu1   O5    S    
C30   C35   A    
C35   H14   S    
C26   N2    A    
C28   C29   A    
C60   H63   S    
C38   C42   S    
C58   H59   S    
C14   H7    S    
C4    H21   S    
C36   N1    A    
C9    C22   A    
C61   H64   S    
C48   C49   S    
C11   C24   A    
C1    O1    A    
C40   H18   S    
C5    H19   S    
Cu2   O4    S    
C61   H65   S    
C18   C19   A    
C7    C42   S    
C2    C38   S    
C54   H48   S    
C50   H39   S    
C55   H52   S    
O12   C50   S    
C25   C37   A    
C52   H43   S    
C45   H26   S    
Cu1   O1    S    
C53   H47   S    
C6    C41   T    
C48   H35   S    
C51   H41   S    
C31   C36   A    
C30   N2    A    
C16   C20   A    
C34   O8    A    
C57   C58   S    
C46   H29   S    
C25   C32   A    
C16   C24   A    
C13   C14   A    
C37   N1    A    
C51   H42   S    
C34   C41   S    
C23   O6    A    
C44   C45   S    
C21   H6    S    
C39   C42   S    
C52   H44   S    
C43   H23   S    
C10   C21   A    
C59   C60   S    
C36   O14   S    
C55   H51   S    
C15   C16   A    
O9    C43   S    
C44   H25   S    
C27   H13   S    
C47   H31   S    
C58   H57   S    
C56   C57   S    
C1    O2    A    
C40   H17   S    
C5    H20   S    
C54   C55   S    
Cu2   O8    S    
Cu1   Cu2   S    
C29   C30   A    
C47   H32   S    
C13   H8    S    
C19   H5    S    
C49   H36   S    
C46   C47   S    
C8    C12   S    
C53   C54   S    
C39   H15   S    
C48   H34   S    
C49   H38   S    
C17   C18   A    
Cu2   O2    S    
C60   H62   S    
C52   H45   S    
C55   H50   S    
C34   O7    A    
C37   H10   S    
C49   H37   S    
C12   O4    A    
C46   H30   S    
C3    C40   S    
Cu1   O3    S    
O14   C56   S    
C2    H3    S    
C51   C52   S    
C3    C4    S    
C39   C40   S    
C57   H55   S    
C43   C44   S    
C11   O11   S    
C15   C17   A    
C12   O3    A    
C56   H54   S    
C45   H27   S    
C28   O15   S    
C23   O5    A    
C31   C32   A    
C44   H24   S    
C26   H12   S    
C10   C23   S    
C59   H60   S    
C32   C33   A    
C2    C3    S    
C29   C31   A    
C25   O13   S    
C9    O10   S    
C47   H33   S    
C11   C13   A    
C38   H9    S    
Cu1   O7    S    
Cu1   N1    S    
C39   H16   S    
C33   C35   A    
Cu2   O6    S    
C54   H49   S    
C38   H2    S    
C2    H1    S    
C9    C18   A    
C4    C5    S    
C45   H28   S    
C4    O9    S    
C1    C24   S    
C58   H58   S    
C27   C28   A    
C14   C15   A    
O15   C59   S    
Cu2   N2    S    
C50   C51   S    
C53   H46   S    
C57   H56   S    
C17   C21   A    
