data_mof_unit_18004.cif
_audit_creation_date              2012-12-10T16:49:29-0500
_audit_creation_method            fapswitch 2.2
_symmetry_space_group_name_H-M    P1
_symmetry_Int_Tables_number       1
_space_group_crystal_system       triclinic
_cell_length_a                    7.795462
_cell_length_b                    8.563513
_cell_length_c                    12.777949
_cell_angle_alpha                 89.986841
_cell_angle_beta                  87.01337
_cell_angle_gamma                 93.172093
_cell_volume                      850.543712999

loop_
_atom_site_label
_atom_site_type_symbol
_atom_type_description
_atom_site_fract_x
_atom_site_fract_y
_atom_site_fract_z
_atom_type_partial_charge
C1    C     C_R   0.455136 0.205560 0.497357 0.939800
C2    C     C_R   0.641245 0.360845 0.145090 0.280723
C3    C     C_R   0.516682 0.401025 0.871482 0.432135
C4    C     C_R   0.483318 0.598976 0.128518 0.432136
C5    C     C_R   0.537073 0.433018 0.977168 -0.226539
C6    C     C_R   0.462927 0.566982 0.022832 -0.226539
C7    C     C_2   0.431423 0.042204 0.495783 -0.322437
C8    C     C_2   0.568577 0.957796 0.504217 -0.322437
C9    C     C_R   0.544864 0.794440 0.502643 0.939800
C10   C     C_R   0.464235 0.503444 0.699413 0.945212
C11   C     C_R   0.535765 0.496556 0.300587 0.945213
C12   C     C_R   0.561881 0.489720 0.189248 -0.307827
C13   C     C_R   0.438119 0.510280 0.810752 -0.307827
C14   C     C_R   0.369073 0.665961 0.962004 0.661713
C15   C     C_R   0.630928 0.334039 0.037996 0.661714
C16   C     C_R   0.358755 0.639156 0.854910 0.280723
F1    F     F_    0.291107 0.790521 0.005223 -0.585708
F2    F     F_    0.708894 0.209480 0.994777 -0.585708
H1    H     H_    0.301566 0.991910 0.487660 0.196720
H2    H     H_    0.698434 0.008090 0.512340 0.196720
H3    H     H_    0.484989 0.763044 0.234992 0.320283
H4    H     H_    0.515011 0.236956 0.765008 0.320283
H5    H     H_    0.767317 0.173104 0.167597 0.394513
H6    H     H_    0.232684 0.826897 0.832403 0.394513
H7    H     H_    0.086267 0.689804 0.365873 0.355676
H8    H     H_    0.913733 0.310196 0.634127 0.355676
N1    N     N_2   0.054030 0.541640 0.471970 0.184829
N2    N     N_2   0.945970 0.458360 0.528030 0.184829
O1    O     O_R   0.609680 0.261530 0.506880 -0.629563
O2    O     O_3   0.578048 0.265212 0.828273 -0.640155
O3    O     O_3   0.719758 0.259401 0.209516 -0.714129
O4    O     O_3   0.280243 0.740600 0.790484 -0.714129
O5    O     O_3   0.985831 0.635386 0.403404 -0.636504
O6    O     O_3   0.014169 0.364614 0.596596 -0.636505
O7    O     O_R   0.390320 0.738470 0.493120 -0.629563
O8    O     O_R   0.323330 0.288220 0.488910 -0.583707
O9    O     O_R   0.676670 0.711780 0.511090 -0.583707
O10   O     O_R   0.619510 0.488830 0.661140 -0.628910
O11   O     O_R   0.380490 0.511170 0.338860 -0.628910
O12   O     O_R   0.333160 0.515520 0.643180 -0.528658
O13   O     O_R   0.666840 0.484480 0.356820 -0.528658
O14   O     O_3   0.421952 0.734788 0.171728 -0.640155
Zn1   Zn    Zn3+2 0.691200 0.482180 0.511990 1.092532
Zn2   Zn    Zn3+2 0.308800 0.517820 0.488010 1.092532

loop_
_geom_bond_atom_site_label_1
_geom_bond_atom_site_label_2
_ccdc_geom_bond_type
O9    Zn1   S    
C15   F2    S    
C11   C12   S    
H6    O4    S    
O11   Zn2   S    
O7    Zn2   S    
C16   O4    S    
C4    C12   A    
N2    Zn1   S    
C3    C13   A    
C10   O10   A    
C5    C15   A    
C2    C12   A    
C9    O9    A    
N2    O6    S    
C7    C8    D    
N1    O5    S    
C11   O11   A    
C2    C15   A    
O13   Zn1   S    
C14   F1    S    
C8    H2    S    
C4    O14   S    
C3    O2    S    
C1    O1    A    
C11   O13   A    
C7    H1    S    
C5    C6    A    
C14   C16   A    
O8    Zn2   S    
C6    C14   A    
H3    O14   S    
O12   Zn2   S    
C4    C6    A    
C13   C16   A    
N1    N2    D    
C9    O7    A    
C2    O3    S    
C10   O12   A    
H4    O2    S    
C1    C7    S    
N1    Zn2   S    
H8    O6    S    
O1    Zn1   S    
O10   Zn1   S    
C1    O8    A    
H7    O5    S    
C8    C9    S    
C3    C5    A    
C10   C13   S    
H5    O3    S    
