data_mof_unit_42029.cif
_audit_creation_date              2012-12-10T16:54:07-0500
_audit_creation_method            fapswitch 2.2
_symmetry_space_group_name_H-M    P1
_symmetry_Int_Tables_number       1
_space_group_crystal_system       triclinic
_cell_length_a                    9.676761
_cell_length_b                    10.95203
_cell_length_c                    13.478859
_cell_angle_alpha                 90.295231
_cell_angle_beta                  73.232625
_cell_angle_gamma                 88.744182
_cell_volume                      1367.33120303

loop_
_atom_site_label
_atom_site_type_symbol
_atom_type_description
_atom_site_fract_x
_atom_site_fract_y
_atom_site_fract_z
_atom_type_partial_charge
C1    C     C_R   0.496519 0.735497 0.503191 0.714083
C2    C     C_R   0.444999 0.557758 0.975953 0.024731
C3    C     C_R   0.490267 0.557337 0.866216 0.083892
C4    C     C_R   0.550053 0.534738 0.029591 0.096432
C5    C     C_R   0.697335 0.517005 0.972617 0.138825
C6    C     C_R   0.741406 0.540019 0.867334 -0.251465
C7    C     C_R   0.639622 0.566605 0.816348 -0.170028
C8    C     C_R   0.513866 0.526116 0.137598 -0.254549
C9    C     C_R   0.761674 0.473690 0.129353 -0.187902
C10   C     C_R   0.384728 0.549042 0.811026 -0.179619
C11   C     C_2   0.615708 0.064312 0.496305 -0.127393
C12   C     C_R   0.424435 0.515136 0.699070 0.829403
C13   C     C_2   0.511256 0.135418 0.478976 -0.253386
C14   C     C_2   0.612068 0.930937 0.486361 -0.254375
C15   C     C_2   0.487443 0.869664 0.512103 0.317955
C16   C     C_2   0.051690 0.570438 0.559994 -0.092671
C17   C     C_2   0.901402 0.581472 0.548776 -0.088964
C18   C     C_R   0.503351 0.265760 0.495327 0.843838
C19   C     C_R   0.576498 0.498439 0.300445 0.800191
C20   C     C_R   0.800144 0.481417 0.022107 -0.133210
C21   C     C_R   0.619091 0.499337 0.187454 -0.081487
C22   C     C_R   0.239084 0.573022 0.864721 -0.265728
C23   C     C_R   0.197601 0.599268 0.970797 0.477688
C24   C     C_R   0.297453 0.582105 0.026898 -0.285529
Cu1   Cu    Cu3+1 0.361370 0.499980 0.499980 0.938607
Cu2   Cu    Cu3+1 0.638630 0.500020 0.500020 0.935526
H1    H     H_    0.843433 0.449251 0.166713 0.170221
H2    H     H_    0.427968 0.097727 0.450321 0.171999
H3    H     H_    0.715640 0.882760 0.458755 0.137092
H4    H     H_    0.077157 0.627177 0.618117 0.135941
H5    H     H_    0.130473 0.455518 0.440989 0.196115
H6    H     H_    0.835309 0.659600 0.585247 0.143108
H7    H     H_    0.906838 0.423541 0.473435 0.195460
H8    H     H_    0.855083 0.539819 0.824531 0.144661
H9    H     H_    0.910624 0.460861 0.977515 0.175991
H10   H     H_    0.404523 0.540593 0.185028 0.157662
H11   H     H_    0.157389 0.574207 0.824113 0.159347
H12   H     H_    0.255843 0.591140 0.109779 0.136559
H13   H     H_    0.681363 0.599294 0.738953 0.172406
H14   H     H_    0.705898 0.103656 0.516929 0.156360
N1    N     N_2   0.152660 0.501340 0.501130 -0.277815
N2    N     N_2   0.846520 0.501370 0.501160 -0.277461
O1    O     O_R   0.382960 0.678040 0.499980 -0.580475
O2    O     O_R   0.617100 0.678080 0.500020 -0.595605
O3    O     O_R   0.325800 0.499940 0.650950 -0.570779
O4    O     O_R   0.559930 0.499980 0.650990 -0.577699
O5    O     O_R   0.382900 0.321920 0.499980 -0.570000
O6    O     O_R   0.617040 0.321960 0.500020 -0.577430
O7    O     O_R   0.440070 0.500020 0.349010 -0.586008
O8    O     O_R   0.674200 0.500060 0.349050 -0.579022
O9    O     O_3   0.359013 0.933175 0.563459 -0.612559
C25   C     C_3   0.234628 0.899877 0.534707 0.078901
H15   H     H_    0.147816 0.967391 0.572491 0.154537
H16   H     H_    0.192582 0.812120 0.569535 0.161333
C26   C     C_3   0.252199 0.904721 0.417107 -0.375304
H17   H     H_    0.268140 0.000315 0.390224 0.201460
H18   H     H_    0.346755 0.848735 0.372250 0.214925
C27   C     C_3   0.118265 0.858197 0.392227 -0.903864
H19   H     H_    0.103541 0.760286 0.412125 0.270329
H20   H     H_    0.131386 0.867687 0.308043 0.246275
H21   H     H_    0.020622 0.911660 0.436009 0.244348
O10   O     O_3   0.054538 0.627248 0.021240 -0.633520
C28   C     C_3   0.041023 0.748921 0.058856 0.044647
H22   H     H_    0.072356 0.813353 0.992837 0.148036
H23   H     H_    0.109316 0.764229 0.111434 0.136644
C29   C     C_3   0.883670 0.775331 0.120347 -0.306509
H24   H     H_    0.813100 0.761782 0.069303 0.229838
H25   H     H_    0.851430 0.710591 0.185794 0.230621
C30   C     C_3   0.861529 0.905528 0.163881 -0.938639
H26   H     H_    0.928723 0.920222 0.217020 0.256498
H27   H     H_    0.746365 0.921158 0.208074 0.256369
H28   H     H_    0.890776 0.972410 0.099963 0.260140

loop_
_geom_bond_atom_site_label_1
_geom_bond_atom_site_label_2
_ccdc_geom_bond_type
C30   H28   S    
C24   H12   S    
C23   C24   A    
C28   H23   S    
C13   H2    S    
C6    C7    A    
C1    C15   S    
C15   O9    S    
C5    C20   A    
C1    O1    A    
Cu1   O5    S    
C9    C20   A    
C29   H25   S    
C25   C26   S    
Cu2   O6    S    
C4    C8    A    
C1    O2    A    
C18   O5    A    
Cu1   O1    S    
C27   H21   S    
C26   H18   S    
C29   H24   S    
C27   H19   S    
C28   C29   S    
Cu2   O2    S    
C3    C10   A    
C10   C22   A    
C11   C13   D    
C19   O8    A    
C9    C21   A    
O10   C28   S    
C10   C12   S    
C13   C18   S    
C5    C6    A    
H7    N2    S    
C28   H22   S    
C19   C21   S    
C25   H16   S    
C2    C3    A    
C3    C7    A    
C30   H26   S    
Cu2   O8    S    
Cu2   N2    S    
C2    C24   A    
C11   H14   S    
C11   C14   S    
Cu1   O7    S    
C26   H17   S    
C29   C30   S    
C16   C17   S    
Cu2   O4    S    
C14   H3    S    
C16   H4    S    
O9    C25   S    
C2    C4    A    
Cu1   O3    S    
C25   H15   S    
C9    H1    S    
C12   O4    A    
C8    H10   S    
C26   C27   S    
Cu1   N1    S    
C30   H27   S    
C17   H6    S    
C19   O7    A    
C17   N2    D    
C12   O3    A    
C7    H13   S    
H5    N1    S    
Cu1   Cu2   S    
C14   C15   D    
C22   H11   S    
C27   H20   S    
C16   N1    D    
C20   H9    S    
C22   C23   A    
C23   O10   S    
C6    H8    S    
C18   O6    A    
C4    C5    A    
C8    C21   A    
