data_mof_unit_31573.cif
_audit_creation_date              2012-12-10T20:41:03-0500
_audit_creation_method            fapswitch 2.2
_symmetry_space_group_name_H-M    P1
_symmetry_Int_Tables_number       1
_space_group_crystal_system       triclinic
_cell_length_a                    27.744027
_cell_length_b                    10.694188
_cell_length_c                    9.853408
_cell_angle_alpha                 89.020094
_cell_angle_beta                  90.388895
_cell_angle_gamma                 90.57376
_cell_volume                      2922.86647107

loop_
_atom_site_label
_atom_site_type_symbol
_atom_type_description
_atom_site_fract_x
_atom_site_fract_y
_atom_site_fract_z
_atom_type_partial_charge
C1    C     C_R   0.501830 0.259599 0.500684 0.888764
C2    C     C_R   0.974821 0.396750 0.541248 0.052925
C3    C     C_R   0.974485 0.598132 0.416315 0.045353
C4    C     C_R   0.405953 0.502081 0.499707 1.050294
C5    C     C_R   0.949424 0.496604 0.478475 0.079104
C6    C     C_R   0.949111 0.311650 0.624643 -0.167631
C7    C     C_R   0.899120 0.312968 0.629391 -0.125600
C8    C     C_R   0.873425 0.402911 0.554957 -0.030355
C9    C     C_R   0.898523 0.496365 0.480987 -0.054712
C10   C     C_R   0.872758 0.590607 0.411394 -0.028003
C11   C     C_R   0.822379 0.588261 0.415014 0.517978
C12   C     C_R   0.275517 0.448679 0.401760 0.325474
C13   C     C_R   0.823060 0.404398 0.556152 0.521795
C14   C     C_R   0.724449 0.526310 0.612204 -0.212318
C15   C     C_R   0.674003 0.528346 0.618283 0.434274
C16   C     C_R   0.502157 0.739970 0.498915 0.883607
C17   C     C_R   0.670745 0.471367 0.379543 -0.303445
C18   C     C_R   0.720672 0.469722 0.375251 -0.097135
C19   C     C_R   0.747473 0.497076 0.491383 0.274352
C20   C     C_R   0.025391 0.390873 0.527397 -0.012792
C21   C     C_R   0.050471 0.500669 0.483904 0.062905
C22   C     C_R   0.025170 0.605641 0.430814 0.052556
C23   C     C_R   0.252399 0.513252 0.504580 0.149189
C24   C     C_R   0.052265 0.280365 0.554083 0.129465
C25   C     C_R   0.101260 0.719920 0.408492 -0.100381
C26   C     C_R   0.947785 0.689676 0.344135 -0.195997
C27   C     C_R   0.897738 0.685242 0.341024 -0.120822
C28   C     C_R   0.594062 0.500586 0.500468 0.901819
C29   C     C_R   0.051425 0.715356 0.396216 -0.182425
C30   C     C_R   0.518080 0.060688 0.620125 0.131698
C31   C     C_R   0.510679 0.128157 0.499697 -0.094229
C32   C     C_R   0.514320 0.066781 0.375045 -0.202166
C33   C     C_R   0.514597 0.937460 0.373599 -0.210427
C34   C     C_R   0.101287 0.505147 0.492379 -0.051394
C35   C     C_R   0.511479 0.870884 0.496899 -0.094895
C36   C     C_R   0.518426 0.932900 0.618429 0.133455
C37   C     C_3   0.492128 0.919468 0.749404 -0.436343
C38   C     C_3   0.491556 0.060655 0.751444 -0.497755
C39   C     C_R   0.461471 0.452721 0.071787 0.216933
C40   C     C_R   0.177184 0.405876 0.545947 0.642505
C41   C     C_R   0.535953 0.557064 0.071583 -0.143202
C42   C     C_R   0.535997 0.556879 0.927566 -0.121541
C43   C     C_R   0.460982 0.454686 0.928803 0.221705
C44   C     C_3   0.442427 0.323821 0.925481 -0.079073
C45   C     C_R   0.126907 0.399282 0.537362 -0.094273
C46   C     C_3   0.443972 0.320879 0.078940 -0.502367
C47   C     C_R   0.176926 0.616909 0.462814 0.623454
C48   C     C_R   0.278517 0.577516 0.603764 0.335588
C49   C     C_R   0.329358 0.570841 0.605152 0.252814
C50   C     C_R   0.326248 0.450990 0.395374 0.246539
C51   C     C_R   0.102251 0.287195 0.564376 -0.128760
C52   C     C_R   0.126575 0.615151 0.454850 -0.050822
C53   C     C_R   0.353010 0.508118 0.499858 -0.222442
C54   C     C_R   0.646935 0.500197 0.500392 -0.086147
H1    H     H_    0.119890 0.806082 0.380889 0.202806
H2    H     H_    0.514900 0.877148 0.830977 0.204084
H3    H     H_    0.454585 0.098878 0.740457 0.232162
H4    H     H_    0.514261 0.098412 0.834874 0.201199
H5    H     H_    0.565409 0.601248 0.125639 0.158414
H6    H     H_    0.565425 0.601061 0.873008 0.197311
H7    H     H_    0.469106 0.262189 0.880398 0.150217
H8    H     H_    0.408090 0.311088 0.126251 0.271309
H9    H     H_    0.471539 0.256030 0.120920 0.186008
H10   H     H_    0.121986 0.202379 0.587016 0.215757
H11   H     H_    0.746039 0.548161 0.700875 0.142682
H12   H     H_    0.964712 0.764453 0.286497 0.155365
H13   H     H_    0.880775 0.244232 0.693023 0.196317
H14   H     H_    0.967417 0.247043 0.692077 0.182980
H15   H     H_    0.330380 0.403733 0.206799 0.357707
H16   H     H_    0.273475 0.715963 0.727692 0.361354
H17   H     H_    0.265708 0.312445 0.276168 0.367747
H18   H     H_    0.675265 0.576084 0.808309 0.330777
H19   H     H_    0.338007 0.623661 0.791479 0.361581
H20   H     H_    0.650771 0.449167 0.288088 0.186764
H21   H     H_    0.878699 0.757560 0.284785 0.194721
H22   H     H_    0.738640 0.446931 0.281756 0.157555
H23   H     H_    0.034232 0.800682 0.363144 0.167722
H24   H     H_    0.513171 0.117090 0.278881 0.167632
H25   H     H_    0.513250 0.890864 0.276856 0.175603
H26   H     H_    0.455617 0.876875 0.737731 0.233949
I1    I     I_    0.370792 0.309340 0.844600 -0.295596
I2    I     I_    0.024689 0.093461 0.539987 -0.383713
N1    N     N_R   0.200959 0.513071 0.507457 -0.294330
N2    N     N_R   0.798796 0.496064 0.486640 -0.347106
N3    N     N_R   0.499670 0.499140 0.142800 -0.113012
N4    N     N_R   0.499670 0.499180 0.857150 -0.130855
O1    O     O_R   0.500010 0.316790 0.614690 -0.627448
O2    O     O_R   0.571250 0.500000 0.614690 -0.564885
O3    O     O_R   0.571240 0.499960 0.385340 -0.646336
O4    O     O_2   0.202311 0.305755 0.590882 -0.517897
O5    O     O_3   0.350363 0.396396 0.290221 -0.754896
O6    O     O_3   0.253111 0.645194 0.697048 -0.715791
O7    O     O_3   0.247248 0.384130 0.310053 -0.724926
O8    O     O_3   0.650886 0.559262 0.736663 -0.772040
O9    O     O_3   0.356652 0.625869 0.706104 -0.731984
O10   O     O_2   0.798418 0.314854 0.625521 -0.549836
O11   O     O_2   0.201804 0.720578 0.424450 -0.526254
O12   O     O_2   0.797085 0.678096 0.349170 -0.551827
O13   O     O_R   0.500000 0.316760 0.385350 -0.624786
O14   O     O_R   0.428760 0.500040 0.614660 -0.562623
O15   O     O_R   0.428750 0.500000 0.385310 -0.576609
O16   O     O_R   0.500000 0.683240 0.614650 -0.616223
O17   O     O_R   0.499990 0.683210 0.385310 -0.630913
Zn1   Zn    Zn3+2 0.500000 0.500020 0.653130 1.002080
Zn2   Zn    Zn3+2 0.500000 0.499980 0.346870 0.970983

loop_
_geom_bond_atom_site_label_1
_geom_bond_atom_site_label_2
_ccdc_geom_bond_type
C10   C27   A    
C1    O1    A    
C8    C13   A    
C22   C29   A    
C4    C53   S    
C41   C42   A    
C35   C36   A    
O14   Zn1   S    
N4    Zn1   S    
C1    O13   A    
C15   O8    S    
C7    C8    A    
C13   N2    A    
C26   C27   A    
C23   N1    S    
C46   H8    S    
C11   O12   S    
C36   C37   S    
C16   C35   S    
C30   C31   A    
C27   H21   S    
C45   C51   A    
C1    C31   S    
C30   C38   S    
C18   C19   A    
C24   I2    S    
C38   H4    S    
C37   H2    S    
C20   C24   A    
C8    C9    A    
C28   O2    A    
C28   O3    A    
C42   N4    A    
C47   N1    A    
C9    C10   A    
H18   O8    S    
C24   C51   A    
C6    H14   S    
C21   C22   A    
C25   C29   A    
C40   N1    A    
C2    C6    A    
N3    Zn2   S    
O2    Zn1   S    
C44   C46   S    
O15   Zn2   S    
C40   C45   A    
O13   Zn2   S    
C37   H26   S    
C50   C53   A    
C13   O10   S    
C2    C20   A    
C26   H12   S    
C15   C54   A    
C41   H5    S    
C44   I1    S    
C42   H6    S    
C28   C54   S    
C33   H25   S    
C39   C43   A    
C21   C34   A    
C7    H13   S    
C43   C44   S    
C5    C9    A    
C37   C38   S    
C38   H3    S    
C16   O17   A    
C31   C32   A    
C12   C23   A    
C4    O15   A    
C17   C18   A    
O17   Zn2   S    
C34   C45   A    
C49   O9    S    
O16   Zn1   S    
C47   C52   A    
C39   C46   S    
C16   O16   A    
C48   C49   A    
C4    O14   A    
C17   H20   S    
C11   N2    A    
C12   O7    S    
C2    C5    A    
H19   O9    S    
C19   N2    S    
C18   H22   S    
C23   C48   A    
C43   N4    A    
C14   C19   A    
C3    C26   A    
H16   O6    S    
C51   H10   S    
C25   H1    S    
C3    C5    A    
C12   C50   A    
C6    C7    A    
H17   O7    S    
C44   H7    S    
C41   N3    A    
C34   C52   A    
C47   O11   S    
C30   C36   A    
C46   H9    S    
C32   C33   A    
C25   C52   A    
C49   C53   A    
C33   C35   A    
C14   H11   S    
C10   C11   A    
C32   H24   S    
O1    Zn1   S    
C50   O5    S    
C29   H23   S    
C20   C21   A    
C48   O6    S    
O3    Zn2   S    
C39   N3    A    
C14   C15   A    
C3    C22   A    
C40   O4    S    
H15   O5    S    
C17   C54   A    
