data_mof_unit_51114.cif
_audit_creation_date              2012-12-10T20:34:55-0500
_audit_creation_method            fapswitch 2.2
_symmetry_space_group_name_H-M    P1
_symmetry_Int_Tables_number       1
_space_group_crystal_system       triclinic
_cell_length_a                    10.649506
_cell_length_b                    10.652571
_cell_length_c                    9.894138
_cell_angle_alpha                 90.049852
_cell_angle_beta                  89.296974
_cell_angle_gamma                 89.87183
_cell_volume                      1122.34895962

loop_
_atom_site_label
_atom_site_type_symbol
_atom_type_description
_atom_site_fract_x
_atom_site_fract_y
_atom_site_fract_z
_atom_type_partial_charge
C1    C     C_R   0.494615 0.260204 0.500124 0.962179
C2    C     C_R   0.512834 0.936445 0.616756 0.065520
C3    C     C_3   0.632243 0.929153 0.694040 -0.448855
C4    C     C_R   0.257800 0.500645 0.500598 0.857411
C5    C     C_3   0.630647 0.071510 0.695025 -0.449900
C6    C     C_R   0.390883 0.484974 0.073190 0.211581
C7    C     C_R   0.609472 0.501387 0.070323 -0.116787
C8    C     C_R   0.609483 0.501237 0.926741 -0.131395
C9    C     C_R   0.390490 0.486495 0.930924 0.202617
C10   C     C_3   0.278793 0.572547 0.932081 -0.178665
C11   C     C_3   0.279320 0.568117 0.085264 -0.483466
C12   C     C_3   0.878872 0.501083 0.498496 0.157181
C13   C     C_R   0.494867 0.739705 0.500192 0.940383
C14   C     C_R   0.742218 0.501218 0.499433 0.879124
C15   C     C_3   0.069285 0.500840 0.647059 -0.434841
C16   C     C_3   0.927022 0.500092 0.646558 -0.500772
C17   C     C_3   0.073837 0.620752 0.428316 -0.434822
C18   C     C_3   0.074580 0.382247 0.425961 -0.423025
C19   C     C_3   0.121485 0.500974 0.500580 0.112061
C20   C     C_3   0.928988 0.622835 0.428890 0.228492
C21   C     C_3   0.929794 0.383540 0.420777 -0.053979
C22   C     C_R   0.511172 0.063717 0.617401 0.061768
C23   C     C_R   0.474036 0.128656 0.503008 -0.210731
C24   C     C_R   0.413020 0.065730 0.396799 0.301916
C25   C     C_R   0.409577 0.933171 0.399827 0.307661
C26   C     C_R   0.475374 0.871230 0.502923 -0.210716
H1    H     H_    0.100720 0.587394 0.699493 0.175692
H2    H     H_    0.697927 0.505670 0.872331 0.148799
H3    H     H_    0.193397 0.529808 0.889421 0.146748
H4    H     H_    0.300887 0.659001 0.135178 0.256035
H5    H     H_    0.196946 0.517481 0.128103 0.174712
H6    H     H_    0.892091 0.416663 0.703019 0.199451
H7    H     H_    0.891819 0.584464 0.702067 0.175307
H8    H     H_    0.109291 0.706086 0.480434 0.134334
H9    H     H_    0.895203 0.705784 0.488317 0.069162
H10   H     H_    0.112828 0.379443 0.320794 0.181199
H11   H     H_    0.109924 0.296629 0.477752 0.171456
H12   H     H_    0.902047 0.391511 0.312848 0.194645
H13   H     H_    0.899050 0.720801 0.266956 0.331521
H14   H     H_    0.365414 0.082058 0.208390 0.339528
H15   H     H_    0.274188 0.913183 0.272017 0.325895
H16   H     H_    0.234442 0.757420 0.909061 0.181768
H17   H     H_    0.305663 0.693479 0.774832 0.221516
H18   H     H_    0.900418 0.193412 0.407857 0.184451
H19   H     H_    0.914826 0.244715 0.567395 0.189147
H20   H     H_    0.110722 0.624008 0.322811 0.208059
H21   H     H_    0.617897 0.887288 0.795940 0.218968
H22   H     H_    0.711233 0.888512 0.633638 0.180450
H23   H     H_    0.615609 0.112044 0.797550 0.210180
H24   H     H_    0.708898 0.113929 0.635485 0.197842
H25   H     H_    0.697839 0.506011 0.122632 0.182559
H26   H     H_    0.103670 0.417143 0.703096 0.187832
N1    N     N_R   0.499150 0.499140 0.142800 -0.100888
N2    N     N_R   0.499150 0.499180 0.857150 -0.098780
N3    N     N_3   0.308022 0.697635 0.880146 -0.405484
N4    N     N_3   0.875813 0.266449 0.473836 -0.495941
O1    O     O_R   0.500020 0.316790 0.614690 -0.629282
O2    O     O_3   0.364213 0.134379 0.291132 -0.769350
O3    O     O_3   0.346071 0.863239 0.305032 -0.780842
O4    O     O_R   0.500000 0.316760 0.385350 -0.562775
O5    O     O_R   0.314800 0.500000 0.614670 -0.649833
O6    O     O_R   0.314790 0.499960 0.385330 -0.617323
O7    O     O_R   0.500000 0.683240 0.614650 -0.633737
O8    O     O_R   0.499980 0.683210 0.385310 -0.555997
O9    O     O_R   0.685210 0.500040 0.614670 -0.653500
O10   O     O_R   0.685200 0.500000 0.385330 -0.594272
O11   O     O_3   0.885387 0.632529 0.295624 -0.785442
Zn1   Zn    Zn3+2 0.500010 0.500020 0.653130 0.931103
Zn2   Zn    Zn3+2 0.499990 0.499980 0.346870 1.005147

loop_
_geom_bond_atom_site_label_1
_geom_bond_atom_site_label_2
_ccdc_geom_bond_type
C2    C22   A    
C21   N4    S    
C23   C24   A    
C13   C26   S    
C1    O1    A    
H16   N3    S    
C16   H6    S    
C18   C21   S    
C25   O3    S    
C9    C10   S    
H18   N4    S    
C20   O11   S    
C15   H1    S    
C13   O7    A    
C8    N2    A    
O9    Zn1   S    
N1    Zn2   S    
C12   C20   S    
C6    C9    A    
C2    C3    S    
C14   O10   A    
C7    H25   S    
C7    C8    A    
C2    C26   A    
C15   H26   S    
C24   C25   A    
C15   C19   S    
C10   N3    S    
C4    C19   S    
C10   H3    S    
C5    H23   S    
C13   O8    A    
H13   O11   S    
O4    Zn2   S    
C11   H4    S    
C8    H2    S    
C4    O5    A    
H17   N3    S    
H19   N4    S    
C17   C19   S    
C18   H11   S    
C12   C14   S    
C1    C23   S    
C16   H7    S    
C5    H24   S    
O10   Zn2   S    
N2    Zn1   S    
C10   C11   S    
C7    N1    A    
C6    N1    A    
C11   H5    S    
C15   C16   S    
C4    O6    A    
C3    H22   S    
C17   C20   S    
H14   O2    S    
C17   H20   S    
H15   O3    S    
C24   O2    S    
C18   C19   S    
C17   H8    S    
C1    O4    A    
C3    H21   S    
C6    C11   S    
O5    Zn1   S    
C22   C23   A    
C21   H12   S    
O7    Zn1   S    
C9    N2    A    
O1    Zn1   S    
C25   C26   A    
O8    Zn2   S    
C20   H9    S    
C18   H10   S    
C12   C21   S    
C14   O9    A    
C5    C22   S    
C12   C16   S    
O6    Zn2   S    
C3    C5    S    
