data_mof_unit_67016.cif
_audit_creation_date              2012-12-11T17:41:06-0500
_audit_creation_method            fapswitch 2.2
_symmetry_space_group_name_H-M    P1
_symmetry_Int_Tables_number       1
_space_group_crystal_system       triclinic
_cell_length_a                    8.173412
_cell_length_b                    12.662536
_cell_length_c                    14.202049
_cell_angle_alpha                 92.79929
_cell_angle_beta                  90.668834
_cell_angle_gamma                 98.326606
_cell_volume                      1452.36597563

loop_
_atom_site_label
_atom_site_type_symbol
_atom_type_description
_atom_site_fract_x
_atom_site_fract_y
_atom_site_fract_z
_atom_type_partial_charge
Ba1   Ba    Ba6+2 0.855630 0.555280 0.454520 1.632305
Ba2   Ba    Ba6+2 0.334200 0.444810 0.545490 1.631382
C1    C     C_3   0.603792 0.948878 0.179705 -0.411081
C2    C     C_3   0.648982 0.857227 0.235268 0.339795
C3    C     C_3   0.475422 0.310314 0.257763 0.303077
C4    C     C_3   0.455238 0.287976 0.151704 -0.389972
C5    C     C_3   0.046573 0.196012 0.805720 0.362471
C6    C     C_3   0.061780 0.159846 0.905649 -0.363281
C7    C     C_3   0.542104 0.141616 0.764455 0.344204
C8    C     C_3   0.590318 0.051866 0.821406 -0.411896
C9    C     C_R   0.985597 0.442938 0.061145 -0.035480
C10   C     C_R   0.183275 0.498545 0.195874 0.042280
C11   C     C_R   0.338407 0.550641 0.225988 -0.295048
C12   C     C_3   0.144193 0.804318 0.194813 0.359901
C13   C     C_R   0.451220 0.597723 0.162312 0.018786
C14   C     C_R   0.406242 0.600679 0.067482 -0.148497
C15   C     C_R   0.249088 0.551954 0.034672 -0.003159
C16   C     C_R   0.137615 0.496865 0.098018 -0.022809
C17   C     C_R   0.052939 0.502011 0.901876 -0.023176
C18   C     C_R   0.941584 0.446738 0.965200 -0.003318
C19   C     C_R   0.007670 0.499861 0.803920 0.044206
C20   C     C_R   0.854099 0.445405 0.773466 -0.294147
C21   C     C_R   0.740606 0.399170 0.837233 0.014364
C22   C     C_R   0.784798 0.397432 0.932293 -0.148202
C23   C     C_3   0.128890 0.841554 0.095276 -0.363033
C24   C     C_R   0.204744 0.556204 0.938820 -0.035668
C25   C     C_R   0.764484 0.176589 0.536265 -0.276853
C26   C     C_R   0.428980 0.813265 0.461329 -0.285822
C27   C     C_R   0.405753 0.994963 0.427585 -0.104176
C28   C     C_R   0.340677 0.887488 0.422959 -0.007232
C29   C     C_R   0.576215 0.846301 0.512326 0.067009
C30   C     C_R   0.641246 0.956934 0.521777 -0.057645
C31   C     C_R   0.555419 0.031553 0.476916 -0.060892
C32   C     C_R   0.619508 0.141300 0.484508 0.043288
C33   C     C_R   0.853642 0.104495 0.576779 -0.008612
C34   C     C_3   0.226515 0.762941 0.656630 0.280871
C35   C     C_R   0.789999 0.995635 0.572771 -0.092455
C36   C     C_3   0.239720 0.882588 0.677669 -0.350914
C37   C     C_3   0.969735 0.236496 0.343740 0.279235
C38   C     C_3   0.960352 0.117110 0.322365 -0.350406
C39   C     C_3   0.714025 0.672895 0.738071 0.307332
C40   C     C_3   0.730355 0.696530 0.844164 -0.393983
H1    H     H_    0.741803 0.889360 0.291039 0.080496
H2    H     H_    0.322626 0.906262 0.739665 0.114492
H3    H     H_    0.290585 0.926556 0.616577 0.080533
H4    H     H_    0.115521 0.904197 0.693161 0.141339
H5    H     H_    0.847094 0.255115 0.363862 0.002294
H6    H     H_    0.059202 0.259492 0.403022 0.082615
H7    H     H_    0.873798 0.091991 0.262231 0.115630
H8    H     H_    0.915888 0.072493 0.384371 0.085318
H9    H     H_    0.084714 0.097772 0.303940 0.140481
H10   H     H_    0.831292 0.650353 0.711552 0.011857
H11   H     H_    0.612098 0.605806 0.723845 0.066815
H12   H     H_    0.556748 0.008756 0.228021 0.104158
H13   H     H_    0.837938 0.759262 0.860694 0.128157
H14   H     H_    0.748410 0.623549 0.880547 0.064888
H15   H     H_    0.616320 0.724813 0.870992 0.118513
H16   H     H_    0.535230 0.820422 0.270056 -0.050543
H17   H     H_    0.506377 0.918010 0.126163 0.113957
H18   H     H_    0.357961 0.332066 0.285610 0.018159
H19   H     H_    0.576543 0.378212 0.271209 0.059851
H20   H     H_    0.431112 0.361017 0.117117 0.063904
H21   H     H_    0.569923 0.262803 0.122615 0.118761
H22   H     H_    0.713712 0.987804 0.142817 0.129769
H23   H     H_    0.127277 0.273907 0.800654 0.092798
H24   H     H_    0.916113 0.206584 0.792449 -0.070628
H25   H     H_    0.192731 0.153298 0.922840 0.153481
H26   H     H_    0.018475 0.218745 0.956565 0.067484
H27   H     H_    0.985389 0.080683 0.912632 0.110290
H28   H     H_    0.654818 0.178993 0.728958 -0.053678
H29   H     H_    0.450020 0.107405 0.709008 0.082335
H30   H     H_    0.686888 0.084819 0.874787 0.113747
H31   H     H_    0.639452 0.991984 0.773985 0.094199
H32   H     H_    0.062015 0.726970 0.199617 0.093149
H33   H     H_    0.481285 0.012276 0.858645 0.129748
H34   H     H_    0.374720 0.550503 0.299492 0.072308
H35   H     H_    0.494400 0.639976 0.019425 0.070770
H36   H     H_    0.696226 0.358784 0.980473 0.069841
H37   H     H_    0.818573 0.444284 0.699749 0.069837
H38   H     H_    0.899269 0.397632 0.106289 0.097138
H39   H     H_    0.291038 0.601569 0.893706 0.096817
H40   H     H_    0.334801 0.048817 0.394419 0.100909
H41   H     H_    0.859911 0.942991 0.608202 0.103193
H42   H     H_    0.813394 0.260844 0.540453 0.063576
H43   H     H_    0.274207 0.792307 0.207405 -0.069564
H44   H     H_    0.377656 0.729443 0.456234 0.070689
H45   H     H_    0.998525 0.850330 0.078986 0.153421
H46   H     H_    0.207778 0.919799 0.088354 0.109729
H47   H     H_    0.349468 0.742594 0.638785 0.007199
H48   H     H_    0.139344 0.741185 0.595958 0.076884
O1    O     O_2   0.887370 0.460630 0.272300 -0.466925
O2    O     O_3   0.680545 0.765063 0.695820 -0.642800
O3    O     O_3   0.097390 0.881488 0.259563 -0.602319
O4    O     O_2   0.302330 0.539400 0.727760 -0.469685
O5    O     O_3   0.060300 0.548700 0.611500 -0.495719
O6    O     O_3   0.519500 0.346920 0.670840 -0.470504
O7    O     O_3   0.171648 0.711070 0.737502 -0.639338
O8    O     O_3   0.614310 0.373510 0.452640 -0.479389
O9    O     O_3   0.100780 0.295230 0.623970 -0.486596
O10   O     O_2   0.195446 0.111028 0.568293 -0.483299
O11   O     O_3   0.095814 0.118929 0.741769 -0.601305
O12   O     O_3   0.129410 0.451380 0.388510 -0.494432
O13   O     O_3   0.575400 0.626570 0.547370 -0.491275
O14   O     O_2   0.344320 0.238700 0.455090 -0.466585
O15   O     O_3   0.513682 0.218297 0.298976 -0.650867
O16   O     O_2   0.401266 0.407661 0.835727 -0.494825
O17   O     O_3   0.470192 0.212681 0.825010 -0.592562
O18   O     O_3   0.670210 0.653170 0.329170 -0.477812
O19   O     O_2   0.791138 0.592206 0.164785 -0.493732
O20   O     O_3   0.017751 0.289077 0.262167 -0.640458
O21   O     O_3   0.718139 0.785981 0.173618 -0.594255
O22   O     O_2   0.845380 0.761330 0.544970 -0.471415
O23   O     O_3   0.088930 0.704860 0.376040 -0.489091
O24   O     O_2   0.001444 0.889263 0.434474 -0.486085
P1    P     P_3+3 0.054400 0.427280 0.286870 0.970188
P2    P     P_3+3 0.668300 0.742890 0.573060 0.969277
P3    P     P_3+3 0.132443 0.842859 0.373939 0.946834
P4    P     P_3+3 0.135310 0.572810 0.713130 0.969851
P5    P     P_3+3 0.060612 0.155964 0.626896 0.948950
P6    P     P_3+3 0.658059 0.654918 0.206471 0.958302
P7    P     P_3+3 0.526765 0.241628 0.421511 0.932692
P8    P     P_3+3 0.532619 0.343928 0.793355 0.958433
H49   H     H_    0.349839 0.223436 0.135909 0.128934
H50   H     H_    0.169031 0.782129 0.043726 0.067947

loop_
_geom_bond_atom_site_label_1
_geom_bond_atom_site_label_2
_ccdc_geom_bond_type
C34   H47   S    
O8    P7    S    
C9    C16   A    
C39   C40   S    
O18   P6    S    
C33   P5    S    
C17   C18   A    
Ba2   P4    S    
C5    C6    S    
C3    O15   S    
C1    H22   S    
C6    H27   S    
C19   P4    S    
Ba1   O23   S    
C15   C24   A    
C12   H32   S    
Ba2   O5    S    
C33   C35   A    
C20   H37   S    
C14   H35   S    
Ba1   O22   S    
C3    C4    S    
C1    H12   S    
Ba2   O12   S    
C13   C14   A    
C27   C31   A    
C23   H45   S    
C13   P6    S    
Ba1   Ba2   S    
O7    P4    S    
C17   C24   A    
C36   H3    S    
O12   P1    S    
C40   H14   S    
C37   O20   S    
C18   C22   A    
C14   C15   A    
C21   C22   A    
C34   O7    S    
Ba1   P2    S    
C7    C8    S    
Ba1   O13   S    
C12   O3    S    
C10   P1    S    
O5    P4    S    
C19   C20   A    
O3    P3    S    
C4    H49   S    
C40   H15   S    
C31   C32   A    
C21   P8    S    
C25   C32   A    
C9    C18   A    
O15   P7    S    
O11   P5    S    
Ba2   O4    S    
C7    H28   S    
C37   C38   S    
O14   P7    D    
C25   C33   A    
C23   H46   S    
O21   P6    S    
C4    H21   S    
C36   H2    S    
C27   C28   A    
C40   H13   S    
C5    H23   S    
C8    H33   S    
C29   C30   A    
C11   H34   S    
Ba2   O14   S    
Ba1   O5    S    
O16   P8    D    
C15   C16   A    
C3    H19   S    
O10   P5    D    
C30   C35   A    
O2    P2    S    
C39   H11   S    
C32   P7    S    
O23   P3    S    
C22   H36   S    
C2    H1    S    
C2    O21   S    
Ba2   O9    S    
C6    H26   S    
C24   H39   S    
C11   C13   A    
C26   H44   S    
C2    H16   S    
C1    C2    S    
C29   P2    S    
O22   P2    D    
C34   C36   S    
C37   H5    S    
C34   H48   S    
C25   H42   S    
C39   H10   S    
C3    H18   S    
C17   C19   A    
C26   C29   A    
C7    H29   S    
C12   H43   S    
Ba1   O8    S    
C28   P3    S    
C7    O17   S    
C38   H9    S    
O6    P8    S    
C30   C31   A    
C4    H20   S    
Ba2   O6    S    
O13   P2    S    
C27   H40   S    
C5    H24   S    
O4    P4    D    
Ba2   O13   S    
C38   H8    S    
Ba1   O12   S    
C26   C28   A    
C8    H31   S    
O1    P1    D    
C12   C23   S    
C23   H50   S    
C36   H4    S    
O24   P3    D    
C9    H38   S    
Ba1   O18   S    
O9    P5    S    
C39   O2    S    
C10   C11   A    
Ba2   O8    S    
C6    H25   S    
Ba1   O1    S    
C5    O11   S    
C10   C16   A    
C20   C21   A    
C35   H41   S    
Ba1   P1    S    
O17   P8    S    
O20   P1    S    
C38   H7    S    
O19   P6    D    
C1    H17   S    
C37   H6    S    
C8    H30   S    
