data_mof_unit_56088.cif
_audit_creation_date              2012-12-10T20:02:31-0500
_audit_creation_method            fapswitch 2.2
_symmetry_space_group_name_H-M    P1
_symmetry_Int_Tables_number       1
_space_group_crystal_system       triclinic
_cell_length_a                    18.29393
_cell_length_b                    18.450011
_cell_length_c                    18.515907
_cell_angle_alpha                 120.540123
_cell_angle_beta                  120.171613
_cell_angle_gamma                 89.796028
_cell_volume                      4379.14273333

loop_
_atom_site_label
_atom_site_type_symbol
_atom_type_description
_atom_site_fract_x
_atom_site_fract_y
_atom_site_fract_z
_atom_type_partial_charge
C1    C     C_R   0.140312 0.141312 0.780526 0.523505
C2    C     C_R   0.706043 0.782814 0.441763 0.074825
C3    C     C_R   0.913615 0.689747 0.677673 0.413067
C4    C     C_R   0.859807 0.859638 0.220047 0.528806
C5    C     C_R   0.964381 0.637330 0.699749 0.213054
C6    C     C_R   0.935177 0.545928 0.622287 -0.008559
C7    C     C_R   0.855159 0.506466 0.524729 0.384431
C8    C     C_R   0.805269 0.558626 0.502453 -0.114889
C9    C     C_R   0.834516 0.650710 0.578222 -0.035772
C10   C     C_R   0.715963 0.799510 0.051524 -0.003914
C11   C     C_R   0.805229 0.806107 0.108690 0.023149
C12   C     C_R   0.581561 0.703519 0.253843 0.236521
C13   C     C_R   0.844535 0.764402 0.057181 -0.086823
C14   C     C_R   0.792894 0.707903 0.949702 0.179190
C15   C     C_R   0.700252 0.699064 0.892216 0.001707
C16   C     C_R   0.859551 0.139904 0.499192 0.557753
C17   C     C_R   0.665948 0.751826 0.945644 -0.004172
C18   C     C_3   0.580538 0.725666 0.932457 0.116027
C19   C     C_3   0.637150 0.771044 0.048412 0.119492
C20   C     C_R   0.218373 0.772168 0.560547 -0.002089
C21   C     C_R   0.200439 0.808674 0.505334 0.006882
C22   C     C_R   0.244831 0.797816 0.458596 -0.110103
C23   C     C_R   0.502510 0.705684 0.180076 0.256061
C24   C     C_R   0.298691 0.743996 0.458497 -0.113458
C25   C     C_R   0.307443 0.698945 0.503416 0.018796
C26   C     C_R   0.268369 0.715656 0.555943 0.074201
C27   C     C_3   0.208653 0.653048 0.548516 0.529223
C28   C     C_R   0.139972 0.860087 0.500046 0.508717
C29   C     C_3   0.154755 0.716827 0.556812 0.139285
C30   C     C_R   0.226465 0.161464 0.945690 -0.045813
C31   C     C_R   0.190468 0.200224 0.893280 -0.073571
C32   C     C_R   0.196194 0.292046 0.950889 0.160842
C33   C     C_R   0.234945 0.337934 0.057464 0.208681
C34   C     C_R   0.501583 0.788559 0.194003 0.156349
C35   C     C_R   0.290267 0.303378 0.109322 -0.014300
C36   C     C_R   0.278388 0.212916 0.051523 0.013777
C37   C     C_3   0.343468 0.163622 0.058067 0.762276
C38   C     C_3   0.286379 0.106192 0.941026 0.352227
C39   C     C_R   0.244736 0.284896 0.580197 -0.087351
C40   C     C_R   0.142617 0.139635 0.501917 0.563692
C41   C     C_R   0.205725 0.192618 0.505845 0.022597
C42   C     C_R   0.228159 0.153354 0.433779 0.210189
C43   C     C_R   0.260787 0.208447 0.417131 0.142516
C44   C     C_R   0.300296 0.302185 0.494511 0.010247
C45   C     C_R   0.660359 0.743197 0.461010 0.389432
C46   C     C_R   0.295476 0.338003 0.578372 -0.082633
C47   C     C_3   0.265114 0.414387 0.623077 0.358731
C48   C     C_3   0.209245 0.355014 0.624595 0.354326
C49   C     C_R   0.840014 0.287685 0.558766 -0.016805
C50   C     C_R   0.802271 0.194727 0.496517 -0.045978
C51   C     C_R   0.708626 0.155028 0.436920 0.386561
C52   C     C_R   0.858704 0.858790 0.497857 0.544198
C53   C     C_R   0.654809 0.207671 0.448480 0.221987
C54   C     C_R   0.693546 0.301891 0.506619 -0.081511
C55   C     C_R   0.786109 0.340599 0.563133 -0.003082
C56   C     C_R   0.699105 0.698519 0.505389 0.051084
C57   C     C_3   0.848889 0.402550 0.678192 0.340817
C58   C     C_3   0.908667 0.346678 0.672515 0.352742
C59   C     C_R   0.359895 0.639668 0.499848 0.539417
C60   C     C_R   0.639559 0.359625 0.503515 0.565535
C61   C     C_R   0.640942 0.639352 0.780153 0.525432
C62   C     C_R   0.357401 0.359717 0.220272 0.594245
C63   C     C_R   0.356814 0.359623 0.496503 0.560268
C64   C     C_R   0.569770 0.867308 0.287374 -0.042738
C65   C     C_R   0.640987 0.640385 0.501276 0.543210
C66   C     C_R   0.638360 0.866457 0.367645 0.390398
C67   C     C_R   0.790843 0.707495 0.547660 -0.024508
C68   C     C_R   0.646902 0.785135 0.351541 0.042776
C69   C     C_R   0.841480 0.764840 0.549006 -0.093995
C70   C     C_R   0.800518 0.802284 0.495665 0.009253
F1    F     F_    0.827088 0.417787 0.450743 -0.558441
F2    F     F_    0.886752 0.488049 0.713196 -0.513625
F3    F     F_    0.988471 0.390387 0.698627 -0.477441
F4    F     F_    0.573574 0.739512 0.424432 -0.582008
F5    F     F_    0.941465 0.778624 0.751357 -0.538453
F6    F     F_    0.254470 0.648243 0.631636 -0.487019
F7    F     F_    0.428610 0.215521 0.104031 -0.603439
F8    F     F_    0.343049 0.117934 0.098454 -0.459709
F9    F     F_    0.694888 0.945099 0.461899 -0.561153
F10   F     F_    0.242587 0.018815 0.896598 -0.522139
F11   F     F_    0.213170 0.434430 0.554383 -0.503065
F12   F     F_    0.117645 0.332253 0.556123 -0.505162
F13   F     F_    0.669924 0.064881 0.371306 -0.560204
H1    H     H_    0.973963 0.504908 0.637888 0.251469
H2    H     H_    0.320442 0.112308 0.907775 0.117238
H3    H     H_    0.320689 0.473449 0.700812 0.135704
H4    H     H_    0.231513 0.378298 0.703104 0.150452
H5    H     H_    0.819730 0.400230 0.717399 0.120726
H6    H     H_    0.915976 0.313140 0.710189 0.114492
H7    H     H_    0.912363 0.773664 0.584325 0.205365
H8    H     H_    0.413115 0.892380 0.059430 0.404429
H9    H     H_    0.771589 0.519880 0.851416 0.340163
H10   H     H_    0.546651 0.914915 0.027234 0.376072
H11   H     H_    0.748135 0.712023 0.219806 0.386668
H12   H     H_    0.745503 0.527973 0.425093 0.163200
H13   H     H_    0.083313 0.504894 0.481517 0.409627
H14   H     H_    0.271983 0.848753 0.836540 0.405124
H15   H     H_    0.285989 0.361561 0.893716 0.354887
H16   H     H_    0.202227 0.483054 0.256226 0.390713
H17   H     H_    0.279421 0.962056 0.433392 0.367949
H18   H     H_    0.160068 0.253103 0.272676 0.367928
H19   H     H_    0.464262 0.182974 0.461885 0.389006
H20   H     H_    0.720985 0.565627 0.286569 0.374422
H21   H     H_    0.262918 0.597662 0.987542 0.416293
H22   H     H_    0.130500 0.802635 0.852143 0.388265
H23   H     H_    0.914576 0.770913 0.101022 0.203002
H24   H     H_    0.546832 0.652093 0.883212 0.172769
H25   H     H_    0.620429 0.827715 0.092480 0.168402
H26   H     H_    0.235813 0.828446 0.419360 0.170545
H27   H     H_    0.566396 0.930344 0.299677 0.279010
H28   H     H_    0.330746 0.735338 0.420238 0.195905
H29   H     H_    0.084479 0.688379 0.487470 0.109498
O1    O     O_3   0.000000 0.000000 0.500000 -0.514938
O2    O     O_R   0.384160 0.323450 0.268320 -0.461108
O3    O     O_R   0.384130 0.444860 0.560610 -0.501224
O4    O     O_R   0.115780 0.055050 0.731580 -0.486290
O5    O     O_R   0.555060 0.615780 0.439210 -0.437985
O6    O     O_R   0.384140 0.323430 0.439180 -0.478821
O7    O     O_R   0.676490 0.615760 0.560640 -0.550756
O8    O     O_R   0.676470 0.615740 0.731500 -0.464046
O9    O     O_R   0.384180 0.444900 0.268330 -0.480832
O10   O     O_R   0.384150 0.615750 0.560620 -0.454824
O11   O     O_R   0.555030 0.323430 0.439190 -0.462667
O12   O     O_R   0.823480 0.055090 0.439280 -0.449089
O13   O     O_R   0.823490 0.884220 0.268410 -0.508039
O14   O     O_R   0.944920 0.176520 0.560720 -0.491109
O15   O     O_R   0.115810 0.884200 0.439290 -0.527758
O16   O     O_R   0.115820 0.176530 0.560730 -0.490329
O17   O     O_R   0.944890 0.884180 0.560700 -0.517300
O18   O     O_R   0.115830 0.055100 0.439300 -0.471763
O19   O     O_R   0.823460 0.884190 0.439270 -0.491689
O20   O     O_2   0.378773 0.716656 0.992184 -0.161751
O21   O     O_2   0.344866 0.815893 0.114109 -0.138257
O22   O     O_3   0.463929 0.887327 0.110957 -0.494213
O23   O     O_R   0.115790 0.884180 0.560710 -0.500645
O24   O     O_2   0.857700 0.671909 0.837792 -0.133604
O25   O     O_2   0.935410 0.651050 0.974760 -0.196723
O26   O     O_3   0.779305 0.534061 0.810234 -0.495524
O27   O     O_2   0.478142 0.753531 0.787898 -0.177787
O28   O     O_2   0.425570 0.759616 0.888052 -0.176804
O29   O     O_3   0.560803 0.894011 0.976291 -0.474865
O30   O     O_2   0.550806 0.635076 0.024792 -0.192792
O31   O     O_2   0.688112 0.628622 0.033545 -0.295030
O32   O     O_3   0.703115 0.741579 0.203575 -0.513208
O33   O     O_2   0.108504 0.553752 0.340288 -0.291270
O34   O     O_R   0.115790 0.176500 0.731590 -0.468870
O35   O     O_2   0.201672 0.486417 0.421323 -0.202479
O36   O     O_3   0.057138 0.496432 0.415057 -0.421048
O37   O     O_2   0.108921 0.834666 0.676990 -0.211518
O38   O     O_2   0.126421 0.704136 0.679331 -0.259200
O39   O     O_3   0.271075 0.832459 0.776133 -0.386482
O40   O     O_2   0.070221 0.319777 0.819053 -0.196275
O41   O     O_2   0.199324 0.452578 0.975801 -0.141157
O42   O     O_3   0.221017 0.339406 0.838633 -0.471532
O43   O     O_2   0.267023 0.515302 0.173531 -0.182567
O44   O     O_2   0.108963 0.417687 0.045580 -0.175036
O45   O     O_R   0.944940 0.884220 0.268420 -0.533994
O46   O     O_3   0.202547 0.423542 0.210702 -0.490578
O47   O     O_2   0.137665 0.976927 0.282737 -0.176680
O48   O     O_2   0.293921 0.031834 0.346570 -0.191409
O49   O     O_3   0.265347 0.017456 0.462664 -0.521227
O50   O     O_2   0.306690 0.138964 0.284038 -0.116809
O51   O     O_2   0.148594 0.080086 0.211005 -0.156362
O52   O     O_3   0.208220 0.237835 0.263669 -0.458628
O53   O     O_2   0.477565 0.136181 0.299210 -0.111730
O54   O     O_2   0.537559 0.067702 0.390978 -0.193383
O55   O     O_3   0.520981 0.220675 0.486173 -0.525368
O56   O     O_3   0.499960 0.499960 0.499910 -0.528935
O57   O     O_2   0.564759 0.559770 0.256232 -0.246508
O58   O     O_2   0.559813 0.536011 0.110966 -0.141993
O59   O     O_3   0.713736 0.619570 0.288239 -0.564824
O60   O     O_2   0.394592 0.557659 0.983898 -0.212777
O61   O     O_2   0.400903 0.550498 0.115043 -0.166938
O62   O     O_3   0.311188 0.642403 0.061706 -0.397697
O63   O     O_2   0.043712 0.667107 0.883003 -0.075575
O64   O     O_2   0.131957 0.641355 0.813386 -0.203930
O65   O     O_3   0.108847 0.795574 0.888379 -0.352366
O66   O     O_R   0.384170 0.615770 0.439200 -0.530887
O67   O     O_R   0.676480 0.444870 0.560630 -0.493147
O68   O     O_R   0.555020 0.615730 0.731490 -0.536592
S1    S     S_3+6 0.417978 0.799388 0.098579 0.133145
S2    S     S_3+6 0.230637 0.162728 0.290668 0.155218
S3    S     S_3+6 0.544636 0.154433 0.402306 0.152976
S4    S     S_3+6 0.602487 0.600721 0.224417 0.094237
S5    S     S_3+6 0.401785 0.610217 0.082662 0.180955
S6    S     S_3+6 0.064510 0.684479 0.823252 0.211228
S7    S     S_3+6 0.845110 0.642057 0.893914 0.125562
S8    S     S_3+6 0.507389 0.782649 0.893002 0.092996
S9    S     S_3+6 0.644053 0.689809 0.075742 0.020174
S10   S     S_3+6 0.144206 0.544605 0.427122 0.102219
S11   S     S_3+6 0.163003 0.773111 0.674471 0.110754
S12   S     S_3+6 0.169946 0.353905 0.897007 0.149727
S13   S     S_3+6 0.202166 0.426894 0.121371 0.131808
S14   S     S_3+6 0.230139 0.041646 0.376800 0.110732
Zn1   Zn    Zn3+2 0.869870 0.956630 0.413250 1.045700
Zn2   Zn    Zn3+2 0.043380 0.130130 0.586750 1.080619
Zn3   Zn    Zn3+2 0.043390 0.956630 0.413260 1.022920
Zn4   Zn    Zn3+2 0.043360 0.956610 0.586740 1.043215
Zn5   Zn    Zn3+2 0.630090 0.543330 0.586660 1.045888
Zn6   Zn    Zn3+2 0.456570 0.543320 0.586650 1.069002
Zn7   Zn    Zn3+2 0.456580 0.369830 0.413160 1.120033
Zn8   Zn    Zn3+2 0.456590 0.543350 0.413170 1.084543

loop_
_geom_bond_atom_site_label_1
_geom_bond_atom_site_label_2
_ccdc_geom_bond_type
O54   S3    D    
O47   S14   D    
C66   C68   A    
H15   O42   S    
H19   O55   S    
O56   Zn5   S    
O33   S10   D    
C27   C29   S    
C28   O23   A    
C41   C42   A    
C29   H29   S    
C35   C36   A    
C69   H7    S    
H9    O26   S    
O23   Zn4   S    
C7    C8    A    
C39   C41   A    
C54   C60   S    
C53   C54   A    
C60   O67   A    
C66   F9    S    
C12   C68   A    
C12   C23   A    
O61   S5    D    
C26   C27   S    
C20   C26   A    
C4    O13   A    
C3    C9    A    
C52   O17   A    
C21   C22   A    
C36   C37   S    
C16   C50   S    
O9    Zn8   S    
O50   S2    D    
C2    C68   S    
C53   S3    S    
O62   S5    S    
C7    F1    S    
C30   C31   A    
O32   S9    S    
O13   Zn1   S    
C10   C17   A    
C56   C65   S    
C40   O16   A    
C1    C31   S    
O8    Zn5   S    
O56   Zn7   S    
C30   C38   S    
C34   S1    S    
C18   C19   S    
C42   S14   S    
C18   H24   S    
C40   O18   A    
O38   S11   D    
C46   C47   S    
O55   S3    S    
C31   C32   A    
C45   C56   A    
O56   Zn8   S    
C8    C9    A    
C38   F10   S    
O1    Zn4   S    
C29   S11   S    
H17   O49   S    
C27   S10   S    
O18   Zn3   S    
C3    F5    S    
O60   S5    D    
O17   Zn4   S    
C28   O15   A    
O10   Zn6   S    
C63   O3    A    
C19   H25   S    
C23   C34   A    
C59   O10   A    
O39   S11   S    
C33   S13   S    
C44   C63   S    
C13   C14   A    
O51   S2    D    
H20   O59   S    
C32   S12   S    
O1    Zn1   S    
C1    O34   A    
C24   H28   S    
C5    S6    S    
O15   Zn3   S    
C44   C46   A    
C50   C51   A    
C20   C29   S    
H18   O52   S    
C2    C45   A    
O36   S10   S    
H13   O36   S    
O37   S11   D    
O46   S13   S    
C6    H1    S    
O11   Zn7   S    
C38   H2    S    
O53   S3    D    
C47   H3    S    
O59   S4    S    
C52   C70   S    
C24   C25   A    
C23   S5    S    
C63   O6    A    
H21   O62   S    
C25   C26   A    
C49   C55   A    
O30   S9    D    
C37   F7    S    
C4    O45   A    
C8    H12   S    
O65   S6    S    
C45   F4    S    
C67   C69   A    
O28   S8    D    
C60   O11   A    
C43   C44   A    
C9    C67   S    
O57   S4    D    
C37   C38   S    
O43   S13   D    
O2    Zn7   S    
O20   S1    D    
O4    Zn4   S    
C64   H27   S    
C47   C48   S    
C10   C19   S    
C22   H26   S    
C34   C64   A    
C17   C18   S    
H14   O39   S    
C48   H4    S    
O29   S8    S    
C4    C11   S    
O64   S6    D    
C19   S9    S    
C39   C46   A    
O21   S1    D    
C40   C41   S    
C1    O4    A    
C21   C28   S    
O66   Zn8   S    
O24   S7    D    
C61   O8    A    
O1    Zn2   S    
C22   C24   A    
O6    Zn7   S    
C42   C43   A    
O22   S1    S    
O34   Zn2   S    
C27   F6    S    
C51   F13   S    
H10   O29   S    
O48   S14   D    
C37   F8    S    
C15   C17   A    
O42   S12   S    
C54   C55   A    
C65   O5    A    
O56   Zn6   S    
O58   S4    D    
C52   O19   A    
C59   O66   A    
O19   Zn1   S    
O27   S8    D    
O16   Zn2   S    
H22   O65   S    
C13   H23   S    
C3    C5    A    
C62   O2    A    
C6    C7    A    
C56   C67   A    
C25   C59   S    
O3    Zn6   S    
C43   S2    S    
C57   H5    S    
C30   C36   A    
H11   O32   S    
C32   C33   A    
O31   S9    D    
C55   C57   S    
O44   S13   D    
C16   O12   A    
O40   S12   D    
O63   S6    D    
C14   S7    S    
C11   C13   A    
C57   C58   S    
C12   S4    S    
H8    O22   S    
O67   Zn5   S    
O12   Zn1   S    
C18   S8    S    
C33   C35   A    
C48   F12   S    
O49   S14   S    
O26   S7    S    
C35   C62   S    
O45   Zn3   S    
C47   F11   S    
C57   F2    S    
C69   C70   A    
C58   H6    S    
C65   O7    A    
O52   S2    S    
C10   C11   A    
C49   C58   S    
O14   Zn2   S    
O7    Zn5   S    
C20   C21   A    
C61   O68   A    
C49   C50   A    
H16   O46   S    
C5    C6    A    
C15   C61   S    
O1    Zn3   S    
C14   C15   A    
O68   Zn6   S    
O35   S10   D    
C51   C53   A    
C2    C70   A    
C16   O14   A    
C62   O9    A    
O5    Zn8   S    
C58   F3    S    
C64   C66   A    
C39   C48   S    
O25   S7    D    
O41   S12   D    
