data_mof_unit_41803.cif
_audit_creation_date              2012-12-10T16:58:27-0500
_audit_creation_method            fapswitch 2.2
_symmetry_space_group_name_H-M    P1
_symmetry_Int_Tables_number       1
_space_group_crystal_system       triclinic
_cell_length_a                    7.751406
_cell_length_b                    8.581255
_cell_length_c                    23.398391
_cell_angle_alpha                 91.120421
_cell_angle_beta                  85.603321
_cell_angle_gamma                 94.163377
_cell_volume                      1547.55754984

loop_
_atom_site_label
_atom_site_type_symbol
_atom_type_description
_atom_site_fract_x
_atom_site_fract_y
_atom_site_fract_z
_atom_type_partial_charge
C1    C     C_R   0.547072 0.794295 0.503913 0.889224
C2    C     C_R   0.455697 0.206332 0.507931 0.902330
C3    C     C_R   0.667861 0.494428 0.756973 -0.085772
C4    C     C_R   0.331930 0.502750 0.242964 -0.089304
C5    C     C_R   0.664816 0.495700 0.697732 -0.183601
C6    C     C_R   0.334998 0.501985 0.302214 -0.195060
C7    C     C_R   0.505879 0.498239 0.672790 -0.026869
C8    C     C_R   0.494071 0.501209 0.327184 -0.045286
C9    C     C_R   0.350367 0.498920 0.707730 -0.168143
C10   C     C_R   0.649684 0.501649 0.292249 -0.190576
C11   C     C_R   0.353918 0.497136 0.766861 -0.091267
C12   C     C_R   0.646108 0.502927 0.233110 -0.096091
C13   C     C_R   0.512432 0.495079 0.791315 0.314432
C14   C     C_R   0.487470 0.503331 0.208631 0.318963
C15   C     C_2   0.577604 0.957438 0.514447 -0.325161
C16   C     C_2   0.439204 0.045748 0.524456 -0.258194
C17   C     C_R   0.501871 0.499854 0.610644 0.872801
C18   C     C_R   0.498125 0.500095 0.389356 0.895759
C19   C     C_R   0.447796 0.365040 0.120006 0.506482
C20   C     C_R   0.552155 0.633288 0.879933 0.507873
C21   C     C_R   0.526102 0.640034 0.119629 0.507525
C22   C     C_R   0.473812 0.358299 0.880302 0.509560
C23   C     C_R   0.532800 0.641489 0.059860 -0.014674
C24   C     C_R   0.467139 0.356828 0.940072 -0.016222
C25   C     C_R   0.496288 0.500075 0.030045 -0.019700
C26   C     C_R   0.503661 0.498240 0.969890 -0.019511
C27   C     C_R   0.452695 0.360448 0.060243 -0.014182
C28   C     C_R   0.547256 0.637872 0.939695 -0.015066
C29   C     C_R   0.576067 0.779935 0.029402 -0.165683
C30   C     C_R   0.423873 0.218384 0.970532 -0.164846
C31   C     C_R   0.583281 0.778133 0.969782 -0.165636
C32   C     C_R   0.416670 0.220185 0.030154 -0.166395
H1    H     H_    0.604851 0.889790 0.051474 0.195478
H2    H     H_    0.395083 0.108530 0.948458 0.195757
H3    H     H_    0.617097 0.886704 0.947413 0.195081
H4    H     H_    0.382855 0.111616 0.052522 0.194717
H5    H     H_    0.790365 0.492986 0.776259 0.137994
H6    H     H_    0.209334 0.502932 0.223663 0.136393
H7    H     H_    0.786382 0.495300 0.671619 0.164436
H8    H     H_    0.213353 0.501386 0.328315 0.164539
H9    H     H_    0.226214 0.500527 0.689497 0.165692
H10   H     H_    0.773937 0.501386 0.310493 0.166075
H11   H     H_    0.233930 0.497919 0.793798 0.138026
H12   H     H_    0.766188 0.503118 0.206186 0.137437
N1    N     N_R   0.484993 0.503150 0.148027 -0.364532
N2    N     N_R   0.514942 0.495187 0.851913 -0.365014
N3    N     N_2   0.950330 0.457950 0.484560 -0.165170
N4    N     N_2   0.049670 0.542050 0.515440 -0.153935
O1    O     O_R   0.389250 0.738570 0.503790 -0.573738
O2    O     O_R   0.610750 0.261430 0.496210 -0.594161
O3    O     O_R   0.678390 0.711620 0.493890 -0.601850
O4    O     O_R   0.321610 0.288380 0.506110 -0.626045
O5    O     O_R   0.355400 0.513520 0.588790 -0.627534
O6    O     O_R   0.644600 0.486480 0.411210 -0.612788
O7    O     O_R   0.644550 0.486570 0.578900 -0.627774
O8    O     O_R   0.355450 0.513430 0.421100 -0.619660
O9    O     O_2   0.408035 0.232825 0.150013 -0.525582
O10   O     O_2   0.591962 0.765498 0.849927 -0.519809
O11   O     O_2   0.560659 0.773711 0.149301 -0.524123
O12   O     O_2   0.439178 0.224651 0.850621 -0.516007
Zn1   Zn    Zn3+2 0.306930 0.518000 0.506610 0.998247
Zn2   Zn    Zn3+2 0.693070 0.482000 0.493390 1.001634
C33   C     C_2   0.762782 0.020069 0.511516 0.994723
O13   O     O_2   0.859824 0.993777 0.469259 -0.575148
O14   O     O_R   0.822148 0.114119 0.556548 -0.774229
H13   H     H_    0.944740 0.161555 0.547992 0.351566
C34   C     C_2   0.279543 0.989194 0.558901 0.950662
O15   O     O_2   0.276593 0.994512 0.611209 -0.609817
O16   O     O_R   0.135551 0.926913 0.531868 -0.748213
H14   H     H_    0.039248 0.885176 0.560456 0.332068
H15   H     H_    0.014093 0.384630 0.456186 0.202021
H16   H     H_    0.985242 0.613231 0.544383 0.194873

loop_
_geom_bond_atom_site_label_1
_geom_bond_atom_site_label_2
_ccdc_geom_bond_type
C7    C17   S    
C23   C29   A    
C19   N1    A    
C11   H11   S    
C1    C15   S    
C17   O5    A    
C10   H10   S    
C1    O3    A    
C17   O7    A    
C9    H9    S    
N3    N4    D    
C3    C13   A    
C18   O8    A    
C29   C31   A    
C22   O12   S    
C7    C9    A    
N3    Zn2   S    
C33   O14   S    
C27   C32   A    
C12   H12   S    
C16   C34   S    
C19   O9    S    
C30   C32   A    
C9    C11   A    
N3    H15   S    
N4    Zn1   S    
O16   H14   S    
O3    Zn2   S    
C2    O4    A    
N4    H16   S    
C21   N1    A    
C32   H4    S    
C31   H3    S    
C8    C10   A    
O6    Zn2   S    
C22   N2    A    
C24   C26   A    
C21   O11   S    
C14   N1    S    
C10   C12   A    
O4    Zn1   S    
C23   C25   A    
C2    O2    A    
C4    C14   A    
C13   N2    S    
O2    Zn2   S    
C6    H8    S    
C24   C30   A    
O1    Zn1   S    
C18   O6    A    
C25   C27   A    
O5    Zn1   S    
C15   C16   D    
O7    Zn2   S    
C29   H1    S    
C11   C13   A    
C20   O10   S    
C2    C16   S    
C3    H5    S    
C4    C6    A    
O14   H13   S    
C22   C24   A    
C34   O16   S    
C5    C7    A    
C5    H7    S    
C15   C33   S    
O8    Zn1   S    
C30   H2    S    
C6    C8    A    
C20   C28   A    
C19   C27   A    
C25   C26   A    
C4    H6    S    
C26   C28   A    
C21   C23   A    
C28   C31   A    
C8    C18   S    
C34   O15   D    
C12   C14   A    
C33   O13   D    
C3    C5    A    
C20   N2    A    
C1    O1    A    
