data_mof_unit_64510.cif
_audit_creation_date              2012-12-10T21:13:51-0500
_audit_creation_method            fapswitch 2.2
_symmetry_space_group_name_H-M    P1
_symmetry_Int_Tables_number       1
_space_group_crystal_system       triclinic
_cell_length_a                    15.536371
_cell_length_b                    16.8901
_cell_length_c                    17.571585
_cell_angle_alpha                 90.018742
_cell_angle_beta                  92.343272
_cell_angle_gamma                 66.949294
_cell_volume                      4238.66395162

loop_
_atom_site_label
_atom_site_type_symbol
_atom_type_description
_atom_site_fract_x
_atom_site_fract_y
_atom_site_fract_z
_atom_type_partial_charge
C1    C     C_R   0.499784 0.500143 0.646031 0.896810
C2    C     C_R   0.425907 0.555670 0.767553 -0.073295
C3    C     C_R   0.512904 0.495606 0.270978 -0.129315
C4    C     C_R   0.502430 0.500029 0.727895 -0.102606
C5    C     C_R   0.485461 0.573861 0.230816 -0.215053
C6    C     C_R   0.585118 0.446439 0.766253 -0.212285
C7    C     C_R   0.491851 0.575327 0.152581 -0.009995
C8    C     C_R   0.592653 0.446609 0.845021 -0.004705
C9    C     C_R   0.526860 0.497421 0.113769 0.024188
C10   C     C_R   0.516433 0.501579 0.885211 0.016327
C11   C     C_1   0.526400 0.498888 0.033303 0.039154
C12   C     C_R   0.503180 0.498778 0.353417 0.901916
C13   C     C_1   0.522843 0.500458 0.965708 0.036987
C14   C     C_R   0.557507 0.147013 0.553330 -0.112731
C15   C     C_R   0.441129 0.853045 0.446845 -0.112766
C16   C     C_R   0.676347 0.445920 0.495872 0.882358
C17   C     C_R   0.323680 0.554065 0.504328 0.893973
C18   C     C_R   0.555730 0.232030 0.552133 0.037093
C19   C     C_R   0.442827 0.768062 0.448606 0.038117
C20   C     C_R   0.444105 0.270752 0.448063 0.248831
C21   C     C_R   0.556663 0.729178 0.551147 0.248847
C22   C     C_R   0.445286 0.186265 0.446844 -0.125261
C23   C     C_R   0.107104 0.399420 0.496905 -0.207032
C24   C     C_R   0.555698 0.813565 0.551768 -0.127369
C25   C     C_R   0.501585 0.123454 0.500154 0.017572
C26   C     C_R   0.498382 0.876433 0.498898 0.016568
C27   C     C_1   0.500807 0.035923 0.499905 0.030589
C28   C     C_1   0.499018 0.964012 0.498873 0.030901
C29   C     C_R   0.778472 0.410797 0.486690 -0.163862
C30   C     C_R   0.221541 0.589156 0.513513 -0.157103
C31   C     C_R   0.934514 0.298248 0.499788 -0.181305
C32   C     C_R   0.065596 0.701839 0.500655 -0.178222
C33   C     C_R   0.837506 0.323067 0.498186 -0.038114
C34   C     C_R   0.892838 0.600684 0.501019 -0.206730
C35   C     C_R   0.162612 0.677055 0.503129 -0.030055
C36   C     C_R   0.818820 0.468771 0.467371 -0.057750
C37   C     C_R   0.181062 0.531006 0.531816 -0.059559
C38   C     C_R   0.913865 0.448332 0.486287 0.037260
C39   C     C_R   0.086095 0.551633 0.512401 0.037536
C40   C     C_R   0.973673 0.360182 0.496018 0.076483
C41   C     C_R   0.026378 0.639849 0.503007 0.077768
C42   C     C_R   0.951000 0.512567 0.495328 0.034388
C43   C     C_R   0.048928 0.487490 0.502855 0.034145
C44   C     C_1   0.617316 0.084164 0.608923 0.217107
C45   C     C_R   0.070989 0.336167 0.498252 0.153361
C46   C     C_1   0.379868 0.916096 0.392077 0.215275
C47   C     C_1   0.613689 0.254661 0.606760 0.282851
C48   C     C_1   0.382338 0.745696 0.396218 0.258061
C49   C     C_1   0.388915 0.163912 0.389943 0.268589
C50   C     C_1   0.613088 0.835791 0.607815 0.267226
C51   C     C_1   0.231214 0.461091 0.585699 0.208368
C52   C     C_1   0.768283 0.538350 0.413281 0.202115
C53   C     C_1   0.197704 0.744475 0.503408 0.253577
C54   C     C_1   0.802423 0.255728 0.500729 0.240058
C55   C     C_1   0.588394 0.334723 0.272346 0.282192
C56   C     C_R   0.929048 0.663892 0.500016 0.153689
C57   C     C_1   0.340517 0.610841 0.726800 0.226929
C58   C     C_1   0.460766 0.657625 0.113150 0.219452
C59   C     C_1   0.679163 0.390263 0.883385 0.226238
C60   C     C_R   0.557853 0.418043 0.152826 0.141335
C61   C     C_R   0.432837 0.556297 0.847136 0.154811
C62   C     C_R   0.551687 0.416785 0.232041 -0.075234
H1    H     H_    0.978633 0.230509 0.505986 0.184629
H2    H     H_    0.021543 0.769660 0.495240 0.183675
H3    H     H_    0.181665 0.378026 0.491239 0.185911
H4    H     H_    0.818236 0.622192 0.506432 0.186440
H5    H     H_    0.458096 0.634367 0.260266 0.180094
H6    H     H_    0.644387 0.405940 0.734558 0.167646
I1    I     I_    0.169725 0.206190 0.501187 -0.339081
I2    I     I_    0.830379 0.793894 0.496454 -0.336623
I3    I     I_    0.350139 0.361886 0.367262 -0.289445
I4    I     I_    0.650176 0.638339 0.632373 -0.298992
I5    I     I_    0.613371 0.300037 0.091741 -0.274807
I6    I     I_    0.317327 0.639382 0.909650 -0.267369
N1    N     N_R   0.499980 0.292780 0.499970 -0.132459
N2    N     N_1   0.727943 0.593516 0.370130 -0.169458
N3    N     N_1   0.224363 0.799555 0.504859 -0.179869
N4    N     N_1   0.775744 0.200693 0.501648 -0.180053
N5    N     N_1   0.617822 0.269127 0.304597 -0.155346
N6    N     N_1   0.272312 0.654874 0.694102 -0.172141
N7    N     N_1   0.435904 0.723457 0.081612 -0.139430
N8    N     N_1   0.748384 0.345173 0.914097 -0.140010
N9    N     N_R   0.500020 0.707220 0.500030 -0.131706
N10   N     N_1   0.665289 0.034253 0.653437 -0.137249
N11   N     N_1   0.330744 0.966232 0.348254 -0.138135
N12   N     N_1   0.661005 0.271536 0.650817 -0.209607
N13   N     N_1   0.332890 0.728800 0.354285 -0.201822
N14   N     N_1   0.343934 0.146187 0.344299 -0.124258
N15   N     N_1   0.658911 0.853346 0.652812 -0.124356
N16   N     N_1   0.271243 0.405666 0.628699 -0.162942
O1    O     O_R   0.500000 0.433430 0.610870 -0.616615
O2    O     O_R   0.500000 0.566570 0.389130 -0.621081
O3    O     O_R   0.500010 0.566520 0.610900 -0.587020
O4    O     O_R   0.499990 0.433480 0.389100 -0.594293
O5    O     O_R   0.632240 0.395450 0.499980 -0.617362
O6    O     O_R   0.367760 0.604550 0.500020 -0.612183
O7    O     O_R   0.632250 0.528530 0.500000 -0.587758
O8    O     O_R   0.367750 0.471470 0.500000 -0.589023
Zn1   Zn    Zn3+2 0.500000 0.411140 0.499980 0.996340
Zn2   Zn    Zn3+2 0.500000 0.588860 0.500020 0.997057

loop_
_geom_bond_atom_site_label_1
_geom_bond_atom_site_label_2
_ccdc_geom_bond_type
C34   C56   A    
C18   N1    A    
C23   C45   A    
C35   C53   S    
C14   C18   A    
C2    C4    A    
C34   C42   A    
C59   N8    T    
C5    H5    S    
C18   C47   S    
C34   H4    S    
C2    C57   S    
C39   C41   A    
C15   C19   A    
C29   C36   A    
C30   C35   A    
C24   C26   A    
C38   C42   A    
C8    C59   S    
C37   C51   S    
O5    Zn1   S    
C16   O7    A    
C55   C62   S    
C29   C33   A    
C60   I5    S    
C23   C43   A    
C31   C40   A    
C60   C62   A    
C3    C12   S    
C21   N9    A    
C22   C25   A    
C32   C41   A    
C31   C33   A    
C20   I3    S    
C17   O8    A    
C7    C58   S    
C36   C52   S    
C2    C61   A    
C46   N11   T    
C6    H6    S    
C1    O1    A    
C17   C30   S    
C57   N6    T    
C12   O4    A    
C19   N9    A    
C24   C50   S    
C40   C45   A    
C37   C39   A    
C21   I4    S    
C45   I1    S    
C47   N12   T    
C31   H1    S    
C32   H2    S    
C4    C6    A    
C58   N7    T    
C5    C7    A    
C19   C48   S    
C15   C26   A    
C6    C8    A    
C52   N2    T    
C16   C29   S    
C30   C37   A    
C53   N3    T    
C32   C35   A    
C41   C56   A    
C55   N5    T    
C50   N15   T    
N1    Zn1   S    
C48   N13   T    
C17   O6    A    
C9    C11   S    
O3    Zn2   S    
C22   C49   S    
C1    O3    A    
C20   C22   A    
C56   I2    S    
N9    Zn2   S    
C10   C61   A    
C42   C43   A    
O7    Zn2   S    
O2    Zn2   S    
C14   C44   S    
C3    C62   A    
C33   C54   S    
C7    C9    A    
C16   O5    A    
C12   O2    A    
C3    C5    A    
C10   C13   S    
C39   C43   A    
C61   I6    S    
C25   C27   S    
C49   N14   T    
C26   C28   S    
C44   N10   T    
C9    C60   A    
C1    C4    S    
C36   C38   A    
C51   N16   T    
C38   C40   A    
C11   C13   T    
C23   H3    S    
O4    Zn1   S    
O6    Zn2   S    
C14   C25   A    
C20   N1    A    
C8    C10   A    
O8    Zn1   S    
C21   C24   A    
C27   C28   T    
C15   C46   S    
O1    Zn1   S    
C54   N4    T    
