data_mof_unit_6291.cif
_audit_creation_date              2012-12-10T19:49:20-0500
_audit_creation_method            fapswitch 2.2
_symmetry_space_group_name_H-M    P1
_symmetry_Int_Tables_number       1
_space_group_crystal_system       triclinic
_cell_length_a                    14.903366
_cell_length_b                    14.239702
_cell_length_c                    14.897898
_cell_angle_alpha                 91.057605
_cell_angle_beta                  90.943423
_cell_angle_gamma                 90.83201
_cell_volume                      3160.30966417

loop_
_atom_site_label
_atom_site_type_symbol
_atom_type_description
_atom_site_fract_x
_atom_site_fract_y
_atom_site_fract_z
_atom_type_partial_charge
C1    C     C_R   0.326434 0.499265 0.500970 1.036114
C2    C     C_R   0.672695 0.500717 0.495870 0.864088
C3    C     C_R   0.322447 0.469733 0.044934 0.414639
C4    C     C_R   0.604718 0.643807 0.960843 0.412276
C5    C     C_R   0.100482 0.581396 0.431128 0.549827
C6    C     C_R   0.894048 0.453006 0.385050 0.540863
C7    C     C_R   0.918742 0.562679 0.511412 0.534627
C8    C     C_R   0.087646 0.413102 0.456915 0.499986
C9    C     C_R   0.183226 0.583572 0.476816 -0.167294
C10   C     C_R   0.802601 0.446659 0.405567 -0.149487
C11   C     C_R   0.826448 0.566851 0.524853 -0.194606
C12   C     C_R   0.179114 0.411000 0.480048 -0.101497
C13   C     C_R   0.227791 0.497566 0.490801 -0.324452
C14   C     C_R   0.768789 0.503296 0.476679 -0.298686
C15   C     C_R   0.048875 0.498644 0.433209 -0.121647
C16   C     C_R   0.951851 0.507461 0.440356 -0.129318
C17   C     C_R   0.549768 0.104750 0.435386 0.300214
C18   C     C_R   0.525449 0.898110 0.576620 0.333429
C19   C     C_R   0.453137 0.104377 0.563561 0.318499
C20   C     C_R   0.475568 0.894165 0.421667 0.347158
C21   C     C_R   0.540955 0.204029 0.432069 0.393303
C22   C     C_R   0.516752 0.798743 0.577590 0.386012
C23   C     C_R   0.460685 0.203903 0.568008 0.392746
C24   C     C_R   0.478263 0.794707 0.422784 0.427028
C25   C     C_R   0.502164 0.053503 0.499590 -0.102937
C26   C     C_R   0.501452 0.947366 0.498979 -0.095826
C27   C     C_R   0.499677 0.499501 0.326715 0.973573
C28   C     C_R   0.498323 0.501319 0.673734 0.902892
C29   C     C_R   0.556562 0.562526 0.818568 -0.045525
C30   C     C_R   0.415911 0.469328 0.184991 -0.098437
C31   C     C_R   0.490748 0.508700 0.770940 -0.208537
C32   C     C_R   0.494646 0.501891 0.230316 -0.179322
C33   C     C_R   0.411131 0.478775 0.812609 -0.068993
C34   C     C_R   0.562013 0.552360 0.186109 -0.023543
C35   C     C_R   0.400612 0.497558 0.905198 -0.132849
C36   C     C_R   0.547011 0.577559 0.096996 -0.113046
C37   C     C_R   0.471990 0.541447 0.954435 -0.070920
C38   C     C_R   0.473095 0.538098 0.048635 -0.056277
C39   C     C_R   0.545213 0.583592 0.910234 -0.102402
C40   C     C_R   0.403544 0.490258 0.093356 -0.118689
C41   C     C_R   0.320512 0.475601 0.951252 0.407875
C42   C     C_R   0.603676 0.642537 0.054153 0.371310
N1    N     N_R   0.500000 0.252470 0.500000 -0.207574
N2    N     N_R   0.500000 0.747530 0.500000 -0.218949
O1    O     O_R   0.369060 0.579480 0.500010 -0.667722
O2    O     O_R   0.630940 0.420520 0.499990 -0.622403
O3    O     O_R   0.630940 0.579480 0.499990 -0.578586
O4    O     O_R   0.369060 0.420520 0.500010 -0.575094
O5    O     O_R   0.499980 0.579490 0.367850 -0.517812
O6    O     O_R   0.500020 0.420510 0.632150 -0.576118
O7    O     O_R   0.500020 0.579490 0.632150 -0.564701
O8    O     O_R   0.499980 0.420510 0.367850 -0.599084
Zn1   Zn    Zn3+2 0.500000 0.606140 0.500000 1.042578
Zn2   Zn    Zn3+2 0.500000 0.393860 0.500000 1.028908
C43   C     C_2   0.641438 0.585516 0.773338 0.532149
H1    H     H_    0.685960 0.529505 0.753459 -0.047659
O9    O     O_2   0.659188 0.666206 0.753485 -0.515183
C44   C     C_2   0.351040 0.407327 0.231355 0.446700
H2    H     H_    0.328916 0.341649 0.199557 0.109322
O10   O     O_2   0.319467 0.430543 0.303286 -0.598681
C45   C     C_2   0.342391 0.422302 0.761261 0.489555
H3    H     H_    0.315047 0.358430 0.789355 0.110052
O11   O     O_2   0.313027 0.448653 0.689357 -0.639639
C46   C     C_2   0.653434 0.566789 0.227263 0.365346
H4    H     H_    0.711961 0.554875 0.186458 0.092269
O12   O     O_2   0.664655 0.595879 0.304162 -0.567785
O13   O     O_3   0.239444 0.458308 0.906766 -0.588143
C47   C     C_3   0.205361 0.544271 0.875836 -0.281546
H5    H     H_    0.245800 0.572472 0.820188 0.171161
H6    H     H_    0.202113 0.598393 0.930369 0.135561
H7    H     H_    0.136111 0.531688 0.849444 0.189311
O14   O     O_3   0.660692 0.704114 0.101518 -0.599126
C48   C     C_3   0.609209 0.772012 0.147246 -0.186755
H8    H     H_    0.581431 0.743364 0.209803 0.237714
H9    H     H_    0.553507 0.799603 0.104961 0.116850
H10   H     H_    0.653773 0.832307 0.166690 0.196917
O15   O     O_3   0.244987 0.440178 0.086864 -0.579303
C49   C     C_3   0.202342 0.518599 0.125802 -0.256493
H11   H     H_    0.168514 0.560523 0.073636 0.155785
H12   H     H_    0.249090 0.564370 0.166739 0.138313
H13   H     H_    0.149750 0.492679 0.171424 0.195252
O16   O     O_3   0.666721 0.702133 0.921016 -0.550407
C50   C     C_3   0.627569 0.790558 0.906955 -0.116685
H14   H     H_    0.625936 0.832284 0.970394 0.139864
H15   H     H_    0.559082 0.784602 0.876181 0.132187
H16   H     H_    0.670000 0.830269 0.859882 0.196274
O17   O     O_3   0.060492 0.663442 0.403775 -0.518167
C51   C     C_3   0.095807 0.687241 0.319800 -0.227712
H17   H     H_    0.083410 0.630421 0.268734 0.100488
H18   H     H_    0.168896 0.703666 0.324963 0.151226
H19   H     H_    0.061747 0.751052 0.295853 0.199803
O18   O     O_3   0.928697 0.401029 0.314561 -0.516408
C52   C     C_3   0.925995 0.455992 0.236858 -0.219765
H20   H     H_    0.963846 0.523276 0.246818 0.131719
H21   H     H_    0.855663 0.470001 0.215624 0.143009
H22   H     H_    0.958088 0.416463 0.181468 0.198817
O19   O     O_3   0.977253 0.614918 0.566664 -0.514187
C53   C     C_3   0.998430 0.562466 0.643422 -0.276056
H23   H     H_    0.041597 0.502193 0.625912 0.124609
H24   H     H_    0.937315 0.537610 0.678423 0.142578
H25   H     H_    0.037271 0.608382 0.691335 0.201533
O20   O     O_3   0.036055 0.331161 0.456039 -0.511572
C54   C     C_3   0.005316 0.314144 0.543495 -0.255315
H26   H     H_    0.953094 0.365128 0.562925 0.122522
H27   H     H_    0.060743 0.315314 0.594509 0.127695
H28   H     H_    0.973782 0.243132 0.543916 0.206464
C55   C     C_2   0.214874 0.672652 0.522289 0.485735
H29   H     H_    0.260397 0.670017 0.579621 0.055061
O21   O     O_2   0.188345 0.749394 0.499236 -0.549528
C56   C     C_2   0.742406 0.385447 0.348586 0.512031
H30   H     H_    0.672969 0.403712 0.338142 0.100333
O22   O     O_2   0.769771 0.313988 0.312419 -0.520945
C57   C     C_2   0.791736 0.635895 0.591208 0.512198
H31   H     H_    0.726881 0.625259 0.619149 0.101413
O23   O     O_2   0.834310 0.706685 0.613557 -0.492547
C58   C     C_2   0.218806 0.318481 0.500638 0.505795
H32   H     H_    0.262654 0.311006 0.558767 0.107809
O24   O     O_2   0.201795 0.249392 0.453275 -0.543773
O25   O     O_3   0.600529 0.057563 0.372643 -0.554070
C59   C     C_3   0.691745 0.066196 0.398309 -0.192577
H33   H     H_    0.704271 0.035789 0.465475 0.125512
H34   H     H_    0.715526 0.140570 0.397664 0.211660
H35   H     H_    0.732081 0.026187 0.349204 0.195654
O26   O     O_3   0.551096 0.947334 0.654055 -0.560464
C60   C     C_3   0.644639 0.939671 0.666601 -0.249485
H36   H     H_    0.681610 0.967252 0.608239 0.142920
H37   H     H_    0.664251 0.866039 0.679547 0.227154
H38   H     H_    0.665309 0.982751 0.726401 0.168936
O27   O     O_3   0.402469 0.056801 0.625584 -0.563223
C61   C     C_3   0.311229 0.061805 0.600055 -0.230808
H39   H     H_    0.298826 0.030653 0.531880 0.151137
H40   H     H_    0.287066 0.135286 0.603259 0.186335
H41   H     H_    0.271163 0.020386 0.647823 0.187961
O28   O     O_3   0.452913 0.937300 0.341974 -0.535244
C62   C     C_3   0.366209 0.975626 0.348158 -0.282937
H42   H     H_    0.369747 0.047889 0.377163 0.164379
H43   H     H_    0.318915 0.931456 0.387171 0.143788
H44   H     H_    0.337484 0.980872 0.279314 0.187258
O29   O     O_3   0.579312 0.253312 0.363351 -0.567827
C63   C     C_3   0.529965 0.234926 0.282990 -0.183822
H45   H     H_    0.456307 0.241982 0.292370 0.130320
H46   H     H_    0.544973 0.164446 0.254496 0.206225
H47   H     H_    0.550464 0.287249 0.232715 0.157012
O30   O     O_3   0.525832 0.753699 0.658057 -0.527372
C64   C     C_3   0.445016 0.763321 0.705432 -0.189047
H48   H     H_    0.448434 0.719683 0.766173 0.170867
H49   H     H_    0.386032 0.737725 0.664703 0.127122
H50   H     H_    0.435032 0.837135 0.728247 0.181671
O31   O     O_3   0.427297 0.252246 0.641023 -0.570411
C65   C     C_3   0.483817 0.235700 0.716253 -0.212150
H51   H     H_    0.555629 0.251165 0.701815 0.137010
H52   H     H_    0.476051 0.162770 0.740367 0.204246
H53   H     H_    0.464842 0.282846 0.772432 0.143196
O32   O     O_3   0.463076 0.745637 0.343209 -0.550466
C66   C     C_3   0.369960 0.732382 0.328229 -0.226360
H54   H     H_    0.332132 0.721563 0.390907 0.154827
H55   H     H_    0.359115 0.668613 0.285291 0.174380
H56   H     H_    0.342060 0.792144 0.290863 0.163050

loop_
_geom_bond_atom_site_label_1
_geom_bond_atom_site_label_2
_ccdc_geom_bond_type
C19   O27   S    
C62   H44   S    
C30   C32   A    
C43   H1    S    
C52   H20   S    
C66   H55   S    
C55   O21   D    
C48   H8    S    
C36   C42   A    
C18   C26   A    
C63   H47   S    
O17   C51   S    
C64   H48   S    
C11   C57   S    
C62   H42   S    
C41   O13   S    
O15   C49   S    
C2    O2    A    
C7    C11   A    
O6    Zn2   S    
C4    C42   A    
C35   C37   A    
C63   H46   S    
O27   C61   S    
C59   H34   S    
C28   O7    A    
C49   H12   S    
C44   O10   D    
C15   C16   S    
C23   N1    A    
C58   H32   S    
C45   O11   D    
C9    C13   A    
C56   H30   S    
C33   C35   A    
C21   N1    A    
C28   O6    A    
N2    Zn1   S    
C22   N2    A    
C20   C24   A    
O8    Zn2   S    
C47   H5    S    
C65   H53   S    
C60   H38   S    
C55   H29   S    
C51   H19   S    
C59   H35   S    
O3    Zn1   S    
C23   O31   S    
O1    Zn1   S    
C52   H21   S    
C66   H56   S    
C29   C31   A    
C48   H9    S    
O2    Zn2   S    
C45   H3    S    
C2    C14   S    
C42   O14   S    
C64   H49   S    
C24   O32   S    
O19   C53   S    
C6    O18   S    
O29   C63   S    
C31   C33   A    
O13   C47   S    
C63   H45   S    
C10   C14   A    
C49   H11   S    
O30   C64   S    
C29   C43   S    
C44   H2    S    
C17   C21   A    
C57   O23   D    
O7    Zn1   S    
C46   O12   D    
O4    Zn2   S    
C61   H40   S    
C5    C9    A    
C37   C38   A    
N1    Zn2   S    
C50   H14   S    
C4    C39   A    
C8    C12   A    
C29   C39   A    
C34   C46   S    
C30   C40   A    
C54   H27   S    
C12   C13   A    
O32   C66   S    
C47   H6    S    
C7    C16   A    
C50   H15   S    
C51   H18   S    
C3    C40   A    
O16   C50   S    
C8    C15   A    
C53   H24   S    
C43   O9    D    
C60   H36   S    
C24   N2    A    
C48   H10   S    
C65   H52   S    
C61   H41   S    
C1    C13   S    
C21   O29   S    
C3    O15   S    
C66   H54   S    
C64   H50   S    
C27   O8    A    
C19   C23   A    
C57   H31   S    
C62   H43   S    
C3    C41   A    
C7    O19   S    
C27   C32   S    
C18   C22   A    
C28   C31   S    
O14   C48   S    
C6    C10   A    
O25   C59   S    
C1    O4    A    
O28   C62   S    
C2    O3    A    
C52   H22   S    
C53   H25   S    
C65   H51   S    
C17   C25   A    
C46   H4    S    
C36   C38   A    
C61   H39   S    
C25   C26   S    
C9    C55   S    
C37   C39   A    
O31   C65   S    
C38   C40   A    
C49   H13   S    
C1    O1    A    
C20   C26   A    
C47   H7    S    
O5    Zn1   S    
C30   C44   S    
O18   C52   S    
C11   C14   A    
C58   O24   D    
C10   C56   S    
C54   H28   S    
C34   C36   A    
O20   C54   S    
C35   C41   A    
C56   O22   D    
C5    C15   A    
C17   O25   S    
C19   C25   A    
C6    C16   A    
C5    O17   S    
C50   H16   S    
C4    O16   S    
C51   H17   S    
C33   C45   S    
C53   H23   S    
C22   O30   S    
C54   H26   S    
C60   H37   S    
C59   H33   S    
C18   O26   S    
C20   O28   S    
C8    O20   S    
C27   O5    A    
C32   C34   A    
O26   C60   S    
C12   C58   S    
