data_mof_unit_10693.cif
_audit_creation_date              2012-12-11T17:01:24-0500
_audit_creation_method            fapswitch 2.2
_symmetry_space_group_name_H-M    P1
_symmetry_Int_Tables_number       1
_space_group_crystal_system       triclinic
_cell_length_a                    14.973424
_cell_length_b                    14.859047
_cell_length_c                    14.849187
_cell_angle_alpha                 109.322888
_cell_angle_beta                  109.134425
_cell_angle_gamma                 109.907169
_cell_volume                      2544.72023926

loop_
_atom_site_label
_atom_site_type_symbol
_atom_type_description
_atom_site_fract_x
_atom_site_fract_y
_atom_site_fract_z
_atom_type_partial_charge
C1    C     C_R   0.004616 0.804453 0.098142 -0.291179
C2    C     C_R   0.700531 0.130393 0.698895 0.112044
C3    C     C_R   0.949807 0.501470 0.674834 0.047540
C4    C     C_R   0.674666 0.499777 0.949060 0.094235
C5    C     C_R   0.994620 0.591869 0.299176 -0.143844
C6    C     C_R   0.207266 0.409302 0.900736 -0.054397
C7    C     C_R   0.313094 0.746081 0.220922 -0.022642
C8    C     C_R   0.976020 0.254872 0.069247 -0.255566
C9    C     C_R   0.064064 0.247922 0.974073 0.696867
C10   C     C_R   0.223566 0.752133 0.315613 -0.155603
C11   C     C_R   0.904375 0.409038 0.209660 -0.119706
C12   C     C_R   0.794545 0.194892 0.702701 -0.160853
C13   C     C_R   0.299369 0.591971 0.993851 -0.154907
C14   C     C_R   0.933749 0.501077 0.302767 0.083996
C15   C     C_R   0.299217 0.500816 0.929228 0.028661
C16   C     C_R   0.325913 0.777773 0.324793 0.084191
C17   C     C_R   0.049465 0.224475 0.053281 -0.093857
C18   C     C_3   0.469508 0.390782 0.835267 0.683319
C19   C     C_3   0.365836 0.390870 0.831594 -0.540259
C20   C     C_3   0.571627 0.514402 0.046340 0.356679
C21   C     C_3   0.568668 0.596523 0.921434 -0.442776
C22   C     C_3   0.572792 0.498939 0.936977 0.019593
C23   C     C_R   0.023653 0.592637 0.778667 -0.136075
C24   C     C_3   0.396616 0.500268 0.927956 0.274010
C25   C     C_3   0.465357 0.510987 0.038853 -0.582990
C26   C     C_3   0.464858 0.597761 0.917346 -0.393201
C27   C     C_R   0.623137 0.972661 0.516616 0.050269
C28   C     C_R   0.623553 0.013749 0.616368 -0.125627
C29   C     C_R   0.536656 0.945286 0.624391 0.518521
C30   C     C_R   0.439398 0.858661 0.527173 -0.305479
C31   C     C_R   0.431311 0.837459 0.424467 -0.011945
C32   C     C_R   0.527511 0.887905 0.422025 -0.056436
C33   C     C_3   0.554630 0.937603 0.354328 0.464725
C34   C     C_R   0.685991 0.407605 0.931757 -0.019445
C35   C     C_3   0.661350 0.029379 0.458351 -0.640032
C36   C     C_R   0.941621 0.603678 0.478007 0.166718
C37   C     C_R   0.896809 0.503870 0.382856 0.046510
C38   C     C_R   0.830046 0.405679 0.376164 -0.197795
C39   C     C_R   0.832849 0.406383 0.471567 -0.180458
C40   C     C_R   0.903850 0.504892 0.573465 0.039066
C41   C     C_R   0.945710 0.604302 0.572389 0.132148
C42   C     C_3   0.056248 0.706926 0.643973 -0.464954
C43   C     C_3   0.051184 0.706430 0.540888 -0.522687
C44   C     C_R   0.047724 0.030865 0.158059 0.063605
C45   C     C_R   0.935444 0.408322 0.684841 -0.114138
C46   C     C_R   0.101827 0.987412 0.112201 0.017743
C47   C     C_R   0.175981 0.054462 0.091792 -0.167538
C48   C     C_R   0.172410 0.146488 0.089183 -0.182402
C49   C     C_R   0.092987 0.169143 0.104388 0.097261
C50   C     C_R   0.042559 0.120122 0.153259 0.079508
C51   C     C_3   0.926763 0.073902 0.130795 -0.653869
C52   C     C_3   0.932644 0.976860 0.136900 0.636484
C53   C     C_R   0.777221 0.592345 0.025800 -0.130530
C54   C     C_R   0.699880 0.194935 0.790418 -0.124725
C55   C     C_R   0.095597 0.806504 0.007037 0.697692
C56   C     C_R   0.066779 0.870343 0.070440 -0.106713
H1    H     H_    0.985532 0.831686 0.162644 0.195267
H2    H     H_    0.174520 0.325053 0.840195 0.164074
H3    H     H_    0.374359 0.749621 0.197306 0.097431
H4    H     H_    0.948792 0.252545 0.127493 0.162513
H5    H     H_    0.203608 0.765158 0.380738 0.113241
H6    H     H_    0.843077 0.324890 0.177230 0.089750
H7    H     H_    0.354985 0.677415 0.023738 0.116941
H8    H     H_    0.466916 0.316421 0.837810 0.003669
H9    H     H_    0.312763 0.380282 0.751636 0.214380
H10   H     H_    0.831292 0.166458 0.656438 0.127138
H11   H     H_    0.319308 0.318576 0.837239 0.136967
H12   H     H_    0.414570 0.443788 0.047623 0.176174
H13   H     H_    0.640965 0.677302 0.990090 0.157081
H14   H     H_    0.569467 0.589085 0.844689 0.231348
H15   H     H_    0.414903 0.591442 0.838736 0.184309
H16   H     H_    0.490216 0.678187 0.985482 0.162433
H17   H     H_    0.637116 0.601196 0.109958 0.115479
H18   H     H_    0.487092 0.588822 0.108415 0.164674
H19   H     H_    0.049038 0.677683 0.802762 0.156934
H20   H     H_    0.368405 0.815471 0.532496 0.158609
H21   H     H_    0.568601 0.884554 0.293949 0.054073
H22   H     H_    0.733554 0.025752 0.456006 0.190079
H23   H     H_    0.672409 0.113343 0.487350 0.185963
H24   H     H_    0.787138 0.326773 0.302055 0.129062
H25   H     H_    0.791500 0.328083 0.466934 0.128876
H26   H     H_    0.054169 0.778216 0.697503 0.211536
H27   H     H_    0.122626 0.693170 0.686180 0.209681
H28   H     H_    0.045414 0.777016 0.534715 0.206004
H29   H     H_    0.623101 0.321907 0.881192 0.081871
H30   H     H_    0.114637 0.692660 0.525713 0.200782
H31   H     H_    0.227732 0.030684 0.066026 0.206842
H32   H     H_    0.222039 0.190207 0.062416 0.189588
H33   H     H_    0.919181 0.125179 0.198741 0.234948
H34   H     H_    0.867437 0.050333 0.046960 0.166288
H35   H     H_    0.874697 0.897261 0.058345 -0.002129
H36   H     H_    0.882634 0.322849 0.620895 0.098339
H37   H     H_    0.798335 0.677758 0.063862 0.111888
H38   H     H_    0.646384 0.168183 0.821611 0.154932
H39   H     H_    0.013834 0.675500 0.346186 0.112025
N1    N     N_R   0.995640 0.706130 0.053910 -0.071055
N2    N     N_R   0.153680 0.443190 0.946090 -0.052774
N3    N     N_R   0.208920 0.706140 0.152110 -0.051204
N4    N     N_R   0.947120 0.293870 0.002870 -0.073864
N5    N     N_R   0.004360 0.293870 0.946090 -0.105469
N6    N     N_R   0.151690 0.706140 0.208890 -0.049944
N7    N     N_R   0.945990 0.443210 0.152110 -0.038589
N8    N     N_R   0.210060 0.556810 0.002870 -0.050039
N9    N     N_R   0.848310 0.293860 0.791110 -0.046083
N10   N     N_R   0.054010 0.556790 0.847890 -0.037580
N11   N     N_R   0.789940 0.443190 0.997130 -0.046564
N12   N     N_R   0.997630 0.443170 0.791110 -0.047517
N13   N     N_R   0.846320 0.556810 0.053910 -0.033843
N14   N     N_R   0.791080 0.293860 0.847890 -0.052931
N15   N     N_R   0.052880 0.706130 0.997130 -0.103248
N16   N     N_R   0.002370 0.556830 0.208890 -0.039519
Ni1   Ni    Ni4+2 0.999010 0.630300 0.130220 0.219498
Ni2   Ni    Ni4+2 0.000990 0.369700 0.869780 0.223853
Ni3   Ni    Ni4+2 0.130280 0.630280 0.000000 0.266939
Ni4   Ni    Ni4+2 0.869720 0.369720 0.000000 0.203532
F1    F     F_    0.122190 0.222966 0.927075 -0.758375
F2    F     F_    0.469564 0.381457 0.739185 -0.696814
O1    O     O_3   0.605989 0.450590 0.087722 -0.626741
C57   C     C_3   0.521747 0.348423 0.059420 0.309191
H40   H     H_    0.450997 0.306424 0.975984 0.072891
H41   H     H_    0.493365 0.361899 0.120558 0.113124
C58   C     C_3   0.567313 0.271978 0.064945 -0.901187
H42   H     H_    0.638177 0.311495 0.148048 0.257021
H43   H     H_    0.503241 0.193300 0.047960 0.226423
H44   H     H_    0.594187 0.253450 0.003132 0.241430
O2    O     O_3   0.537357 0.971043 0.722978 -0.636808
C59   C     C_3   0.608165 0.944808 0.784521 0.233347
H45   H     H_    0.693407 0.992580 0.802190 0.095190
H46   H     H_    0.578662 0.854799 0.739836 0.102549
C60   C     C_3   0.610235 0.973809 0.893787 -0.872853
H47   H     H_    0.526132 0.928881 0.879380 0.268743
H48   H     H_    0.662532 0.949852 0.941354 0.207966
H49   H     H_    0.643784 0.064061 0.942356 0.245755
O3    O     O_3   0.480583 0.968135 0.302210 -0.616805
C61   C     C_3   0.468051 0.047720 0.373712 0.311671
H50   H     H_    0.532018 0.131972 0.401830 0.099798
H51   H     H_    0.471878 0.039688 0.446417 0.104560
C62   C     C_3   0.357492 0.035123 0.310475 -0.836281
H52   H     H_    0.290538 0.952293 0.281504 0.256618
H53   H     H_    0.347526 0.098959 0.364266 0.219117
H54   H     H_    0.351972 0.045192 0.238409 0.264742
F3    F     F_    0.929376 0.973389 0.227872 -0.693744
F4    F     F_    0.177281 0.844887 0.985141 -0.741943

loop_
_geom_bond_atom_site_label_1
_geom_bond_atom_site_label_2
_ccdc_geom_bond_type
C61   C62   S    
C21   C26   S    
O2    C59   S    
C43   H28   S    
C7    N3    A    
C4    C53   A    
C26   H16   S    
C41   C42   S    
C6    H2    S    
C3    C23   A    
N16   Ni1   S    
C42   H26   S    
C55   C56   A    
C11   H6    S    
C2    C12   A    
C20   O1    S    
N7    N16   A    
C61   H50   S    
C31   C32   A    
C16   C31   S    
N1    Ni1   S    
C29   C30   A    
N11   N13   A    
C28   C29   A    
C1    C56   A    
C24   C26   S    
C12   N9    A    
C51   H34   S    
N4    Ni4   S    
C38   C39   A    
C11   C14   A    
N3    Ni3   S    
C20   C25   S    
C23   N10   A    
C30   H20   S    
C18   C19   S    
C12   H10   S    
C33   H21   S    
C45   H36   S    
O1    C57   S    
N12   Ni2   S    
N7    Ni4   S    
C6    C15   A    
C33   O3    S    
N4    N5    A    
C48   H32   S    
C19   H11   S    
C13   N8    A    
N15   Ni3   S    
C44   C52   S    
C21   C22   S    
C26   H15   S    
C9    F1    S    
C36   C41   A    
C25   H12   S    
C7    H3    S    
C5    H39   S    
C44   C46   A    
C57   H41   S    
C25   H18   S    
C4    C34   A    
C55   F4    S    
C42   H27   S    
C53   H37   S    
C51   C52   S    
C34   N11   A    
C6    N2    A    
N10   Ni3   S    
N8    Ni3   S    
C24   C25   S    
C39   H25   S    
C2    C54   A    
C17   C49   S    
C39   C40   A    
C5    N16   A    
C27   C35   S    
N1    N15   A    
C3    C45   A    
C52   F3    S    
N13   Ni1   S    
C54   N14   A    
C21   H13   S    
N6    Ni1   S    
C34   H29   S    
C47   H31   S    
C60   H48   S    
C59   H46   S    
C37   C38   A    
C1    H1    S    
N10   N12   A    
C4    C22   S    
C47   C48   A    
C13   H7    S    
C50   C51   S    
C15   C24   S    
C18   F2    S    
C5    C14   A    
N2    N8    A    
C62   H53   S    
C9    C17   A    
C40   C41   A    
C20   C22   S    
C3    C40   S    
C9    N5    A    
C13   C15   A    
C55   N15   A    
C10   H5    S    
C42   C43   S    
N2    Ni2   S    
C59   H45   S    
C57   C58   S    
C44   C50   A    
C61   H51   S    
C46   C47   A    
C36   C37   A    
C27   C32   A    
C18   C22   S    
C43   H30   S    
C8    N4    A    
C10   N6    A    
C7    C16   A    
N5    Ni2   S    
C23   H19   S    
C52   H35   S    
C62   H54   S    
C57   H40   S    
O3    C61   S    
N3    N6    A    
N11   Ni4   S    
C35   H22   S    
C8    C17   A    
C21   H14   S    
C32   C33   S    
C58   H44   S    
C19   C24   S    
C59   C60   S    
C10   C16   A    
C8    H4    S    
C14   C37   S    
C53   N13   A    
C18   H8    S    
C30   C31   A    
C38   H24   S    
C1    N1    A    
C48   C49   A    
C35   H23   S    
C33   C35   S    
C20   H17   S    
C60   H47   S    
C11   N7    A    
C54   H38   S    
C62   H52   S    
N14   Ni4   S    
C19   H9    S    
N9    Ni2   S    
C60   H49   S    
C49   C50   A    
C46   C56   S    
C27   C28   A    
N9    N14   A    
C36   C43   S    
C2    C28   S    
C58   H42   S    
C29   O2    S    
C58   H43   S    
C51   H33   S    
C45   N12   A    
