data_mof_unit_49892.cif
_audit_creation_date              2013-03-05T15:53:05-0500
_audit_creation_method            fapswitch 2.2
_symmetry_space_group_name_H-M    P1
_symmetry_Int_Tables_number       1
_space_group_crystal_system       triclinic
_cell_length_a                    10.017078
_cell_length_b                    10.656751
_cell_length_c                    15.227089
_cell_angle_alpha                 94.864998
_cell_angle_beta                  70.708099
_cell_angle_gamma                 91.879579
_cell_volume                      1528.66243336

loop_
_atom_site_label
_atom_site_type_symbol
_atom_site_description
_atom_site_fract_x
_atom_site_fract_y
_atom_site_fract_z
_atom_type_partial_charge
O1    O     O_R   0.385310 0.683220 0.500000 -0.582170
O2    O     O_R   0.614640 0.683250 0.500010 -0.662235
C1    C     C_R   0.509256 0.735050 0.483350 0.905239
O3    O     O_R   0.319840 0.499980 0.632240 -0.565238
O4    O     O_R   0.549160 0.500000 0.632250 -0.601443
C2    C     C_R   0.412956 0.492068 0.675447 0.926361
Zn1   Zn    Zn3+2 0.346880 0.499980 0.499990 1.016633
Zn2   Zn    Zn3+2 0.653120 0.500020 0.500010 0.972303
O5    O     O_R   0.385360 0.316750 0.499990 -0.588635
O6    O     O_R   0.614690 0.316780 0.500000 -0.606993
O7    O     O_R   0.450840 0.500000 0.367750 -0.598132
O8    O     O_R   0.680160 0.500020 0.367760 -0.629793
C3    C     C_R   0.497581 0.258385 0.499598 0.858173
C4    C     C_R   0.587584 0.494628 0.324066 0.870307
C5    C     C_R   0.368360 0.446403 0.770257 -0.158057
C6    C     C_R   0.639711 0.471097 0.222118 -0.127136
C7    C     C_R   0.208372 0.320325 0.888062 -0.146030
C8    C     C_R   0.240951 0.379252 0.804710 -0.171060
C9    C     C_R   0.465455 0.449174 0.819237 0.340792
C10   C     C_R   0.442862 0.371941 0.893555 0.002183
C11   C     C_R   0.307753 0.319895 0.934595 0.124136
C12   C     C_R   0.546710 0.359815 0.935700 -0.001055
C13   C     C_R   0.504127 0.346225 0.031320 -0.012098
C14   C     C_R   0.369526 0.292834 0.073100 -0.130769
C15   C     C_R   0.274304 0.273872 0.023076 -0.120148
C16   C     C_R   0.691007 0.351328 0.884083 0.544685
C17   C     C_R   0.788795 0.387929 0.930388 -0.293799
C18   C     C_R   0.740841 0.418746 0.027377 -0.019522
C19   C     C_R   0.598267 0.389058 0.079370 0.045408
C20   C     C_R   0.831595 0.475079 0.074057 0.331054
C21   C     C_R   0.780371 0.497404 0.171240 -0.254998
C22   C     C_R   0.550156 0.416312 0.176180 -0.193185
H1    H     H_    0.171926 0.231533 0.055825 0.159576
H2    H     H_    0.441565 0.399226 0.216212 0.225809
H3    H     H_    0.849444 0.539850 0.207066 0.189714
H4    H     H_    0.899940 0.394685 0.891524 0.186037
H5    H     H_    0.105910 0.275825 0.916148 0.130977
H6    H     H_    0.166101 0.373153 0.767770 0.173116
H7    H     H_    0.341092 0.259213 0.141606 0.209778
H8    H     H_    0.737294 0.887688 0.450579 0.235688
C23   C     C_R   0.302958 0.855033 0.413963 -0.347540
H9    H     H_    0.328548 0.762565 0.378016 0.168284
C24   C     C_R   0.168308 0.904883 0.430192 0.405925
C25   C     C_R   0.135112 0.022020 0.481144 0.356227
C26   C     C_R   0.240607 0.093220 0.504369 -0.224026
H10   H     H_    0.208071 0.179509 0.546712 0.193603
C27   C     C_R   0.380385 0.048386 0.479356 0.064031
C28   C     C_R   0.403026 0.921668 0.447151 0.096174
C29   C     C_R   0.521491 0.862800 0.455544 -0.127068
C30   C     C_R   0.640021 0.933278 0.455522 -0.221160
H11   H     H_    0.723448 0.115636 0.468930 0.238725
C31   C     C_R   0.629563 0.062423 0.469160 -0.140078
C32   C     C_R   0.498459 0.121272 0.487450 -0.120326
H12   H     H_    0.922185 0.360656 0.391173 0.185705
C33   C     C_R   0.805642 0.684189 0.607424 -0.226038
H13   H     H_    0.697117 0.670939 0.617043 0.219746
C34   C     C_R   0.846491 0.792056 0.651383 0.424655
C35   C     C_R   0.985353 0.798835 0.651286 0.368921
C36   C     C_R   0.077097 0.695205 0.616325 0.230036
C37   C     C_R   0.044493 0.592342 0.557520 -0.109155
C38   C     C_R   0.901763 0.591356 0.554645 0.095716
N1    N     N_R   0.856800 0.501200 0.500850 -0.128938
C39   C     C_R   0.954647 0.423472 0.440176 -0.063922
C40   C     C_R   0.098170 0.425959 0.436994 0.390605
N2    N     N_R   0.142390 0.501280 0.500880 -0.168257
N3    N     N_R   0.971606 0.518473 0.024374 0.185627
O9    O     O_R   0.992182 0.584171 0.952764 -0.347606
O10   O     O_R   0.070600 0.517029 0.062136 -0.401062
O11   O     O_3   0.061858 0.836365 0.407765 -0.602770
C41   C     C_3   0.111155 0.774285 0.317391 0.100962
H14   H     H_    0.158729 0.682344 0.319803 0.161455
H15   H     H_    0.189508 0.832374 0.266627 0.154076
C42   C     C_3   0.986219 0.748432 0.282839 -0.766420
H16   H     H_    0.934398 0.838298 0.281060 0.252689
H17   H     H_    0.023627 0.701094 0.211310 0.250127
H18   H     H_    0.908047 0.686861 0.330016 0.256527
N4    N     N_R   0.994456 0.070457 0.508558 0.211051
O12   O     O_R   0.886146 0.995472 0.531426 -0.398825
O13   O     O_R   0.973025 0.190618 0.515400 -0.482247
O14   O     O_3   0.757603 0.892402 0.698764 -0.604970
C43   C     C_3   0.617794 0.883642 0.696791 0.165436
H19   H     H_    0.559968 0.805594 0.737710 0.193673
H20   H     H_    0.616612 0.870276 0.624302 0.167495
C44   C     C_3   0.541325 0.006333 0.740087 -0.755983
H21   H     H_    0.596035 0.086008 0.699697 0.274658
H22   H     H_    0.430926 0.000720 0.739086 0.218844
H23   H     H_    0.539425 0.024091 0.813443 0.253534
O15   O     O_3   0.033695 0.906196 0.690327 -0.589859
C45   C     C_3   0.972310 0.916862 0.788848 0.217671
H24   H     H_    0.946817 0.823997 0.819416 0.190407
H25   H     H_    0.874009 0.973299 0.809693 0.168606
C46   C     C_3   0.074574 0.986639 0.830991 -0.816235
H26   H     H_    0.107473 0.077189 0.798740 0.232717
H27   H     H_    0.022639 0.006418 0.907358 0.205705
H28   H     H_    0.169856 0.928594 0.818938 0.299328
N5    N     N_R   0.167204 0.682438 0.670197 0.251450
O16   O     O_R   0.264133 0.767527 0.668554 -0.396185
O17   O     O_R   0.113360 0.626255 0.746888 -0.406652
N6    N     N_R   0.196874 0.361050 0.357324 0.190186
O18   O     O_R   0.286456 0.282180 0.366225 -0.396126
O19   O     O_R   0.175245 0.359805 0.277647 -0.481989
N7    N     N_R   0.563250 0.552456 0.810670 0.189216
O20   O     O_R   0.527290 0.651392 0.869330 -0.396614
O21   O     O_R   0.694486 0.538790 0.758565 -0.398344
O22   O     O_3   0.725478 0.305087 0.790812 -0.613979
C47   C     C_3   0.862168 0.253812 0.750788 0.096587
H29   H     H_    0.854975 0.170009 0.704029 0.248608
H30   H     H_    0.907550 0.218467 0.801436 0.088787
C48   C     C_3   0.957486 0.349811 0.691622 -0.673189
H31   H     H_    0.962718 0.437142 0.735052 0.274268
H32   H     H_    0.064909 0.311440 0.657120 0.189976
H33   H     H_    0.912451 0.373530 0.637961 0.292070

loop_
_geom_bond_atom_site_label_1
_geom_bond_atom_site_label_2
_geom_bond_distance
_ccdc_geom_bond_type
C5    C8    1.406247 A    
N3    O10   1.301337 A    
C33   H13   1.054233 S    
C42   H17   1.109393 S    
C42   H16   1.110703 S    
C9    C10   1.409176 A    
C44   H23   1.110935 S    
C43   H19   1.110574 S    
C1    C29   1.449223 S    
N4    O12   1.295224 A    
C25   C26   1.402270 A    
C6    C21   1.397753 A    
Zn1   O7    1.937433 S    
C16   C17   1.411901 A    
C13   C19   1.415620 A    
C25   N4    1.431228 S    
C44   H22   1.110593 S    
C19   C22   1.398859 A    
C48   H32   1.104548 S    
C20   C21   1.398690 A    
O7    C4    1.310978 A    
H12   C39   1.082562 S    
C14   H7    1.076113 S    
C23   H9    1.081074 S    
O5    C3    1.300525 A    
N7    O20   1.300701 A    
C2    C5    1.483033 S    
C40   N6    1.427491 S    
C27   C28   1.396341 A    
N5    O17   1.301661 A    
C30   C31   1.376525 A    
C13   C14   1.410913 A    
C41   H14   1.112086 S    
C45   H25   1.109975 S    
C27   C32   1.427323 A    
N4    O13   1.295102 A    
N3    O9    1.301211 A    
C36   C37   1.453737 A    
C24   O11   1.390703 S    
C23   C24   1.402513 A    
C34   O14   1.401432 S    
O11   C41   1.411825 S    
O3    Zn1   1.941204 S    
C16   O22   1.395557 S    
C43   H20   1.104829 S    
C3    C32   1.457140 S    
C26   C27   1.412246 A    
H11   C31   1.081302 S    
C14   C15   1.404363 A    
O3    C2    1.315308 A    
C48   H33   1.105047 S    
C35   C36   1.411093 A    
C26   H10   1.071339 S    
C46   H28   1.109508 S    
C7    C11   1.400012 A    
C37   C38   1.444462 A    
O1    C1    1.296779 A    
C22   H2    1.075017 S    
C5    C9    1.405970 A    
C24   C25   1.401154 A    
N1    C39   1.351103 A    
Zn1   N2    2.044449 S    
N6    O18   1.295844 A    
Zn2   O8    1.941201 S    
N5    O16   1.302170 A    
C10   C11   1.407317 A    
C41   C42   1.518825 S    
C46   H27   1.110483 S    
C7    C8    1.399921 A    
C7    H5    1.083357 S    
C47   H29   1.109744 S    
C44   H21   1.111244 S    
C45   C46   1.522359 S    
N7    O21   1.297173 A    
C20   N3    1.438366 S    
C28   C29   1.407382 A    
N6    O19   1.299946 A    
C10   C12   1.405233 A    
C37   N2    1.417336 A    
C33   C34   1.398740 A    
C42   H18   1.110991 S    
C21   H3    1.080726 S    
C36   N5    1.422088 S    
C43   C44   1.522069 S    
C31   C32   1.406514 A    
Zn1   O5    2.002682 S    
C11   C15   1.403946 A    
C18   C19   1.425588 A    
O1    Zn1   1.977897 S    
O2    Zn2   2.002683 S    
O8    C4    1.305237 A    
O14   C43   1.410570 S    
O6    C3    1.311353 A    
C35   O15   1.391203 S    
O4    Zn2   1.937433 S    
C17   H4    1.077756 S    
C6    C22   1.394962 A    
O22   C47   1.409263 S    
C40   N2    1.384123 A    
C18   C20   1.418046 A    
O2    C1    1.312397 A    
C8    H6    1.073342 S    
C48   H31   1.105229 S    
C34   C35   1.390012 A    
O4    C2    1.307735 A    
C47   H30   1.111512 S    
H8    C30   1.080536 S    
C33   C38   1.402856 A    
C46   H26   1.110639 S    
C9    N7    1.434328 S    
C23   C28   1.411231 A    
C4    C6    1.467084 S    
C38   N1    1.370709 A    
C39   C40   1.421856 A    
O15   C45   1.416929 S    
Zn2   O6    1.977896 S    
C29   C30   1.383883 A    
C12   C16   1.400381 A    
Zn2   N1    2.044160 S    
C17   C18   1.406787 A    
C12   C13   1.394361 A    
C41   H15   1.115861 S    
C45   H24   1.115465 S    
C15   H1    1.083446 S    
C47   C48   1.514530 S    
