data_mof_unit_20490.cif
_audit_creation_date              2013-03-05T15:52:44-0500
_audit_creation_method            fapswitch 2.2
_symmetry_space_group_name_H-M    P1
_symmetry_Int_Tables_number       1
_space_group_crystal_system       triclinic
_cell_length_a                    10.074672
_cell_length_b                    10.7154
_cell_length_c                    13.282439
_cell_angle_alpha                 89.706301
_cell_angle_beta                  72.43128
_cell_angle_gamma                 88.247042
_cell_volume                      1366.35870909

loop_
_atom_site_label
_atom_site_type_symbol
_atom_site_description
_atom_site_fract_x
_atom_site_fract_y
_atom_site_fract_z
_atom_type_partial_charge
O1    O     O_R   0.385310 0.683220 0.500000 -0.505857
O2    O     O_R   0.614640 0.683250 0.500010 -0.539989
C1    C     C_R   0.501476 0.738703 0.486957 0.967152
O3    O     O_R   0.328400 0.499950 0.653610 -0.517986
O4    O     O_R   0.557730 0.499970 0.653620 -0.571627
C2    C     C_R   0.426305 0.479792 0.700669 1.034869
Zn1   Zn    Zn3+2 0.346880 0.499980 0.499990 1.150798
Zn2   Zn    Zn3+2 0.653120 0.500020 0.500010 1.109819
O5    O     O_R   0.385360 0.316750 0.499990 -0.587714
O6    O     O_R   0.614690 0.316780 0.500000 -0.581585
O7    O     O_R   0.442270 0.500030 0.346380 -0.542202
O8    O     O_R   0.671600 0.500050 0.346390 -0.583391
C3    C     C_R   0.499632 0.259596 0.501304 0.897279
C4    C     C_R   0.576871 0.509079 0.297531 0.922489
C5    C     C_R   0.800944 0.508851 0.012618 0.656401
C6    C     C_R   0.623924 0.522438 0.181940 -0.412608
C7    C     C_R   0.268137 0.384075 0.868611 0.114660
C8    C     C_R   0.219282 0.405709 0.976817 0.600941
C9    C     C_R   0.307722 0.453286 0.029818 0.584679
C10   C     C_R   0.451214 0.470100 0.974585 -0.094245
C11   C     C_R   0.494939 0.442176 0.865621 -0.101583
C12   C     C_R   0.555324 0.495474 0.023572 -0.088569
C13   C     C_R   0.698844 0.478073 0.965058 -0.222083
C14   C     C_R   0.736119 0.421746 0.864506 0.168908
C15   C     C_R   0.632067 0.395722 0.818751 0.169872
C16   C     C_R   0.523215 0.534127 0.129360 0.679771
C17   C     C_R   0.765733 0.522234 0.121562 0.121655
C18   C     C_R   0.393284 0.437982 0.812569 -0.312333
C19   C     C_R   0.243485 0.894152 0.479378 0.607144
C20   C     C_R   0.117258 0.957357 0.526127 -0.059062
C21   C     C_R   0.114021 0.062590 0.586620 0.528725
C22   C     C_R   0.237809 0.116214 0.587181 0.551435
C23   C     C_R   0.369014 0.061289 0.528414 -0.220738
C24   C     C_R   0.368234 0.938814 0.492957 -0.159396
C25   C     C_R   0.496208 0.871315 0.462606 -0.105422
C26   C     C_R   0.615300 0.934646 0.408919 0.109323
C27   C     C_R   0.612642 0.064603 0.417071 0.146264
C28   C     C_R   0.497964 0.125081 0.491615 -0.099486
C29   C     C_R   0.798239 0.645543 0.655726 0.553456
C30   C     C_R   0.833376 0.700654 0.738027 -0.045784
C31   C     C_R   0.969554 0.701540 0.736125 0.508534
C32   C     C_R   0.071780 0.647329 0.652685 0.544048
C33   C     C_R   0.040593 0.572812 0.574050 -0.134645
C34   C     C_R   0.896133 0.571846 0.575045 -0.187289
N1    N     N_R   0.856860 0.501200 0.500990 -0.139822
C35   C     C_R   0.957350 0.427537 0.434088 0.675641
C36   C     C_R   0.098291 0.425517 0.434705 0.218119
N2    N     N_R   0.142450 0.501280 0.501020 -0.101746
I1    I     I_    0.935737 0.548625 0.182699 0.097621
F1    F     F_    0.246116 0.801203 0.409529 -0.580817
I2    I     I_    0.932056 0.903283 0.499795 -0.090250
F2    F     F_    0.990479 0.120095 0.636845 -0.573121
F3    F     F_    0.224616 0.223802 0.641799 -0.609253
I3    I     I_    0.754766 0.167037 0.293906 -0.037549
F4    F     F_    0.921086 0.351955 0.366874 -0.593222
F5    F     F_    0.672182 0.683197 0.653848 -0.588584
I4    I     I_    0.681788 0.803081 0.857892 -0.018139
F6    F     F_    0.005838 0.766041 0.811110 -0.535814
F7    F     F_    0.198162 0.681718 0.650231 -0.592004
I5    I     I_    0.943462 0.353855 0.788271 -0.036981
I6    I     I_    0.232512 0.290319 0.334973 -0.038071
F8    F     F_    0.934810 0.526973 0.954634 -0.601218
F9    F     F_    0.401257 0.595407 0.179132 -0.542917
I7    I     I_    0.258876 0.188632 0.847144 -0.007336
F10   F     F_    0.258485 0.451801 0.136084 -0.554440
F11   F     F_    0.100971 0.350271 0.033836 -0.553501
I8    I     I_    0.664971 0.240340 0.711970 -0.121787
I9    I     I_    0.769948 0.838738 0.287773 -0.129436

loop_
_geom_bond_atom_site_label_1
_geom_bond_atom_site_label_2
_geom_bond_distance
_ccdc_geom_bond_type
C32   F7    1.327230 S    
C35   F4    1.344936 S    
O4    Zn2   1.975537 S    
C20   I2    2.098008 S    
C26   I9    2.116210 S    
C14   C15   1.396509 A    
C36   I6    2.121432 S    
C19   C20   1.391538 A    
Zn2   O8    1.992173 S    
C8    F11   1.356812 S    
C31   C32   1.381063 A    
C5    C17   1.389046 A    
C21   C22   1.391056 A    
C15   I8    2.144818 S    
C16   F9    1.357428 S    
C1    C25   1.458656 S    
C21   F2    1.352740 S    
C13   C14   1.407376 A    
Zn1   N2    2.055098 S    
C6    C17   1.411528 A    
C5    C13   1.407504 A    
C23   C24   1.397630 A    
Zn2   N1    2.057004 S    
C7    I7    2.123688 S    
C29   F5    1.328140 S    
O1    Zn1   2.012891 S    
N1    C35   1.361189 A    
C34   N1    1.399302 A    
Zn1   O7    1.975537 S    
C3    C28   1.448834 S    
C29   C34   1.437940 A    
C11   C18   1.409351 A    
O3    Zn1   1.992172 S    
O4    C2    1.306538 A    
C27   I3    2.143571 S    
O6    C3    1.323124 A    
O3    C2    1.329673 A    
C30   C31   1.364866 A    
C23   C28   1.435778 A    
C27   C28   1.416082 A    
C10   C12   1.424320 A    
C31   F6    1.358528 S    
C9    F10   1.347651 S    
O2    C1    1.326566 A    
C19   F1    1.358844 S    
C33   C34   1.451807 A    
C6    C16   1.397132 A    
C20   C21   1.381817 A    
C24   C25   1.407154 A    
O7    C4    1.321178 A    
C4    C6    1.471387 S    
C32   C33   1.431511 A    
C12   C16   1.404967 A    
C7    C8    1.389611 A    
C36   N2    1.377990 A    
C17   I1    2.131783 S    
C22   F3    1.346836 S    
C10   C11   1.410582 A    
Zn2   O6    2.012892 S    
C8    C9    1.399837 A    
C33   N2    1.392861 A    
O2    Zn2   1.989622 S    
C29   C30   1.386383 A    
Zn1   O5    1.989623 S    
O5    C3    1.292145 A    
C12   C13   1.426905 A    
C26   C27   1.396120 A    
C14   I5    2.134424 S    
C11   C15   1.409196 A    
C30   I4    2.125855 S    
C35   C36   1.421933 A    
C7    C18   1.396764 A    
C19   C24   1.419741 A    
C5    F8    1.355415 S    
C2    C18   1.491402 S    
C9    C10   1.426479 A    
C22   C23   1.427298 A    
O8    C4    1.307262 A    
O1    C1    1.293161 A    
C25   C26   1.391727 A    
