data_mof_unit_42104.cif
_audit_creation_date              2012-12-10T16:55:43-0500
_audit_creation_method            fapswitch 2.2
_symmetry_space_group_name_H-M    P1
_symmetry_Int_Tables_number       1
_space_group_crystal_system       triclinic
_cell_length_a                    7.786114
_cell_length_b                    8.569703
_cell_length_c                    10.486832
_cell_angle_alpha                 91.261187
_cell_angle_beta                  85.006274
_cell_angle_gamma                 93.850363
_cell_volume                      695.409145034

loop_
_atom_site_label
_atom_site_type_symbol
_atom_type_description
_atom_site_fract_x
_atom_site_fract_y
_atom_site_fract_z
_atom_type_partial_charge
C1    C     C_R   0.545880 0.794736 0.496650 0.955647
C2    C     C_3   0.501392 0.503491 0.877237 -0.111384
C3    C     C_3   0.350127 0.424599 0.048619 -0.324717
C4    C     C_3   0.649873 0.575401 0.951381 -0.324717
C5    C     C_2   0.569930 0.958364 0.494750 -0.373426
C6    C     C_2   0.430070 0.041637 0.505241 -0.373425
C7    C     C_3   0.124485 0.704507 0.037187 -0.321458
C8    C     C_3   0.875516 0.295495 0.962813 -0.321456
C9    C     C_R   0.454120 0.205264 0.503346 0.955648
C10   C     C_R   0.501276 0.503853 0.742414 0.911270
C11   C     C_R   0.498724 0.496147 0.257586 0.911266
C12   C     C_3   0.367104 0.575704 0.971130 0.653303
C13   C     C_3   0.632896 0.424295 0.028870 0.653303
C14   C     C_3   0.513285 0.648854 0.046775 -0.340964
C15   C     C_3   0.486714 0.351146 0.953225 -0.340964
C16   C     C_3   0.498608 0.496509 0.122763 -0.111382
H1    H     H_    0.521978 0.768367 0.089816 0.158434
H2    H     H_    0.059264 0.602451 0.089469 0.196601
H3    H     H_    0.022440 0.773966 0.003777 0.186676
H4    H     H_    0.940739 0.397552 0.910533 0.196601
H5    H     H_    0.801328 0.218776 0.897211 0.164041
H6    H     H_    0.977560 0.226033 0.996223 0.186676
H7    H     H_    0.478022 0.231632 0.910184 0.158435
H8    H     H_    0.229536 0.365314 0.093565 0.166850
H9    H     H_    0.770463 0.634686 0.906434 0.166850
H10   H     H_    0.013734 0.382218 0.403468 0.197313
H11   H     H_    0.986266 0.617781 0.596532 0.197314
H12   H     H_    0.701905 0.009743 0.484757 0.181102
H13   H     H_    0.298094 0.990257 0.515233 0.181101
H14   H     H_    0.198673 0.781228 0.102787 0.164041
N1    N     N_2   0.950320 0.457950 0.465730 -0.174687
N2    N     N_2   0.049680 0.542050 0.534270 -0.174687
O1    O     O_R   0.389250 0.738570 0.508410 -0.610058
O2    O     O_3   0.769835 0.344029 0.070313 -0.608202
O3    O     O_R   0.610750 0.261430 0.491590 -0.610059
O4    O     O_R   0.678390 0.711620 0.486450 -0.636196
O5    O     O_R   0.321610 0.288380 0.513550 -0.636196
O6    O     O_R   0.355460 0.513510 0.697030 -0.581449
O7    O     O_R   0.644540 0.486490 0.302970 -0.581450
O8    O     O_R   0.644600 0.486560 0.675070 -0.642765
O9    O     O_R   0.355400 0.513440 0.324930 -0.642767
O10   O     O_3   0.230165 0.655971 0.929687 -0.608202
Zn1   Zn    Zn3+2 0.306940 0.517990 0.514670 0.954069
Zn2   Zn    Zn3+2 0.693060 0.482010 0.485330 0.954069

loop_
_geom_bond_atom_site_label_1
_geom_bond_atom_site_label_2
_ccdc_geom_bond_type
O5    Zn1   S    
C2    C4    S    
C7    O10   S    
O7    Zn2   S    
C2    C15   S    
C5    H12   S    
C11   C16   S    
C8    H6    S    
N1    N2    D    
O8    Zn2   S    
C10   O6    A    
C7    H2    S    
C2    C12   S    
C6    C9    S    
C9    O5    A    
C8    H5    S    
C1    O1    A    
O6    Zn1   S    
C7    H14   S    
C8    O2    S    
C11   O7    A    
O3    Zn2   S    
O9    Zn1   S    
C14   H1    S    
C3    H8    S    
C8    H4    S    
C1    C5    S    
C15   H7    S    
N2    Zn1   S    
C12   C14   S    
C11   O9    A    
C7    H3    S    
C13   C15   S    
C4    C14   S    
C5    C6    D    
C14   C16   S    
O4    Zn2   S    
N1    Zn2   S    
O1    Zn1   S    
C4    H9    S    
C13   O2    S    
C6    H13   S    
C3    C15   S    
C10   O8    A    
C13   C16   S    
C4    C13   S    
C9    O3    A    
C12   O10   S    
C3    C12   S    
H11   N2    S    
H10   N1    S    
C3    C16   S    
C1    O4    A    
C2    C10   S    
