data_mof_unit_32173.cif
_audit_creation_date              2013-03-05T16:47:20-0500
_audit_creation_method            fapswitch 2.2
_symmetry_space_group_name_H-M    P1
_symmetry_Int_Tables_number       1
_space_group_crystal_system       triclinic
_cell_length_a                    10.9014
_cell_length_b                    10.930109
_cell_length_c                    9.718182
_cell_angle_alpha                 90.044451
_cell_angle_beta                  91.024169
_cell_angle_gamma                 90.035526
_cell_volume                      1157.7697331

loop_
_atom_site_label
_atom_site_type_symbol
_atom_site_description
_atom_site_fract_x
_atom_site_fract_y
_atom_site_fract_z
_atom_type_partial_charge
O1    O     O_R   0.500020 0.321960 0.617040 -0.567525
O2    O     O_R   0.499980 0.321920 0.382900 -0.588821
C1    C     C_R   0.501470 0.265449 0.500046 0.861403
O3    O     O_R   0.319660 0.500030 0.617070 -0.565894
O4    O     O_R   0.319620 0.499990 0.382930 -0.561990
C2    C     C_R   0.262155 0.500870 0.498460 0.812017
Cu1   Cu    Cu3+1 0.500020 0.500020 0.638630 0.968117
Cu2   Cu    Cu3+1 0.499980 0.499980 0.361370 0.943236
O5    O     O_R   0.500020 0.678080 0.617100 -0.590362
O6    O     O_R   0.499980 0.678040 0.382960 -0.582425
O7    O     O_R   0.680380 0.500010 0.617070 -0.569444
O8    O     O_R   0.680340 0.499970 0.382930 -0.592649
C3    C     C_R   0.498346 0.734565 0.500096 0.844425
C4    C     C_R   0.737617 0.498983 0.501537 0.787705
H1    H     H_    0.258226 0.538940 0.876324 0.180916
C5    C     C_R   0.206548 0.638854 0.054677 -0.208127
H2    H     H_    0.240576 0.724885 0.015562 0.152735
C6    C     C_R   0.154070 0.634069 0.184403 -0.099967
H3    H     H_    0.147769 0.716620 0.245588 0.131048
C7    C     C_R   0.111376 0.522415 0.235395 0.070478
C8    C     C_R   0.119229 0.416204 0.155157 -0.186346
H4    H     H_    0.085369 0.330538 0.195700 0.165388
C9    C     C_R   0.172413 0.419975 0.024770 0.390689
C10   C     C_R   0.216187 0.532610 0.975595 -0.228217
C11   C     C_R   0.930914 0.515614 0.379302 -0.235685
H5    H     H_    0.878665 0.528099 0.284816 0.158965
C12   C     C_R   0.871402 0.499074 0.504174 -0.087235
C13   C     C_R   0.941390 0.483205 0.626593 -0.017057
C14   C     C_R   0.068091 0.486915 0.620662 -0.196962
H6    H     H_    0.119835 0.474520 0.714915 0.192993
C15   C     C_R   0.127908 0.501957 0.495804 -0.092503
C16   C     C_R   0.057710 0.515240 0.373041 0.014492
C17   C     C_R   0.872591 0.552777 0.857219 -0.118803
H7    H     H_    0.894645 0.646158 0.829781 0.125688
C18   C     C_R   0.828727 0.527323 0.988351 -0.138022
H8    H     H_    0.815605 0.601101 0.060869 0.126697
C19   C     C_R   0.802625 0.406720 0.025919 -0.131369
H9    H     H_    0.769409 0.386791 0.127716 0.147536
C20   C     C_R   0.818354 0.311678 0.931620 -0.121712
H10   H     H_    0.797715 0.218466 0.960755 0.130902
C21   C     C_R   0.860996 0.336921 0.799860 -0.070077
H11   H     H_    0.874116 0.262594 0.727847 0.125944
C22   C     C_R   0.888310 0.457666 0.762186 0.129008
C23   C     C_2   0.501279 0.932951 0.387058 -0.154070
C24   C     C_2   0.491879 0.866590 0.502279 -0.313386
H12   H     H_    0.511521 0.888209 0.288060 0.164207
H13   H     H_    0.476552 0.907655 0.601802 0.151862
C25   C     C_2   0.495875 0.066942 0.387008 -0.151780
C26   C     C_2   0.507576 0.133448 0.502386 -0.303546
H14   H     H_    0.483788 0.111549 0.287835 0.162044
H15   H     H_    0.524447 0.092532 0.602249 0.146569
C27   C     C_2   0.507192 0.401641 0.922740 0.014585
N1    N     N_2   0.498640 0.498660 0.846910 -0.287227
H16   H     H_    0.519054 0.313713 0.873335 0.166962
H17   H     H_    0.482679 0.581159 0.893773 0.183001
C28   C     C_2   0.497632 0.401228 0.077218 -0.077951
N2    N     N_2   0.498610 0.498630 0.153040 -0.285538
H18   H     H_    0.492292 0.312643 0.126512 0.157114
H19   H     H_    0.511721 0.581708 0.106366 0.193366
N3    N     N_R   0.182892 0.309964 0.944210 0.097508
O9    O     O_R   0.129922 0.209311 0.983085 -0.386931
O10   O     O_R   0.247709 0.308349 0.833124 -0.385974

loop_
_geom_bond_atom_site_label_1
_geom_bond_atom_site_label_2
_geom_bond_distance
_ccdc_geom_bond_type
O4    Cu2   1.981029 S    
C3    C24   1.444966 S    
C9    C10   1.407147 A    
C19   H9    1.081798 S    
Cu2   N2    2.024419 S    
C11   C12   1.398062 A    
C21   H11   1.083092 S    
C13   C22   1.475387 S    
C15   C16   1.413433 A    
C18   H8    1.081793 S    
Cu2   O8    1.973580 S    
C11   C16   1.384683 A    
C25   H14   1.086376 S    
C2    C15   1.463308 S    
C1    C26   1.444540 S    
Cu1   Cu2   2.694456 S    
C5    C10   1.397091 A    
C5    C6    1.394714 A    
O1    Cu1   1.957331 S    
C8    H4    1.083306 S    
C7    C8    1.401474 A    
Cu1   O7    1.981028 S    
C9    N3    1.440045 S    
C21   C22   1.403072 A    
C13   C14   1.384019 A    
C14   H6    1.075803 S    
O3    Cu1   1.973581 S    
N3    O10   1.300885 A    
H1    C10   1.077675 S    
C17   C18   1.397224 A    
C27   H16   1.082844 S    
O2    C1    1.295282 A    
C6    C7    1.400008 A    
N1    H17   1.026242 S    
C8    C9    1.403483 A    
O4    C2    1.295455 A    
C4    C12   1.458204 S    
O7    C4    1.294262 A    
N2    H19   1.026411 S    
O3    C2    1.302274 A    
C5    H2    1.082348 S    
C28   N2    1.294202 D    
Cu1   N1    2.024493 S    
C17   C22   1.402647 A    
C27   C28   1.506727 S    
C20   H10   1.082238 S    
C17   H7    1.083079 S    
C27   N1    1.294275 D    
C20   C21   1.397661 A    
C19   C20   1.397396 A    
C6    H3    1.083100 S    
C7    C16   1.471690 S    
C24   H13   1.081674 S    
C12   C13   1.412661 A    
Cu1   O5    1.957591 S    
C26   H15   1.081704 S    
O5    C3    1.294136 A    
C25   C26   1.339926 D    
C23   H12   1.086452 S    
C18   C19   1.398539 A    
C11   H5    1.080647 S    
C14   C15   1.397511 A    
C28   H18   1.082592 S    
Cu2   O6    1.957331 S    
O2    Cu2   1.957590 S    
C23   C24   1.340034 D    
C23   C25   1.465763 S    
O8    C4    1.301108 A    
N3    O9    1.301589 A    
O1    C1    1.293839 A    
O6    C3    1.295191 A    
