data_mof_unit_40329.cif
_audit_creation_date              2012-12-11T15:19:29-0500
_audit_creation_method            fapswitch 2.2
_symmetry_space_group_name_H-M    P1
_symmetry_Int_Tables_number       1
_space_group_crystal_system       triclinic
_cell_length_a                    20.047091
_cell_length_b                    6.866616
_cell_length_c                    18.22497
_cell_angle_alpha                 89.999971
_cell_angle_beta                  104.345465
_cell_angle_gamma                 90.000035
_cell_volume                      2430.54566388

loop_
_atom_site_label
_atom_site_type_symbol
_atom_type_description
_atom_site_fract_x
_atom_site_fract_y
_atom_site_fract_z
_atom_type_partial_charge
O1    O     O_R   0.312200 0.620210 0.189560 -0.546038
O2    O     O_R   0.687800 0.379790 0.810440 -0.547832
O3    O     O_R   0.187800 0.120210 0.310440 -0.546036
O4    O     O_R   0.812200 0.879790 0.689560 -0.547832
O5    O     O_R   0.171590 0.286140 0.165000 -0.530114
O6    O     O_R   0.828410 0.713860 0.835000 -0.529556
O7    O     O_R   0.328410 0.786140 0.335000 -0.530114
O8    O     O_R   0.671590 0.213860 0.665000 -0.529556
C1    C     C_R   0.145635 0.459551 0.143790 0.723774
C2    C     C_R   0.854340 0.540436 0.856244 0.717717
C3    C     C_R   0.354365 0.959551 0.356210 0.723772
C4    C     C_R   0.645659 0.040436 0.643756 0.717708
O9    O     O_R   0.310670 0.290220 0.180540 -0.539257
O10   O     O_R   0.689330 0.709780 0.819460 -0.546794
O11   O     O_R   0.189330 0.790220 0.319460 -0.539256
O12   O     O_R   0.810670 0.209780 0.680540 -0.546792
O13   O     O_R   0.327870 0.124170 0.326080 -0.540003
O14   O     O_R   0.672130 0.875830 0.673920 -0.537896
O15   O     O_R   0.172130 0.624170 0.173920 -0.540002
O16   O     O_R   0.827870 0.375830 0.826080 -0.537893
C5    C     C_R   0.332395 0.459464 0.165280 0.683253
C6    C     C_R   0.668444 0.540539 0.835225 0.687220
C7    C     C_R   0.167605 0.959464 0.334720 0.683251
C8    C     C_R   0.831556 0.040540 0.664774 0.687212
O17   O     O_3   0.255480 0.455050 0.297740 -0.370804
O18   O     O_3   0.744520 0.544950 0.702260 -0.370269
O19   O     O_3   0.244520 0.955050 0.202260 -0.370804
O20   O     O_3   0.755480 0.044950 0.797740 -0.370268
V1    V     V_3+5 0.248980 0.178550 0.241140 1.468949
V2    V     V_3+5 0.751020 0.821450 0.758860 1.431841
V3    V     V_3+5 0.251020 0.678550 0.258860 1.468949
V4    V     V_3+5 0.748980 0.321450 0.741140 1.431844
C9    C     C_R   0.939280 0.147728 0.628744 -0.087726
C10   C     C_R   0.060356 0.837198 0.371092 -0.066751
C11   C     C_R   0.560720 0.647733 0.871257 -0.087729
C12   C     C_R   0.439644 0.337199 0.128908 -0.066752
C13   C     C_R   0.879147 0.031119 0.613767 -0.196857
C14   C     C_R   0.116083 0.971412 0.381991 -0.175911
C15   C     C_R   0.620852 0.531118 0.886232 -0.196853
C16   C     C_R   0.383917 0.471412 0.118010 -0.175911
C17   C     C_R   0.863945 0.908967 0.549143 -0.049781
C18   C     C_R   0.122654 0.117822 0.438133 0.000594
C19   C     C_R   0.636053 0.408960 0.950855 -0.049781
C20   C     C_R   0.377348 0.617826 0.061868 0.000595
C21   C     C_R   0.911601 0.893370 0.503289 0.051856
C22   C     C_R   0.072312 0.136591 0.480183 0.076514
C23   C     C_R   0.588398 0.393368 0.996710 0.051849
C24   C     C_R   0.427690 0.636595 0.019818 0.076512
C25   C     C_R   0.968889 0.019533 0.515331 0.060500
C26   C     C_R   0.016427 0.004984 0.468811 0.055180
C27   C     C_R   0.531112 0.519535 0.984670 0.060511
C28   C     C_R   0.483573 0.504987 0.031190 0.055185
C29   C     C_R   0.978515 0.161459 0.573603 0.029168
C30   C     C_R   0.007675 0.860768 0.411096 0.014253
C31   C     C_R   0.521486 0.661463 0.926399 0.029169
C32   C     C_R   0.492325 0.360769 0.088904 0.014257
C33   C     C_R   0.901666 0.758263 0.443843 -0.159759
C34   C     C_R   0.074283 0.294475 0.529952 -0.073185
C35   C     C_R   0.598334 0.258261 0.056156 -0.159771
C36   C     C_R   0.425719 0.794482 0.970051 -0.073184
C37   C     C_R   0.945894 0.747657 0.395436 -0.048676
C38   C     C_R   0.026544 0.313447 0.573922 -0.029328
C39   C     C_R   0.554107 0.247658 0.104564 -0.048671
C40   C     C_R   0.473459 0.813454 0.926081 -0.029326
H1    H     H_    0.857327 0.662999 0.432549 0.197890
H2    H     H_    0.111222 0.410573 0.532041 0.189048
H3    H     H_    0.642673 0.162999 0.067451 0.197887
H4    H     H_    0.388781 0.910580 0.967962 0.189047
C41   C     C_1   0.583182 0.027372 0.581544 -0.155921
C42   C     C_1   0.416870 0.972582 0.418388 -0.163207
C43   C     C_1   0.916818 0.527372 0.918456 -0.155918
C44   C     C_1   0.083129 0.472582 0.081611 -0.163206
C45   C     C_1   0.530881 0.010811 0.530142 0.050355
C46   C     C_1   0.469186 0.989117 0.469775 0.044653
C47   C     C_1   0.969119 0.510811 0.969858 0.050357
C48   C     C_1   0.030814 0.489117 0.030225 0.044654
C49   C     C_2   0.966393 0.227762 0.706647 0.378766
H5    H     H_    0.932137 0.272396 0.741032 0.047349
O21   O     O_2   0.028307 0.236211 0.734816 -0.479389
C50   C     C_2   0.061318 0.665155 0.322062 0.337093
H6    H     H_    0.065966 0.684303 0.264427 0.045738
O22   O     O_2   0.058887 0.500655 0.346659 -0.545017
C51   C     C_2   0.533607 0.727770 0.793354 0.378763
H7    H     H_    0.567864 0.772399 0.758968 0.047349
O23   O     O_2   0.471693 0.736229 0.765186 -0.479391
C52   C     C_2   0.438682 0.165155 0.177937 0.337089
H8    H     H_    0.434033 0.184302 0.235573 0.045740
O24   O     O_2   0.441114 0.000655 0.153340 -0.545019
C53   C     C_2   0.797198 0.802893 0.528657 0.345801
H9    H     H_    0.782162 0.707035 0.568949 0.077740
O25   O     O_2   0.757822 0.825377 0.466391 -0.503404
C54   C     C_2   0.185498 0.241467 0.457591 0.395102
H10   H     H_    0.197672 0.339425 0.416181 0.098266
O26   O     O_2   0.223872 0.235061 0.521054 -0.490329
C55   C     C_2   0.702797 0.302869 0.971337 0.345809
H11   H     H_    0.717823 0.206987 0.931045 0.077736
O27   O     O_2   0.742180 0.325363 0.033598 -0.503406
C56   C     C_2   0.314504 0.741473 0.042411 0.395107
H12   H     H_    0.302332 0.839435 0.083821 0.098267
O28   O     O_2   0.276129 0.735066 0.978949 -0.490329
C57   C     C_2   0.920000 0.636520 0.324071 0.522202
H13   H     H_    0.930631 0.686662 0.271698 0.030023
O29   O     O_2   0.885198 0.489889 0.322685 -0.503169
C58   C     C_2   0.021873 0.504288 0.611201 0.514700
H14   H     H_    0.975489 0.543844 0.628178 0.000794
O30   O     O_2   0.069081 0.621673 0.621808 -0.489361
C59   C     C_2   0.580001 0.136523 0.175930 0.522200
H15   H     H_    0.569369 0.186666 0.228303 0.030022
O31   O     O_2   0.614804 0.989892 0.177317 -0.503167
C60   C     C_2   0.478132 0.004299 0.888804 0.514698
H16   H     H_    0.524515 0.043849 0.871825 0.000794
O32   O     O_2   0.430927 0.121692 0.878204 -0.489368

loop_
_geom_bond_atom_site_label_1
_geom_bond_atom_site_label_2
_ccdc_geom_bond_type
C34   C38   A    
C17   C53   S    
C4    C41   S    
O18   V4    S    
C57   H13   S    
O19   V1    S    
O13   V1    S    
C45   C46   S    
O3    C7    A    
C55   H11   S    
C1    C44   S    
C44   C48   T    
O15   V3    S    
C58   O30   D    
C3    C42   S    
C49   H5    S    
O1    C5    A    
C21   C33   A    
C26   C30   A    
O9    V1    S    
C14   C18   A    
C11   C15   A    
O4    C8    A    
C52   O24   D    
O1    V3    S    
O2    V4    S    
C18   C22   A    
O3    V1    S    
C42   C46   T    
C12   C16   A    
C35   H3    S    
C60   H16   S    
C20   C56   S    
C1    O15   A    
C2    O16   A    
O2    C6    A    
C19   C55   S    
C59   H15   S    
C41   C45   T    
O14   V2    S    
C53   O25   D    
C16   C20   A    
C38   C58   S    
C10   C50   S    
C2    C43   S    
O11   C7    A    
O12   C8    A    
C22   C34   A    
C9    C29   A    
C59   O31   D    
O10   V2    S    
C58   H14   S    
C34   H2    S    
C24   C36   A    
O5    V1    S    
C49   O21   D    
O17   V1    S    
O7    V3    S    
O19   V3    S    
C27   C28   A    
O8    V4    S    
O20   V4    S    
C50   O22   D    
C11   C51   S    
C52   H8    S    
C15   C19   A    
C12   C52   S    
C11   C31   A    
C9    C13   A    
C37   C57   S    
O7    C3    A    
C47   C48   S    
O5    C1    A    
C12   C32   A    
C29   C38   A    
C40   C60   S    
C51   H7    S    
C21   C25   A    
O8    C4    A    
C31   C40   A    
C54   O26   D    
C8    C13   S    
C32   C39   A    
O9    C5    A    
C33   C37   A    
C51   O23   D    
C10   C30   A    
C56   O28   D    
C25   C26   A    
C39   C59   S    
O16   V4    S    
C3    O13   A    
C18   C54   S    
O6    V2    S    
C10   C14   A    
O17   V3    S    
C33   H1    S    
C50   H6    S    
O6    C2    A    
C23   C27   A    
C55   O27   D    
O11   V3    S    
C30   C37   A    
O12   V4    S    
C7    C14   S    
C22   C26   A    
C35   C39   A    
C36   C40   A    
O10   C6    A    
O20   V2    S    
C43   C47   T    
C9    C49   S    
C5    C16   S    
C25   C29   A    
C6    C15   S    
C54   H10   S    
C27   C31   A    
C13   C17   A    
C60   O32   D    
C23   C35   A    
C28   C32   A    
C24   C28   A    
C36   H4    S    
C57   O29   D    
C56   H12   S    
C4    O14   A    
C17   C21   A    
C53   H9    S    
C19   C23   A    
O4    V2    S    
C20   C24   A    
O18   V2    S    
