data_mof_unit_59902.cif
_audit_creation_date              2012-12-10T19:42:12-0500
_audit_creation_method            fapswitch 2.2
_symmetry_space_group_name_H-M    P1
_symmetry_Int_Tables_number       1
_space_group_crystal_system       triclinic
_cell_length_a                    10.882751
_cell_length_b                    10.911146
_cell_length_c                    9.72731
_cell_angle_alpha                 90.478873
_cell_angle_beta                  90.828891
_cell_angle_gamma                 90.68932
_cell_volume                      1154.8062446

loop_
_atom_site_label
_atom_site_type_symbol
_atom_type_description
_atom_site_fract_x
_atom_site_fract_y
_atom_site_fract_z
_atom_type_partial_charge
C1    C     C_R   0.498417 0.265463 0.499596 0.881535
C2    C     C_R   0.210303 0.604803 0.979431 -0.191106
C3    C     C_R   0.932091 0.513087 0.377634 -0.234271
C4    C     C_R   0.871781 0.511758 0.503658 -0.083298
C5    C     C_R   0.941092 0.523347 0.627161 0.019899
C6    C     C_R   0.068164 0.521319 0.621471 -0.236197
C7    C     C_R   0.128528 0.516851 0.495880 -0.087473
C8    C     C_R   0.059129 0.522945 0.372146 0.033033
C9    C     C_R   0.866531 0.672661 0.800248 -0.230800
C10   C     C_R   0.816257 0.701105 0.929245 0.517970
C11   C     C_R   0.792776 0.605916 0.021044 -0.204330
C12   C     C_R   0.262471 0.506202 0.498633 0.808187
C13   C     C_R   0.811782 0.483855 0.982751 -0.239931
C14   C     C_R   0.858838 0.455894 0.853532 -0.105772
C15   C     C_R   0.886523 0.550362 0.761910 0.084684
C16   C     C_2   0.505725 0.932235 0.387543 -0.115590
C17   C     C_2   0.508218 0.866834 0.503579 -0.344299
C18   C     C_2   0.511000 0.066374 0.387630 -0.100518
C19   C     C_2   0.491329 0.133394 0.500875 -0.323835
C20   C     C_2   0.446302 0.415654 0.919932 -0.124324
C21   C     C_2   0.442283 0.417651 0.074701 0.456574
C22   C     C_R   0.501961 0.734599 0.500561 0.845068
C23   C     C_R   0.737706 0.503801 0.501333 0.783833
C24   C     C_R   0.223816 0.689069 0.087675 0.426462
C25   C     C_R   0.174744 0.662215 0.216163 -0.135779
C26   C     C_R   0.113135 0.550080 0.237119 0.065683
C27   C     C_R   0.098178 0.466961 0.127445 -0.061615
C28   C     C_R   0.147702 0.493795 0.999558 -0.173830
Cu1   Cu    Cu3+1 0.500020 0.500020 0.638630 0.949657
Cu2   Cu    Cu3+1 0.499980 0.499980 0.361370 0.997965
H1    H     H_    0.249967 0.624734 0.880644 0.175103
H2    H     H_    0.758683 0.627063 0.122313 0.156818
H3    H     H_    0.791442 0.410990 0.054041 0.157486
H4    H     H_    0.874821 0.361258 0.825385 0.132503
H5    H     H_    0.502015 0.886589 0.287885 0.214415
H6    H     H_    0.517906 0.908804 0.604362 0.152182
H7    H     H_    0.530271 0.110577 0.290494 0.201685
H8    H     H_    0.467914 0.092742 0.598259 0.154556
H9    H     H_    0.399786 0.340266 0.866672 0.192963
H10   H     H_    0.539675 0.572618 0.895339 0.201233
H11   H     H_    0.548539 0.566899 0.107645 0.163426
H12   H     H_    0.185173 0.727911 0.299785 0.146616
H13   H     H_    0.050086 0.380609 0.141679 0.149683
H14   H     H_    0.139324 0.426864 0.917319 0.155004
H15   H     H_    0.880095 0.511742 0.282093 0.159889
H16   H     H_    0.120298 0.527503 0.716089 0.158689
H17   H     H_    0.891361 0.745190 0.730273 0.129988
N1    N     N_2   0.498640 0.498660 0.846910 -0.306195
N2    N     N_2   0.498610 0.498630 0.153040 -0.308325
O1    O     O_R   0.500020 0.321960 0.617040 -0.587543
O2    O     O_R   0.499980 0.321920 0.382900 -0.519685
O3    O     O_R   0.319660 0.500030 0.617070 -0.591290
O4    O     O_R   0.319620 0.499990 0.382930 -0.532975
O5    O     O_R   0.500020 0.678080 0.617100 -0.584858
O6    O     O_R   0.499980 0.678040 0.382960 -0.572381
O7    O     O_R   0.680380 0.500010 0.617070 -0.568627
O8    O     O_R   0.680340 0.499970 0.382930 -0.598356
Cl1   Cl    Cl    0.352045 0.300742 0.146840 -0.603402
Cl2   Cl    Cl    0.303602 0.827524 0.062695 -0.652275
O9    O     O_3   0.800173 0.820777 0.974431 -0.610972
C29   C     C_3   0.733956 0.891717 0.877632 0.045050
H18   H     H_    0.652826 0.929727 0.930559 0.187347
H19   H     H_    0.696715 0.839078 0.787002 0.126791
C30   C     C_3   0.814838 0.998661 0.830331 -0.327206
H20   H     H_    0.843314 0.055399 0.921037 0.235848
H21   H     H_    0.899014 0.962813 0.781717 0.225638
C31   C     C_3   0.747013 0.079280 0.727452 -0.920150
H22   H     H_    0.722263 0.025563 0.633427 0.262124
H23   H     H_    0.807277 0.157188 0.697685 0.256801
H24   H     H_    0.662362 0.116502 0.773718 0.264821

loop_
_geom_bond_atom_site_label_1
_geom_bond_atom_site_label_2
_ccdc_geom_bond_type
C25   H12   S    
C14   H4    S    
C29   C30   S    
C10   O9    S    
Cu2   O2    S    
C30   C31   S    
C13   H3    S    
C22   O6    A    
C17   H6    S    
Cu1   Cu2   S    
C8    C26   S    
C9    C10   A    
C12   O4    A    
C31   H24   S    
C10   C11   A    
C30   H20   S    
C21   N2    D    
C11   H2    S    
C25   C26   A    
C23   O7    A    
C22   O5    A    
C13   C14   A    
C24   C25   A    
C1    O2    A    
C26   C27   A    
C20   N1    D    
C24   Cl2   S    
C5    C6    A    
H11   N2    S    
Cu1   O7    S    
C18   H7    S    
C28   H14   S    
C1    O1    A    
C9    H17   S    
C6    C7    A    
Cu1   O1    S    
C2    H1    S    
C16   H5    S    
C2    C24   A    
C29   H18   S    
Cu2   O4    S    
C7    C12   S    
C5    C15   S    
C11   C13   A    
C7    C8    A    
Cu1   O5    S    
Cu1   N1    S    
Cu2   N2    S    
C31   H22   S    
Cu2   O8    S    
C27   H13   S    
C21   Cl1   S    
C19   H8    S    
C17   C22   S    
C20   C21   S    
C3    C8    A    
C16   C18   S    
C18   C19   D    
Cu2   O6    S    
C27   C28   A    
C23   O8    A    
C20   H9    S    
H10   N1    S    
C14   C15   A    
C4    C5    A    
C2    C28   A    
C6    H16   S    
C12   O3    A    
C4    C23   S    
C9    C15   A    
C1    C19   S    
C3    H15   S    
C29   H19   S    
C3    C4    A    
C16   C17   D    
O9    C29   S    
C31   H23   S    
Cu1   O3    S    
C30   H21   S    
