data_mof_unit_15259.cif
_audit_creation_date              2013-03-05T16:10:48-0500
_audit_creation_method            fapswitch 2.2
_symmetry_space_group_name_H-M    P1
_symmetry_Int_Tables_number       1
_space_group_crystal_system       triclinic
_cell_length_a                    22.407005
_cell_length_b                    7.096664
_cell_length_c                    19.399359
_cell_angle_alpha                 89.991592
_cell_angle_beta                  99.575223
_cell_angle_gamma                 89.991488
_cell_volume                      3041.81163

loop_
_atom_site_label
_atom_site_type_symbol
_atom_site_description
_atom_site_fract_x
_atom_site_fract_y
_atom_site_fract_z
_atom_type_partial_charge
O1    O     O_R   0.443980 0.494320 0.557430 -0.586016
O2    O     O_R   0.556020 0.994320 0.442570 -0.586008
O3    O     O_R   0.441210 0.822520 0.414610 -0.588363
O4    O     O_R   0.558790 0.322520 0.585390 -0.588304
C1    C     C_R   0.426660 0.655393 0.388783 0.947064
C2    C     C_R   0.573337 0.155340 0.611215 0.947056
O5    O     O_R   0.436920 0.823940 0.555180 -0.588180
O6    O     O_R   0.563080 0.323940 0.444820 -0.588184
O7    O     O_R   0.551700 0.995760 0.584140 -0.585233
O8    O     O_R   0.448300 0.495760 0.415860 -0.585178
C3    C     C_R   0.421641 0.655428 0.574902 0.967703
C4    C     C_R   0.578357 0.155426 0.425097 0.967715
O9    O     O_3   0.537660 0.661290 0.509340 -0.279175
O10   O     O_3   0.462340 0.161290 0.490660 -0.279187
V1    V     V_3+5 0.493010 0.935560 0.498270 1.176019
V2    V     V_3+5 0.506990 0.435560 0.501730 1.176024
H1    H     H_    0.685789 0.836404 0.266284 0.148781
H2    H     H_    0.314213 0.336372 0.733711 0.148806
C5    C     C_R   0.756836 0.942757 0.214849 -0.161636
C6    C     C_R   0.243169 0.442738 0.785153 -0.161609
H3    H     H_    0.761392 0.810937 0.188037 0.136230
H4    H     H_    0.238613 0.310900 0.811963 0.136224
C7    C     C_R   0.793600 0.096935 0.204817 0.165385
C8    C     C_R   0.206407 0.596938 0.795193 0.165422
C9    C     C_R   0.786800 0.266004 0.240299 -0.217597
C10   C     C_R   0.213208 0.766031 0.759715 -0.217596
H5    H     H_    0.815107 0.385508 0.232682 0.120677
H6    H     H_    0.184902 0.885550 0.767335 0.120667
C11   C     C_R   0.743796 0.281784 0.285780 0.044002
C12   C     C_R   0.256205 0.781806 0.714226 0.044043
C13   C     C_R   0.706836 0.125850 0.295384 0.141561
C14   C     C_R   0.293161 0.625849 0.704614 0.141563
C15   C     C_R   0.713795 0.957275 0.259592 -0.180421
C16   C     C_R   0.286207 0.457256 0.740406 -0.180433
C17   C     C_1   0.838415 0.082135 0.158485 -0.007751
C18   C     C_1   0.161591 0.582133 0.841522 -0.007724
C19   C     C_1   0.661651 0.137228 0.341537 0.003625
C20   C     C_1   0.338345 0.637231 0.658458 0.003696
C21   C     C_1   0.623880 0.146195 0.379831 -0.272090
C22   C     C_1   0.376116 0.646200 0.620166 -0.272101
C23   C     C_1   0.876154 0.071691 0.120194 -0.281424
C24   C     C_1   0.123850 0.571686 0.879811 -0.281413
C25   C     C_R   0.630821 0.162899 0.805269 0.353628
C26   C     C_R   0.369053 0.665993 0.194779 0.353828
H7    H     H_    0.544238 0.186558 0.738495 0.159524
H8    H     H_    0.455625 0.689895 0.261535 0.159379
H9    H     H_    0.717146 0.175671 0.920825 0.184305
H10   H     H_    0.282701 0.679290 0.079288 0.184220
C27   C     C_R   0.615365 0.147618 0.678415 -0.144828
C28   C     C_R   0.384623 0.647928 0.321585 -0.144870
C29   C     C_R   0.909583 0.042376 0.760484 -0.161027
C30   C     C_R   0.090493 0.540642 0.239480 -0.160904
C31   C     C_R   0.872649 0.040619 0.695427 -0.097292
C32   C     C_R   0.127457 0.538170 0.304515 -0.097337
C33   C     C_R   0.810311 0.065433 0.689613 -0.184779
C34   C     C_R   0.189767 0.563608 0.310341 -0.184805
C35   C     C_R   0.782856 0.093860 0.749472 0.121907
C36   C     C_R   0.217163 0.593421 0.250518 0.121929
C37   C     C_R   0.821355 0.096989 0.816257 0.103985
C38   C     C_R   0.178627 0.597369 0.183759 0.104005
C39   C     C_R   0.718616 0.118044 0.745195 0.074551
C40   C     C_R   0.281375 0.618259 0.254806 0.074570
C41   C     C_R   0.694242 0.141695 0.808086 -0.014623
C42   C     C_R   0.305678 0.643643 0.191950 -0.014639
C43   C     C_R   0.733672 0.149060 0.872468 -0.122446
C44   C     C_R   0.266220 0.651611 0.127601 -0.122712
C45   C     C_R   0.795696 0.126082 0.876514 -0.227830
C46   C     C_R   0.204226 0.627851 0.123540 -0.227916
C47   C     C_R   0.677695 0.120991 0.680608 -0.236466
C48   C     C_R   0.322337 0.620267 0.319372 -0.236523
C49   C     C_R   0.592552 0.168907 0.740477 -0.247877
C50   C     C_R   0.407351 0.671220 0.259555 -0.247702
C51   C     C_R   0.884952 0.070512 0.821274 -0.167822
C52   C     C_R   0.115060 0.570217 0.178726 -0.167969
H11   H     H_    0.692666 0.105800 0.630945 0.102843
H12   H     H_    0.307422 0.603662 0.369012 0.102936
H13   H     H_    0.957840 0.020923 0.763494 0.106352
H14   H     H_    0.042264 0.518580 0.236456 0.106391
H15   H     H_    0.784981 0.060294 0.637393 0.110942
H16   H     H_    0.215124 0.557874 0.362540 0.110955
H17   H     H_    0.892514 0.018537 0.648864 0.113602
H18   H     H_    0.107638 0.514999 0.351048 0.113610
H19   H     H_    0.823585 0.132028 0.927729 0.116903
H20   H     H_    0.176310 0.634355 0.072351 0.117143
O11   O     O_R   0.051730 0.724670 0.084120 -0.585711
O12   O     O_R   0.948270 0.224670 0.915880 -0.585656
O13   O     O_R   0.063080 0.393540 0.944820 -0.586495
O14   O     O_R   0.936920 0.893540 0.055180 -0.586502
C53   C     C_R   0.078232 0.562113 0.924943 0.961829
C54   C     C_R   0.921770 0.062115 0.075058 0.961785
O15   O     O_R   0.058800 0.395030 0.085390 -0.584987
O16   O     O_R   0.941200 0.895030 0.914610 -0.584997
O17   O     O_R   0.943980 0.223310 0.057440 -0.586783
O18   O     O_R   0.056020 0.723310 0.942560 -0.586835
C55   C     C_R   0.073014 0.563480 0.111231 0.912592
C56   C     C_R   0.926990 0.063532 0.888768 0.912616
O19   O     O_3   0.962360 0.556290 0.990650 -0.275061
O20   O     O_3   0.037640 0.056290 0.009350 -0.275113
V3    V     V_3+5 0.006980 0.281990 0.001730 1.171641
V4    V     V_3+5 0.993020 0.781990 0.998270 1.171583
N1    N     N_3   0.737155 0.455604 0.321751 -0.207017
H21   H     H_    0.750997 0.431136 0.375186 0.100901
H22   H     H_    0.766334 0.558047 0.307426 0.100183
N2    N     N_3   0.262835 0.955631 0.678242 -0.207003
H23   H     H_    0.248894 0.931255 0.624822 0.100881
H24   H     H_    0.233727 0.058178 0.692653 0.100192
N3    N     N_R   0.604143 0.175068 0.867566 0.234720
O21   O     O_R   0.615645 0.045875 0.915582 -0.360314
O22   O     O_R   0.559801 0.291988 0.870138 -0.342417
N4    N     N_R   0.395646 0.680398 0.132491 0.234595
O23   O     O_R   0.384623 0.551725 0.084259 -0.359771
O24   O     O_R   0.439460 0.799276 0.130052 -0.342639

loop_
_geom_bond_atom_site_label_1
_geom_bond_atom_site_label_2
_geom_bond_distance
_ccdc_geom_bond_type
C36   C40   1.438210 A    
C44   C46   1.388484 A    
C41   C43   1.405746 A    
C45   H19   1.082991 S    
N1    H21   1.045880 S    
H7    C49   1.084097 S    
C18   C24   1.217097 T    
O1    C3    1.314921 A    
O2    C4    1.314944 A    
C2    O7    1.307322 A    
N2    H24   1.045831 S    
C25   C41   1.420989 A    
C26   C42   1.420854 A    
O5    C3    1.318052 A    
C8    C18   1.458588 S    
C5    H3    1.083452 S    
C8    C10   1.404137 A    
C30   C52   1.397117 A    
C35   C37   1.432281 A    
C36   C38   1.432333 A    
O16   C56   1.315005 A    
C40   C48   1.424436 A    
C31   H17   1.082776 S    
C53   O18   1.315170 A    
C39   C41   1.427126 A    
C28   C50   1.392317 A    
N4    O23   1.301443 A    
C40   C42   1.427120 A    
C37   C45   1.401173 A    
C6    C8    1.402536 A    
C43   C45   1.388478 A    
N3    O21   1.301725 A    
C13   C15   1.404918 A    
C47   H11   1.076990 S    
C14   C20   1.461114 S    
O17   V3    1.960031 S    
H8    C50   1.084098 S    
C6    C16   1.404496 A    
O5    V1    1.971686 S    
C23   C54   1.453881 S    
O6    V2    1.971665 S    
C20   C22   1.217098 T    
C27   C47   1.402939 A    
N3    O22   1.301709 A    
H1    C15   1.083352 S    
C30   H14   1.083843 S    
N2    H23   1.045862 S    
O19   V3    2.182411 S    
C30   C32   1.389392 A    
O13   V3    1.971650 S    
C31   C33   1.393661 A    
C9    C11   1.415039 A    
C32   C34   1.393654 A    
C46   H20   1.082990 S    
O4    C2    1.307751 A    
C5    C15   1.404494 A    
C13   C19   1.461117 S    
C29   C31   1.389386 A    
C14   C16   1.404889 A    
O4    V2    1.999336 S    
C5    C7    1.402566 A    
C29   H13   1.083833 S    
O12   V3    1.985245 S    
C33   H15   1.076294 S    
O18   V4    1.960013 S    
O6    C4    1.318072 A    
C11   N1    1.437177 S    
O1    V2    1.960186 S    
C25   N3    1.437244 S    
O2    V1    1.960206 S    
H2    C16   1.083333 S    
O14   V4    1.971629 S    
O12   C56   1.314754 A    
O14   C54   1.318593 A    
C10   C12   1.415035 A    
O20   V4    2.182732 S    
O13   C53   1.318576 A    
C48   H12   1.076998 S    
C1    C28   1.476797 S    
C32   H18   1.082806 S    
O19   V4    1.739519 S    
O3    V1    1.999666 S    
O16   V4    1.999535 S    
C54   O17   1.315195 A    
N1    H22   1.045820 S    
C39   C47   1.424373 A    
C37   C51   1.424498 A    
C25   C49   1.399414 A    
C52   C55   1.481186 S    
C29   C51   1.397062 A    
C6    H4    1.083430 S    
O3    C1    1.307651 A    
C35   C39   1.438203 A    
C9    H5    1.083826 S    
C10   H6    1.083795 S    
C34   H16   1.076305 S    
C24   C53   1.453884 S    
H10   C44   1.080973 S    
C4    C21   1.453916 S    
C33   C35   1.416089 A    
C28   C48   1.402996 A    
C1    O8    1.307413 A    
C19   C21   1.217096 T    
O11   V4    1.985067 S    
O8    V2    1.989398 S    
C12   C14   1.413002 A    
O11   C55   1.314841 A    
C38   C52   1.424521 A    
C34   C36   1.416110 A    
C26   C50   1.399336 A    
C7    C9    1.404166 A    
C2    C27   1.476759 S    
O7    V1    1.989586 S    
C3    C22   1.453916 S    
C17   C23   1.217099 T    
C7    C17   1.458588 S    
N4    O24   1.301317 A    
O15   C55   1.314913 A    
C38   C46   1.401210 A    
C11   C13   1.413044 A    
O20   V3    1.739291 S    
C27   C49   1.392270 A    
O9    V2    1.739795 S    
C12   N2    1.437140 S    
O10   V1    1.739568 S    
C51   C56   1.481141 S    
O15   V3    1.999863 S    
H9    C43   1.080936 S    
C42   C44   1.405717 A    
C26   N4    1.437081 S    
