data_mof_unit_40499.cif
_audit_creation_date              2013-03-05T15:47:08-0500
_audit_creation_method            fapswitch 2.2
_symmetry_space_group_name_H-M    P1
_symmetry_Int_Tables_number       1
_space_group_crystal_system       triclinic
_cell_length_a                    10.237392
_cell_length_b                    10.751854
_cell_length_c                    13.476277
_cell_angle_alpha                 91.888177
_cell_angle_beta                  100.377002
_cell_angle_gamma                 95.813384
_cell_volume                      1449.59307669

loop_
_atom_site_label
_atom_site_type_symbol
_atom_site_description
_atom_site_fract_x
_atom_site_fract_y
_atom_site_fract_z
_atom_type_partial_charge
O1    O     O_R   0.935190 0.693030 0.507870 -0.581644
O2    O     O_R   0.064810 0.306970 0.492130 -0.568657
O3    O     O_R   0.142080 0.658430 0.482770 -0.607844
O4    O     O_R   0.857920 0.341570 0.517230 -0.638410
C1    C     C_R   0.054829 0.732958 0.497017 0.957235
C2    C     C_R   0.947883 0.267248 0.509255 0.877445
O5    O     O_R   0.969700 0.527180 0.651960 -0.596452
O6    O     O_R   0.030300 0.472820 0.348040 -0.594697
O7    O     O_R   0.176600 0.492580 0.626860 -0.575302
O8    O     O_R   0.823400 0.507420 0.373140 -0.590990
C3    C     C_R   0.092801 0.509374 0.686532 0.891936
C4    C     C_R   0.906375 0.485938 0.313894 0.931960
Zn1   Zn    Zn3+2 0.861850 0.523100 0.516760 1.057829
Zn2   Zn    Zn3+2 0.138150 0.476900 0.483240 1.076539
C5    C     C_R   0.139065 0.507562 0.796046 -0.168418
C6    C     C_R   0.850816 0.451999 0.208433 -0.154778
C7    C     C_R   0.137599 0.597351 0.962759 -0.162802
C8    C     C_R   0.795939 0.276975 0.085606 -0.166567
C9    C     C_R   0.079573 0.578177 0.861271 -0.208142
C10   C     C_R   0.882791 0.340372 0.166820 -0.230019
C11   C     C_R   0.248547 0.442375 0.835075 0.262319
C12   C     C_R   0.739291 0.507688 0.161474 0.228564
C13   C     C_R   0.306105 0.458925 0.939005 -0.026711
C14   C     C_R   0.639054 0.432308 0.093402 0.000834
C15   C     C_R   0.255129 0.545150 0.000313 0.103293
C16   C     C_R   0.671541 0.319060 0.051494 0.120687
C17   C     C_R   0.422015 0.403625 0.981614 0.074603
C18   C     C_R   0.506903 0.464392 0.067277 0.084310
C19   C     C_R   0.453499 0.548124 0.127964 -0.040491
C20   C     C_R   0.454456 0.288976 0.943944 -0.104614
C21   C     C_R   0.326153 0.583242 0.096735 -0.159436
C22   C     C_R   0.577473 0.246971 0.978948 -0.176747
H1    H     H_    0.287509 0.647378 0.145082 0.162281
H2    H     H_    0.599244 0.158257 0.948774 0.167410
H3    H     H_    0.970025 0.297646 0.201546 0.204836
H4    H     H_    0.993586 0.626105 0.832374 0.209762
H5    H     H_    0.095324 0.659467 0.010351 0.170820
H6    H     H_    0.821186 0.189864 0.055125 0.169894
H7    H     H_    0.507802 0.583922 0.201379 0.190014
H8    H     H_    0.383148 0.227905 0.890512 0.191751
H9    H     H_    0.130350 0.117636 0.554209 0.212355
H10   H     H_    0.930340 0.894521 0.580112 0.237049
C23   C     C_2   0.092417 0.866681 0.506605 -0.088855
C24   C     C_2   0.922566 0.134619 0.525728 -0.068303
C25   C     C_2   0.015211 0.937030 0.550309 -0.186396
C26   C     C_2   0.029592 0.071261 0.547367 -0.108722
H11   H     H_    0.582889 0.396937 0.458244 0.155342
H12   H     H_    0.421090 0.572657 0.571716 0.174844
N1    N     N_2   0.322180 0.446120 0.460900 -0.008750
N2    N     N_2   0.677820 0.553880 0.539100 -0.005349
C27   C     C_2   0.431511 0.505238 0.512812 0.054864
C28   C     C_2   0.570149 0.481584 0.499738 -0.008373
N3    N     N_R   0.737377 0.641889 0.171839 0.187126
O9    O     O_R   0.687998 0.701988 0.093932 -0.373231
O10   O     O_R   0.804700 0.706990 0.251072 -0.394219
N4    N     N_R   0.310352 0.373110 0.766780 0.191547
O11   O     O_R   0.428164 0.413976 0.750173 -0.388702
O12   O     O_R   0.245115 0.273974 0.716018 -0.433216
N5    N     N_3   0.788576 0.073483 0.516531 -0.401221
H13   H     H_    0.719293 0.138805 0.503408 0.209375
H14   H     H_    0.769887 0.012673 0.452179 0.228558
N6    N     N_3   0.206457 0.918527 0.467158 -0.412193
H15   H     H_    0.274992 0.966978 0.526133 0.224719
H16   H     H_    0.175434 0.981582 0.412595 0.232510
N7    N     N_R   0.664609 0.668349 0.585648 0.289185
O13   O     O_R   0.752865 0.710838 0.664363 -0.363876
O14   O     O_R   0.590346 0.746335 0.537000 -0.393796
N8    N     N_R   0.330994 0.363639 0.380983 0.276889
O15   O     O_R   0.244809 0.264678 0.360795 -0.376556
O16   O     O_R   0.398369 0.399820 0.311911 -0.444208

loop_
_geom_bond_atom_site_label_1
_geom_bond_atom_site_label_2
_geom_bond_distance
_ccdc_geom_bond_type
C15   C21   1.396114 A    
C11   N4    1.435998 S    
N2    C28   1.299695 D    
H9    C26   1.086110 S    
C21   H1    1.083993 S    
C5    C9    1.400925 A    
C16   C22   1.394151 A    
N6    H15   1.045503 S    
N1    N8    1.393833 S    
C13   C17   1.418191 A    
O7    C3    1.298293 A    
N6    H16   1.045714 S    
C8    C16   1.399087 A    
O6    C4    1.292815 A    
O7    Zn2   1.902626 S    
C7    C15   1.398203 A    
C19   H7    1.081417 S    
C11   C13   1.416175 A    
C8    H6    1.083829 S    
O3    C1    1.293626 A    
C20   H8    1.079331 S    
N5    H13   1.044766 S    
C19   C21   1.389907 A    
C2    C24   1.454879 S    
N3    O9    1.301934 A    
C24   C26   1.341185 D    
C17   C20   1.410661 A    
C20   C22   1.388439 A    
C23   C25   1.342815 D    
H11   C28   1.083875 S    
O3    Zn2   1.948362 S    
O8    C4    1.297801 A    
O1    C1    1.291493 A    
O4    C2    1.295146 A    
C18   C19   1.410855 A    
C7    C9    1.389190 A    
C14   C16   1.420061 A    
O5    C3    1.298127 A    
C12   N3    1.447523 S    
C8    C10   1.389443 A    
C9    H4    1.083377 S    
N3    O10   1.301155 A    
C1    C23   1.445582 S    
O2    Zn2   1.919680 S    
N2    N7    1.392824 S    
C12   C14   1.412380 A    
N5    H14   1.045796 S    
Zn2   N1    2.018325 S    
O1    Zn1   1.919679 S    
N7    O13   1.299796 A    
C7    H5    1.083979 S    
C24   N5    1.442124 S    
C6    C10   1.401239 A    
C27   C28   1.506783 S    
C4    C6    1.452282 S    
C5    C11   1.412493 A    
Zn1   N2    2.018325 S    
N4    O11   1.301597 A    
C23   N6    1.437910 S    
C14   C18   1.415690 A    
N8    O16   1.301669 A    
C13   C15   1.420309 A    
C17   C18   1.410189 A    
C6    C12   1.402033 A    
O5    Zn1   1.949576 S    
O6    Zn2   1.949576 S    
N1    C27   1.300264 D    
C25   C26   1.438403 S    
C10   H3    1.083654 S    
C3    C5    1.467911 S    
H10   C25   1.087418 S    
H12   C27   1.084076 S    
O2    C2    1.292672 A    
O4    Zn1   1.948362 S    
N4    O12   1.301265 A    
N8    O15   1.299573 A    
N7    O14   1.302558 A    
O8    Zn1   1.902624 S    
C22   H2    1.083966 S    
