data_mof_unit_31272.cif
_audit_creation_date              2012-12-11T15:23:39-0500
_audit_creation_method            fapswitch 2.2
_symmetry_space_group_name_H-M    P1
_symmetry_Int_Tables_number       1
_space_group_crystal_system       triclinic
_cell_length_a                    6.927831
_cell_length_b                    17.507067
_cell_length_c                    19.28555
_cell_angle_alpha                 109.500108
_cell_angle_beta                  90.282866
_cell_angle_gamma                 90.43887
_cell_volume                      2204.76600588

loop_
_atom_site_label
_atom_site_type_symbol
_atom_type_description
_atom_site_fract_x
_atom_site_fract_y
_atom_site_fract_z
_atom_type_partial_charge
O1    O     O_R   0.505810 0.439670 0.562310 -0.539972
O2    O     O_R   0.169070 0.404920 0.411210 -0.539561
O3    O     O_R   0.005550 0.560330 0.437690 -0.539816
C1    C     C_R   0.338595 0.381593 0.382941 0.708581
O4    O     O_R   0.175650 0.430000 0.560110 -0.542894
O5    O     O_R   0.012170 0.585580 0.587650 -0.539456
C2    C     C_R   0.344769 0.414701 0.581557 0.711259
O6    O     O_R   0.499180 0.414420 0.412350 -0.539313
O7    O     O_3   0.341430 0.551020 0.508860 -0.370465
V1    V     V_3+5 0.063930 0.490540 0.498360 1.410510
O8    O     O_R   0.682850 0.595080 0.588790 -0.542659
C3    C     C_R   0.852707 0.618406 0.616941 0.678998
O9    O     O_R   0.676280 0.570000 0.439890 -0.542086
C4    C     C_R   0.845061 0.585221 0.418297 0.711784
V2    V     V_3+5 0.564760 0.509460 0.501640 1.411084
O10   O     O_3   0.837130 0.448980 0.491140 -0.368280
C5    C     C_R   0.062035 0.870445 0.182576 -0.134374
C6    C     C_R   0.914754 0.865361 0.130962 -0.073848
C7    C     C_R   0.755065 0.814288 0.127294 -0.171721
C8    C     C_R   0.741606 0.767179 0.173887 0.083309
C9    C     C_R   0.890992 0.773063 0.226019 0.037117
C10   C     C_R   0.051337 0.825610 0.231037 0.069378
C11   C     C_R   0.581507 0.715137 0.170593 -0.034583
C12   C     C_R   0.570175 0.670964 0.219143 -0.198763
C13   C     C_R   0.717219 0.676386 0.270707 0.099677
C14   C     C_R   0.878927 0.726997 0.273864 0.062599
C15   C     C_R   0.028258 0.731751 0.325176 0.061568
C16   C     C_R   0.185068 0.784325 0.330146 -0.206217
C17   C     C_R   0.196009 0.832131 0.284798 0.146765
C18   C     C_R   0.705187 0.631625 0.319044 -0.191595
C19   C     C_R   0.855529 0.634793 0.369217 -0.085649
C20   C     C_R   0.017207 0.684726 0.371584 -0.198627
H1    H     H_    0.183369 0.910461 0.184953 0.149466
H2    H     H_    0.642136 0.811109 0.087364 0.128450
H3    H     H_    0.445817 0.632020 0.216604 0.139903
H4    H     H_    0.580624 0.592862 0.316517 0.127349
H5    H     H_    0.133007 0.688093 0.410565 0.124788
H6    H     H_    0.298548 0.789344 0.370353 0.154771
C21   C     C_3   0.811586 0.816832 0.741453 -0.140926
C22   C     C_3   0.981192 0.767355 0.696756 -0.139417
H7    H     H_    0.059660 0.781278 0.652293 0.105734
H8    H     H_    0.750943 0.872555 0.734882 0.101597
C23   C     C_3   0.867564 0.688639 0.687647 -0.010332
C24   C     C_3   0.697805 0.737289 0.731528 -0.118236
C25   C     C_3   0.789853 0.732523 0.803347 -0.135431
C26   C     C_3   0.959458 0.683042 0.758646 -0.135410
C27   C     C_3   0.073238 0.762586 0.768573 -0.115095
C28   C     C_3   0.903480 0.811238 0.812450 -0.007809
H9    H     H_    0.543147 0.726481 0.715732 0.107635
H10   H     H_    0.711394 0.718606 0.847816 0.111246
H11   H     H_    0.020100 0.627318 0.765218 0.106368
H12   H     H_    0.227894 0.773394 0.784374 0.107064
C29   C     C_3   0.556194 0.286157 0.274894 -0.172419
C30   C     C_3   0.503188 0.196839 0.262355 -0.046318
H13   H     H_    0.698167 0.315195 0.295093 0.134918
C31   C     C_3   0.413614 0.189028 0.187542 -0.095075
C32   C     C_3   0.463071 0.278325 0.199665 0.189379
C33   C     C_3   0.265871 0.304661 0.237397 -0.140380
C34   C     C_3   0.215474 0.214538 0.225130 -0.119486
C35   C     C_3   0.307252 0.221941 0.300772 -0.160726
C36   C     C_3   0.357579 0.311283 0.312156 -0.068224
H14   H     H_    0.166360 0.349188 0.227117 0.144503
H15   H     H_    0.073851 0.185277 0.204752 0.147036
H16   H     H_    0.242528 0.198545 0.342367 0.138071
C37   C     C_R   0.560739 0.137825 0.823980 -0.231621
C38   C     C_R   0.414200 0.142053 0.875284 -0.111545
C39   C     C_R   0.257711 0.195947 0.880958 0.104257
C40   C     C_R   0.241888 0.239021 0.830559 0.045395
C41   C     C_R   0.389955 0.232814 0.778658 0.024954
C42   C     C_R   0.550968 0.183234 0.776435 0.093844
C43   C     C_R   0.081860 0.288401 0.830450 -0.141913
C44   C     C_R   0.068904 0.330544 0.780610 -0.188964
C45   C     C_R   0.215921 0.325398 0.729869 0.093636
C46   C     C_R   0.378158 0.276962 0.729143 0.068434
C47   C     C_R   0.529028 0.272915 0.679102 0.090749
C48   C     C_R   0.688824 0.223816 0.677994 -0.181829
C49   C     C_R   0.699086 0.179003 0.725869 -0.168944
C50   C     C_R   0.203758 0.368394 0.680235 -0.218616
C51   C     C_R   0.354893 0.365856 0.631182 -0.083201
C52   C     C_R   0.517698 0.318200 0.631220 -0.212337
H17   H     H_    0.682160 0.097953 0.820309 0.134447
H18   H     H_    0.962645 0.294121 0.867616 0.174421
H19   H     H_    0.942988 0.367326 0.781820 0.137869
H20   H     H_    0.078687 0.405569 0.681089 0.121728
H21   H     H_    0.634662 0.315659 0.593382 0.130607
H22   H     H_    0.806091 0.220021 0.640042 0.138055
H23   H     H_    0.823954 0.141381 0.723686 0.132177
O11   O     O_R   0.271890 0.085690 0.087580 -0.536430
O12   O     O_R   0.595690 0.070020 0.939870 -0.532965
O13   O     O_R   0.758900 0.914390 0.912370 -0.544711
C53   C     C_R   0.425962 0.088537 0.921143 0.753409
O14   O     O_R   0.602020 0.095100 0.088770 -0.530942
O15   O     O_R   0.765280 0.939660 0.062330 -0.540620
C54   C     C_R   0.432465 0.118542 0.116893 0.738594
O16   O     O_R   0.265520 0.060430 0.937620 -0.530871
O17   O     O_3   0.429560 0.949050 0.991100 -0.378958
V3    V     V_3+5 0.707160 0.009450 0.001650 1.485346
O18   O     O_R   0.094540 0.929890 0.060190 -0.543920
C55   C     C_R   0.925652 0.914806 0.081800 0.708928
O19   O     O_R   0.088200 0.904800 0.911290 -0.545640
C56   C     C_R   0.918347 0.881501 0.883128 0.668847
V4    V     V_3+5 0.206300 0.990390 0.998440 1.463588
O20   O     O_3   0.934030 0.050940 0.008900 -0.347017
C57   C     C_1   0.636126 0.138409 0.275828 0.304153
N1    N     N_1   0.741358 0.092338 0.286287 -0.322433
I1    I     I_    0.588083 0.324063 0.120313 -0.370037
I2    I     I_    0.060323 0.221146 0.971336 -0.326053
C58   C     C_1   0.425214 0.706231 0.118455 0.307772
N2    N     N_1   0.300009 0.699052 0.076736 -0.353558
I3    I     I_    0.431617 0.915533 0.304566 -0.423830

loop_
_geom_bond_atom_site_label_1
_geom_bond_atom_site_label_2
_ccdc_geom_bond_type
C24   H9    S    
C33   H14   S    
C22   C27   S    
C9    C14   A    
C10   C17   A    
O17   V4    S    
C45   C46   A    
C7    C8    A    
C4    C19   S    
C1    O6    A    
C30   C35   S    
C29   C30   S    
C31   C32   S    
C31   C54   S    
C14   C15   A    
C30   C57   S    
C16   C17   A    
C3    C23   S    
O5    C3    A    
C18   C19   A    
C28   C56   S    
V2    O10   S    
C58   N2    T    
C6    C7    A    
O8    V2    S    
C22   C23   S    
C27   C28   S    
C40   C41   A    
C11   C12   A    
O1    V2    S    
O12   C53   A    
C47   C52   A    
O15   C55   A    
O13   V3    S    
O16   V4    S    
C43   H18   S    
C33   C36   S    
C32   I1    S    
C34   C35   S    
O9    C4    A    
C42   C49   A    
V4    O20   S    
C5    H1    S    
O19   V4    S    
C57   N1    T    
O14   V3    S    
C21   H8    S    
O11   C54   A    
C29   H13   S    
C30   C31   S    
C12   H3    S    
C46   C47   A    
C39   C40   A    
C17   I3    S    
C12   C13   A    
C21   C22   S    
O4    C2    A    
C29   C32   S    
C50   C51   A    
C13   C14   A    
O18   V4    S    
C26   H11   S    
O12   V3    S    
C35   C36   S    
C27   H12   S    
O2    C1    A    
C47   C48   A    
O13   C56   A    
C52   H21   S    
C50   H20   S    
C37   H17   S    
C19   C20   A    
C8    C11   A    
C16   H6    S    
C45   C50   A    
O17   V3    S    
O14   C54   A    
C5    C6    A    
C41   C46   A    
C20   H5    S    
C48   C49   A    
V3    O20   S    
O3    C4    A    
C22   H7    S    
O18   C55   A    
O6    V2    S    
O9    V2    S    
C23   C24   S    
C6    C55   S    
C21   C24   S    
C29   C36   S    
O2    V1    S    
O15   V3    S    
C24   C25   S    
C2    C51   S    
O7    V1    S    
C25   C28   S    
C13   C18   A    
C26   C27   S    
C15   C20   A    
O1    C2    A    
C44   C45   A    
C7    H2    S    
O5    V1    S    
O11   V4    S    
O8    C3    A    
C38   C53   S    
C34   H15   S    
C5    C10   A    
C31   C34   S    
C18   H4    S    
C35   H16   S    
C33   C34   S    
O4    V1    S    
O3    V1    S    
V1    O10   S    
C39   I2    S    
C32   C33   S    
C25   H10   S    
C40   C43   A    
C11   C58   S    
C1    C36   S    
O19   C56   A    
C38   C39   A    
O7    V2    S    
C41   C42   A    
C23   C26   S    
C44   H19   S    
C53   O16   A    
C51   C52   A    
C25   C26   S    
C43   C44   A    
C8    C9    A    
C49   H23   S    
C37   C38   A    
C48   H22   S    
C15   C16   A    
C9    C10   A    
C37   C42   A    
C21   C28   S    
