data_mof_unit_14811.cif
_audit_creation_date              2013-03-05T16:44:16-0500
_audit_creation_method            fapswitch 2.2
_symmetry_space_group_name_H-M    P1
_symmetry_Int_Tables_number       1
_space_group_crystal_system       triclinic
_cell_length_a                    23.423966
_cell_length_b                    10.662679
_cell_length_c                    9.840874
_cell_angle_alpha                 89.824123
_cell_angle_beta                  89.968328
_cell_angle_gamma                 89.821048
_cell_volume                      2457.85470826

loop_
_atom_site_label
_atom_site_type_symbol
_atom_site_description
_atom_site_fract_x
_atom_site_fract_y
_atom_site_fract_z
_atom_type_partial_charge
O1    O     O_R   0.500010 0.316790 0.614690 -0.617020
O2    O     O_R   0.500000 0.316760 0.385350 -0.620013
C1    C     C_R   0.498904 0.260099 0.500455 0.904676
O3    O     O_R   0.416160 0.499980 0.614700 -0.620050
O4    O     O_R   0.416150 0.499940 0.385360 -0.621857
C2    C     C_R   0.389289 0.498815 0.500080 0.852536
Zn1   Zn    Zn3+2 0.500000 0.500020 0.653130 0.946920
Zn2   Zn    Zn3+2 0.500000 0.499980 0.346870 0.941969
O5    O     O_R   0.500000 0.683240 0.614650 -0.614124
O6    O     O_R   0.499990 0.683210 0.385310 -0.622644
O7    O     O_R   0.583850 0.500060 0.614640 -0.624289
O8    O     O_R   0.583840 0.500020 0.385300 -0.620820
C3    C     C_R   0.496473 0.739892 0.499558 0.890208
C4    C     C_R   0.610731 0.499944 0.499937 0.873377
C5    C     C_R   0.880604 0.600871 0.495848 0.497807
N1    N     N_R   0.852266 0.489759 0.499630 -0.357139
C6    C     C_R   0.879662 0.376541 0.503345 0.493969
C7    C     C_R   0.940025 0.370745 0.502271 -0.052174
C8    C     C_R   0.969883 0.486754 0.499089 -0.052977
C9    C     C_R   0.939921 0.602026 0.495848 0.002619
C10   C     C_R   0.971987 0.255977 0.504826 0.156750
C11   C     C_R   0.031756 0.261141 0.505316 -0.190113
C12   C     C_R   0.060740 0.375424 0.502717 -0.052038
C13   C     C_R   0.029965 0.488569 0.499262 -0.022301
C14   C     C_R   0.059376 0.604029 0.495961 -0.003667
C15   C     C_R   0.028838 0.717094 0.492727 -0.165055
C16   C     C_R   0.969646 0.716081 0.492784 -0.171670
C17   C     C_R   0.120422 0.379338 0.502938 0.512966
N2    N     N_R   0.147851 0.492034 0.499651 -0.360556
C18   C     C_R   0.118974 0.603284 0.496122 0.499849
O9    O     O_2   0.851096 0.709864 0.492299 -0.563194
O10   O     O_2   0.847859 0.271669 0.508412 -0.567740
H1    H     H_    0.055983 0.174355 0.506465 0.192480
O11   O     O_2   0.150967 0.271781 0.506104 -0.551637
O12   O     O_2   0.148006 0.712443 0.493091 -0.551262
H2    H     H_    0.050513 0.806685 0.490289 0.189650
H3    H     H_    0.947269 0.805083 0.490632 0.185018
C19   C     C_R   0.237865 0.485596 0.622866 -0.106040
H4    H     H_    0.214724 0.477982 0.717821 0.133972
C20   C     C_R   0.297103 0.487570 0.623237 -0.212420
H5    H     H_    0.319313 0.481062 0.719533 0.157823
C21   C     C_R   0.327073 0.497324 0.500055 -0.039304
C22   C     C_R   0.297109 0.505193 0.376739 -0.226975
H6    H     H_    0.319317 0.512875 0.280508 0.159353
C23   C     C_R   0.237879 0.503573 0.376847 -0.103464
H7    H     H_    0.214756 0.509836 0.281790 0.133899
C24   C     C_R   0.208457 0.493640 0.499785 0.330337
C25   C     C_R   0.762200 0.492575 0.376436 -0.110433
H8    H     H_    0.785335 0.490515 0.281151 0.131074
C26   C     C_R   0.702964 0.495633 0.376266 -0.216066
H9    H     H_    0.680772 0.495678 0.279733 0.159606
C27   C     C_R   0.672983 0.498248 0.499868 -0.044070
C28   C     C_R   0.702978 0.498094 0.623415 -0.221627
H10   H     H_    0.680794 0.500134 0.719990 0.159103
C29   C     C_R   0.762218 0.495056 0.623130 -0.105576
H11   H     H_    0.785366 0.494962 0.718364 0.131930
C30   C     C_R   0.791617 0.492187 0.499751 0.340719
C31   C     C_R   0.507008 0.062548 0.618326 0.121330
C32   C     C_R   0.490902 0.129046 0.503444 -0.135304
C33   C     C_R   0.462186 0.069213 0.397498 -0.260576
H12   H     H_    0.443562 0.123843 0.315736 0.158650
C34   C     C_R   0.459250 0.938682 0.395109 0.152848
C35   C     C_R   0.487311 0.871817 0.501325 -0.138956
C36   C     C_R   0.505546 0.935243 0.616816 0.110932
C37   C     C_3   0.560018 0.923720 0.695257 -0.469043
C38   C     C_3   0.561617 0.065884 0.696619 -0.474375
H13   H     H_    0.553200 0.881878 0.797592 0.204862
H14   H     H_    0.595139 0.880725 0.634992 0.202241
H15   H     H_    0.555817 0.106155 0.799770 0.202569
H16   H     H_    0.597596 0.105940 0.636973 0.206880
C39   C     C_R   0.456412 0.444902 0.071500 0.224300
N3    N     N_R   0.499610 0.499140 0.142800 -0.107420
C40   C     C_R   0.540002 0.564596 0.071800 -0.142760
H17   H     H_    0.572911 0.614674 0.126133 0.149422
C41   C     C_R   0.540017 0.564585 0.927626 -0.133827
H18   H     H_    0.572936 0.614658 0.872883 0.145694
N4    N     N_R   0.499610 0.499180 0.857150 -0.106956
C42   C     C_R   0.456332 0.445198 0.928784 0.216687
C43   C     C_3   0.439295 0.310819 0.922855 -0.501592
C44   C     C_3   0.439799 0.310130 0.077129 -0.527622
H19   H     H_    0.395919 0.298878 0.879096 0.203177
H20   H     H_    0.472837 0.250004 0.877500 0.219561
H21   H     H_    0.396792 0.296810 0.122646 0.202454
H22   H     H_    0.474009 0.249586 0.120362 0.217907
C45   C     C_3   0.945879 0.125607 0.504970 -0.348627
C46   C     C_3   0.926516 0.087762 0.362602 -0.757959
H23   H     H_    0.904462 0.995850 0.367431 0.256547
H24   H     H_    0.896878 0.157989 0.318063 0.283967
H25   H     H_    0.964179 0.078702 0.294640 0.237724
H26   H     H_    0.977690 0.054467 0.538971 0.170918
H27   H     H_    0.911046 0.117268 0.580589 0.254421
C47   C     C_3   0.426732 0.877456 0.279656 -0.403952
C48   C     C_3   0.372294 0.815050 0.331186 -0.783468
H28   H     H_    0.350892 0.765557 0.246275 0.242012
H29   H     H_    0.381980 0.746334 0.412552 0.247463
H30   H     H_    0.342604 0.886994 0.372286 0.263638
H31   H     H_    0.413842 0.948536 0.202525 0.196899
H32   H     H_    0.453763 0.809726 0.223575 0.229041

loop_
_geom_bond_atom_site_label_1
_geom_bond_atom_site_label_2
_geom_bond_distance
_ccdc_geom_bond_type
C29   H11   1.082992 S    
C48   H28   1.110346 S    
C7    C10   1.432749 A    
C40   H17   1.081654 S    
C8    C9    1.413749 A    
C44   H22   1.111466 S    
C45   H27   1.107605 S    
C47   H32   1.107367 S    
C25   C30   1.395841 A    
N4    C42   1.362449 A    
Zn1   O7    2.000085 S    
C15   C16   1.386580 A    
N2    C18   1.364040 A    
C18   O12   1.350111 S    
N2    C24   1.419791 S    
O4    C2    1.292178 A    
C17   N2    1.364679 A    
C44   H21   1.111589 S    
C19   H4    1.082980 S    
O7    C4    1.292226 A    
C46   H24   1.108983 S    
C38   H15   1.111495 S    
C5    N1    1.360244 A    
C33   C34   1.393992 A    
C7    C8    1.423150 A    
C23   C24   1.395926 A    
O5    C3    1.284566 A    
C31   C38   1.494217 S    
C4    C27   1.458242 S    
N1    C6    1.365801 A    
C37   H13   1.111865 S    
C34   C47   1.518503 S    
C26   C27   1.404501 A    
C12   C13   1.403793 A    
Zn1   N4    2.007743 S    
C20   C21   1.404222 A    
C17   O11   1.350123 S    
C32   C33   1.397868 A    
C48   H29   1.106810 S    
C10   C11   1.401293 A    
C40   C41   1.418798 A    
O3    Zn1   2.000154 S    
C39   C44   1.490818 S    
C47   H31   1.112214 S    
C6    C7    1.415131 A    
C28   C29   1.387898 A    
C31   C36   1.358076 A    
C5    C9    1.389544 A    
C10   C45   1.520408 S    
Zn2   N3    2.008301 S    
C13   C14   1.412923 A    
O3    C2    1.292106 A    
C43   H19   1.111581 S    
C46   H23   1.110152 S    
C14   C15   1.400179 A    
C45   C46   1.528638 S    
O6    C3    1.280577 A    
C35   C36   1.392324 A    
C33   H12   1.083021 S    
O1    C1    1.278333 A    
C41   H18   1.081764 S    
C34   C35   1.423438 A    
C43   H20   1.111399 S    
C41   N4    1.367846 A    
C3    C35   1.422445 S    
Zn2   O8    2.000152 S    
C37   H14   1.112409 S    
C26   H9    1.083156 S    
C12   C17   1.398748 A    
C5    O9    1.350680 S    
C22   C23   1.387560 A    
C19   C24   1.396013 A    
C15   H2    1.083410 S    
C25   H8    1.083003 S    
O8    C4    1.292373 A    
C48   H30   1.110837 S    
C29   C30   1.395900 A    
C22   H6    1.083221 S    
C21   C22   1.404379 A    
C27   C28   1.404549 A    
C14   C18   1.396023 A    
Zn1   O5    1.988837 S    
C11   H1    1.084056 S    
C20   H5    1.083238 S    
O1    Zn1   1.991146 S    
O2    Zn2   1.988835 S    
N3    C40   1.367811 A    
C46   H25   1.110929 S    
O4    Zn2   2.000085 S    
C45   H26   1.112542 S    
C28   H10   1.083169 S    
C9    C16   1.403471 A    
C36   C37   1.496174 S    
O2    C1    1.282424 A    
C31   C32   1.384581 A    
C39   N3    1.362929 A    
C19   C20   1.387840 A    
C42   C43   1.489907 S    
C38   H16   1.112383 S    
C16   H3    1.082863 S    
C25   C26   1.387806 A    
C47   C48   1.525928 S    
C8    C13   1.407552 A    
N1    C30   1.420788 S    
C43   C44   1.518238 S    
C23   H7    1.082973 S    
Zn2   O6    1.991148 S    
C37   C38   1.516534 S    
C2    C21   1.457494 S    
C6    O10   1.346351 S    
C11   C12   1.396942 A    
C39   C42   1.404440 A    
C1    C32   1.410691 S    
