data_mof_unit_43499.cif
_audit_creation_date              2012-12-10T16:46:43-0500
_audit_creation_method            fapswitch 2.2
_symmetry_space_group_name_H-M    P1
_symmetry_Int_Tables_number       1
_space_group_crystal_system       triclinic
_cell_length_a                    15.84775
_cell_length_b                    8.689782
_cell_length_c                    7.485565
_cell_angle_alpha                 103.183445
_cell_angle_beta                  94.42649
_cell_angle_gamma                 92.688269
_cell_volume                      998.489191751

loop_
_atom_site_label
_atom_site_type_symbol
_atom_type_description
_atom_site_fract_x
_atom_site_fract_y
_atom_site_fract_z
_atom_type_partial_charge
C1    C     C_R   0.497387 0.199745 0.453122 0.884124
C2    C     C_3   0.952376 0.405856 0.635313 -0.375013
C3    C     C_3   0.917152 0.501722 0.498245 0.275383
C4    C     C_3   0.956941 0.673899 0.560277 -0.392681
C5    C     C_3   0.055074 0.675667 0.562935 0.126152
C6    C     C_1   0.824820 0.500668 0.494681 -0.096860
C7    C     C_1   0.175383 0.501738 0.507037 -0.033486
C8    C     C_1   0.250922 0.500717 0.506030 -0.107942
C9    C     C_2   0.496042 0.031596 0.427088 -0.353409
C10   C     C_2   0.503800 0.968394 0.572912 -0.346917
C11   C     C_R   0.340406 0.499747 0.501954 0.835122
C12   C     C_R   0.502549 0.800250 0.546871 0.879376
C13   C     C_R   0.659612 0.500258 0.498061 0.816089
C14   C     C_3   0.050140 0.404796 0.638009 -0.342996
C15   C     C_3   0.041693 0.427536 0.308687 -0.439559
C16   C     C_3   0.943816 0.426832 0.304292 -0.383900
C17   C     C_1   0.749178 0.500224 0.494415 -0.168180
C18   C     C_3   0.083144 0.503129 0.505830 0.240282
Cu1   Cu    Cu3+1 0.509300 0.517380 0.684380 0.965726
Cu2   Cu    Cu3+1 0.490700 0.482620 0.315620 0.959987
H1    H     H_    0.923976 0.281903 0.595147 0.169164
H2    H     H_    0.079477 0.452949 0.780948 0.205240
H3    H     H_    0.934772 0.458740 0.776337 0.173835
H4    H     H_    0.932201 0.745421 0.464272 0.148004
H5    H     H_    0.488691 0.959484 0.286791 0.180829
H6    H     H_    0.511190 0.040485 0.713203 0.177954
H7    H     H_    0.566574 0.622047 0.050799 0.220885
H8    H     H_    0.068367 0.280437 0.595256 0.176906
H9    H     H_    0.064183 0.494816 0.209469 0.182515
H10   H     H_    0.060601 0.303892 0.262973 0.196992
H11   H     H_    0.915830 0.302910 0.256767 0.178359
H12   H     H_    0.919383 0.494088 0.203390 0.170882
H13   H     H_    0.075745 0.742863 0.462086 0.139256
H14   H     H_    0.937726 0.729615 0.698922 0.199925
N1    N     N_2   0.476670 0.456430 0.038530 -0.199829
N2    N     N_2   0.523330 0.543570 0.961470 -0.236579
O1    O     O_R   0.506050 0.286130 0.619770 -0.589688
O2    O     O_R   0.490330 0.256780 0.308370 -0.596512
O3    O     O_R   0.387300 0.514690 0.655770 -0.577523
O4    O     O_R   0.371580 0.485340 0.344370 -0.585825
O5    O     O_R   0.509670 0.743220 0.691630 -0.584711
O6    O     O_R   0.493950 0.713870 0.380230 -0.588110
O7    O     O_R   0.628420 0.514660 0.655630 -0.579772
O8    O     O_R   0.612700 0.485310 0.344230 -0.590679
C19   C     C_1   0.415724 0.349020 0.928991 0.576586
N3    N     N_1   0.364438 0.258615 0.839764 -0.337201
Br1   Br    Br    0.108493 0.791065 0.803537 -0.572199

loop_
_geom_bond_atom_site_label_1
_geom_bond_atom_site_label_2
_ccdc_geom_bond_type
C15   C18   S    
Cu2   O6    S    
C12   O5    A    
C1    O1    A    
H7    N2    S    
C16   H12   S    
Cu2   O2    S    
C9    C10   D    
C14   C18   S    
Cu1   Cu2   S    
C13   C17   S    
C7    C18   S    
C10   H6    S    
C2    H1    S    
C2    C3    S    
C2    C14   S    
C9    H5    S    
C7    C8    T    
C19   N3    T    
C16   H11   S    
C11   O3    A    
C5    Br1   S    
C14   H2    S    
C10   C12   S    
C1    O2    A    
C8    C11   S    
Cu2   O4    S    
Cu1   O3    S    
Cu2   O8    S    
Cu1   O7    S    
C15   H9    S    
Cu1   N2    S    
C11   O4    A    
C4    H4    S    
C4    H14   S    
C3    C16   S    
C15   C16   S    
N1    C19   S    
Cu1   O5    S    
C13   O7    A    
C1    C9    S    
C15   H10   S    
C3    C6    S    
C2    H3    S    
C6    C17   T    
C12   O6    A    
C5    C18   S    
Cu1   O1    S    
C14   H8    S    
Cu2   N1    S    
C13   O8    A    
C3    C4    S    
N1    N2    D    
C4    C5    S    
C5    H13   S    
