data_mof_unit_17465.cif
_audit_creation_date              2012-12-11T15:31:52-0500
_audit_creation_method            fapswitch 2.2
_symmetry_space_group_name_H-M    P1
_symmetry_Int_Tables_number       1
_space_group_crystal_system       triclinic
_cell_length_a                    13.570931
_cell_length_b                    13.592066
_cell_length_c                    27.69278
_cell_angle_alpha                 90.488368
_cell_angle_beta                  90.093835
_cell_angle_gamma                 119.961939
_cell_volume                      4425.200073

loop_
_atom_site_label
_atom_site_type_symbol
_atom_type_description
_atom_site_fract_x
_atom_site_fract_y
_atom_site_fract_z
_atom_type_partial_charge
C1    C     C_R   0.619426 0.898370 0.431245 0.552943
C2    C     C_R   0.708280 0.433316 0.222293 -0.170743
C3    C     C_R   0.698870 0.416380 0.272089 -0.168984
C4    C     C_R   0.668277 0.309709 0.290755 0.007001
C5    C     C_R   0.686672 0.343742 0.190538 0.009208
C6    C     C_1   0.693764 0.364634 0.139321 0.012319
C7    C     C_1   0.651726 0.290946 0.342032 0.001576
C8    C     C_1   0.701398 0.390638 0.097397 0.019313
C9    C     C_1   0.232353 0.862732 0.382733 0.006286
C10   C     C_R   0.074642 0.768291 0.271110 -0.119590
C11   C     C_R   0.055724 0.758167 0.221176 -0.111180
C12   C     C_R   0.599906 0.218714 0.431371 0.550866
C13   C     C_R   0.250564 0.906664 0.208078 -0.102394
C14   C     C_R   0.269345 0.917030 0.258049 -0.077893
C15   C     C_R   0.181672 0.847474 0.289681 0.022882
C16   C     C_R   0.143772 0.826748 0.189507 0.024733
C17   C     C_1   0.122937 0.812828 0.138166 -0.049790
C18   C     C_1   0.204642 0.854185 0.340799 -0.041767
C19   C     C_1   0.096223 0.794140 0.096074 -0.003603
C20   C     C_1   0.634584 0.864863 0.383806 0.024932
C21   C     C_R   0.554206 0.803422 0.260631 0.343116
C22   C     C_R   0.565871 0.797112 0.210099 -0.053248
C23   C     C_R   0.279717 0.878904 0.430486 0.553141
C24   C     C_R   0.753200 0.819917 0.221787 -0.120906
C25   C     C_R   0.744120 0.829713 0.271583 -0.158301
C26   C     C_R   0.645884 0.823025 0.291059 0.069353
C27   C     C_R   0.664898 0.805069 0.190899 0.007817
C28   C     C_1   0.676830 0.796355 0.139583 -0.030218
C29   C     C_1   0.641562 0.842962 0.342081 0.023796
C30   C     C_1   0.693497 0.786765 0.097480 0.005906
C31   C     C_R   0.639698 0.279585 0.614958 -0.017282
C32   C     C_R   0.716112 0.260889 0.641970 -0.141629
C33   C     C_R   0.728266 0.283969 0.690871 -0.170940
C34   C     C_R   0.620418 0.901072 0.569046 0.539108
C35   C     C_R   0.666932 0.329111 0.713191 0.042015
C36   C     C_R   0.599216 0.359263 0.685309 0.242347
C37   C     C_R   0.585095 0.333166 0.636239 -0.090105
C38   C     C_R   0.576096 0.298841 0.793670 -0.064689
C39   C     C_R   0.585604 0.318860 0.843205 -0.099086
C40   C     C_R   0.791354 0.411057 0.836793 -0.125992
C41   C     C_R   0.781888 0.394512 0.787439 -0.122882
C42   C     C_R   0.674598 0.341913 0.765494 0.068668
C43   C     C_R   0.693638 0.378644 0.864626 0.036339
C44   C     C_R   0.224260 0.863910 0.615015 0.022350
C45   C     C_R   0.601666 0.223032 0.568376 0.541059
C46   C     C_R   0.243816 0.958768 0.642937 -0.123597
C47   C     C_R   0.217537 0.946793 0.691692 -0.121707
C48   C     C_R   0.169348 0.839533 0.712986 0.034473
C49   C     C_R   0.141304 0.743418 0.684198 -0.114895
C50   C     C_R   0.169302 0.755619 0.635512 -0.124940
C51   C     C_R   0.172409 0.752690 0.791390 -0.122508
C52   C     C_R   0.145392 0.734674 0.840120 -0.131550
C53   C     C_R   0.084808 0.875063 0.838114 -0.123375
C54   C     C_R   0.110199 0.891770 0.789347 -0.118352
C55   C     C_R   0.151028 0.828325 0.765312 0.036413
C56   C     C_R   0.279806 0.881647 0.568220 0.539301
C57   C     C_R   0.097873 0.793074 0.863384 0.023750
C58   C     C_R   0.637943 0.864586 0.616221 0.021847
C59   C     C_R   0.545335 0.773709 0.639101 -0.109382
C60   C     C_R   0.550458 0.756067 0.688005 -0.097759
C61   C     C_R   0.649107 0.827333 0.714612 0.043289
C62   C     C_R   0.744793 0.912838 0.691078 -0.111719
C63   C     C_R   0.739152 0.931674 0.642138 -0.128183
C64   C     C_R   0.707105 0.905427 0.798071 -0.141696
C65   C     C_R   0.720738 0.889384 0.846569 -0.177137
C66   C     C_R   0.612893 0.684245 0.834016 0.266178
C67   C     C_1   0.631892 0.265148 0.383912 0.021156
C68   C     C_R   0.603116 0.701709 0.785157 -0.094421
C69   C     C_R   0.652098 0.811587 0.766773 -0.016473
C70   C     C_R   0.678079 0.779323 0.864462 0.027139
C71   C     C_R   0.049148 0.761087 0.048293 0.545764
C72   C     C_R   0.714318 0.435913 0.049751 0.542132
C73   C     C_R   0.723610 0.770721 0.049586 0.542924
C74   C     C_R   0.043787 0.755741 0.910455 0.543842
C75   C     C_R   0.708364 0.429222 0.912357 0.556881
C76   C     C_R   0.717574 0.764414 0.911575 0.562189
C77   C     C_R   0.648335 0.219454 0.259213 0.271190
C78   C     C_R   0.657175 0.236375 0.208914 0.278571
Cr1   Cr    Cr6+3 0.417720 0.831920 0.499820 1.033717
Cr2   Cr    Cr6+3 0.668190 0.085770 0.500360 1.036134
Cr3   Cr    Cr6+3 0.414060 0.082260 0.499840 1.033394
Cr4   Cr    Cr6+3 0.908000 0.821090 0.979770 1.030718
Cr5   Cr    Cr6+3 0.912420 0.571130 0.979880 1.028719
Cr6   Cr    Cr6+3 0.657970 0.566940 0.980940 1.047804
H1    H     H_    0.499251 0.787800 0.185719 0.122410
H2    H     H_    0.829926 0.825456 0.207278 0.125990
H3    H     H_    0.814486 0.844220 0.294865 0.117656
H4    H     H_    0.759447 0.219607 0.626357 0.145150
H5    H     H_    0.492420 0.253303 0.777158 0.143113
H6    H     H_    0.509465 0.292604 0.864288 0.116413
H7    H     H_    0.781457 0.261230 0.711727 0.109134
H8    H     H_    0.858645 0.426770 0.766164 0.106613
H9    H     H_    0.876006 0.457838 0.852361 0.137841
H10   H     H_    0.527674 0.349951 0.615289 0.158648
H11   H     H_    0.287081 0.043514 0.628098 0.141927
H12   H     H_    0.207283 0.705401 0.773828 0.102317
H13   H     H_    0.156861 0.671544 0.858954 0.122746
H14   H     H_    0.240404 0.022275 0.713143 0.112484
H15   H     H_    0.092640 0.950322 0.770025 0.106866
H16   H     H_    0.047737 0.921015 0.855073 0.134949
H17   H     H_    0.100763 0.659313 0.699631 0.106519
H18   H     H_    0.152841 0.681280 0.614503 0.127466
H19   H     H_    0.465970 0.720644 0.620084 0.136925
H20   H     H_    0.731197 0.516368 0.208442 0.120410
H21   H     H_    0.742915 0.991159 0.784717 0.117004
H22   H     H_    0.769408 0.963103 0.869602 0.134423
H23   H     H_    0.475448 0.689653 0.705352 0.113167
H24   H     H_    0.562734 0.628878 0.761139 0.182993
H25   H     H_    0.823027 0.966547 0.710711 0.106559
H26   H     H_    0.811872 0.001985 0.625247 0.127525
H27   H     H_    0.714080 0.486173 0.296000 0.122732
H28   H     H_    0.006419 0.713631 0.295100 0.110015
H29   H     H_    0.972682 0.696066 0.207218 0.108869
H30   H     H_    0.319321 0.960009 0.184046 0.158727
H31   H     H_    0.352697 0.978070 0.272013 0.188546
O1    O     O_R   0.302900 0.805360 0.446400 -0.501564
O2    O     O_R   0.657980 0.180990 0.549630 -0.505336
O3    O     O_R   0.503420 0.197810 0.553190 -0.521290
O4    O     O_R   0.320350 0.978840 0.548910 -0.504849
O5    O     O_3   0.499990 0.999990 0.500010 -0.247330
O6    O     O_R   0.819150 0.845650 0.033320 -0.499397
O7    O     O_R   0.006060 0.815720 0.028680 -0.493331
O8    O     O_R   0.028100 0.664460 0.032550 -0.504466
O9    O     O_R   0.811290 0.477490 0.029660 -0.492712
O10   O     O_R   0.638120 0.455970 0.034270 -0.511775
O11   O     O_R   0.667540 0.672320 0.030160 -0.504072
O12   O     O_R   0.522090 0.841370 0.450730 -0.490383
O13   O     O_R   0.814460 0.840990 0.926980 -0.529336
O14   O     O_R   0.001710 0.811400 0.930110 -0.503693
O15   O     O_R   0.023410 0.659800 0.926210 -0.522567
O16   O     O_R   0.806940 0.473170 0.931090 -0.511884
O17   O     O_R   0.633420 0.451310 0.927930 -0.485416
O18   O     O_R   0.663190 0.668000 0.931580 -0.452009
O19   O     O_3   0.826130 0.653050 0.980200 -0.253209
O20   O     O_R   0.693280 0.995650 0.447220 -0.497906
O21   O     O_R   0.657260 0.178740 0.451050 -0.485157
O22   O     O_R   0.502640 0.195380 0.446850 -0.506631
O23   O     O_R   0.319630 0.976590 0.450330 -0.491470
O24   O     O_R   0.303680 0.807790 0.552740 -0.520730
O25   O     O_R   0.522820 0.843620 0.549310 -0.506179
O26   O     O_R   0.694060 0.998080 0.553560 -0.523653
Cl1   Cl    Cl    0.611214 0.084920 0.282656 -0.546969
Cl2   Cl    Cl    0.530611 0.428797 0.710111 -0.684817
Cl3   Cl    Cl    0.629904 0.123049 0.169170 -0.562484
O27   O     O_3   0.575281 0.574979 0.849969 -0.521526
C79   C     C_3   0.455380 0.515397 0.850997 -0.093372
H32   H     H_    0.418673 0.497461 0.813897 0.128182
H33   H     H_    0.422014 0.561881 0.872571 0.095962
H34   H     H_    0.426459 0.432507 0.868627 0.142024
O28   O     O_3   0.459659 0.801422 0.281059 -0.524406
C80   C     C_3   0.357609 0.710191 0.262431 -0.115624
H35   H     H_    0.361637 0.630591 0.258553 0.097661
H36   H     H_    0.334731 0.733416 0.227517 0.131915
H37   H     H_    0.288148 0.692553 0.288090 0.157976

loop_
_geom_bond_atom_site_label_1
_geom_bond_atom_site_label_2
_ccdc_geom_bond_type
C45   O3    A    
C48   C55   S    
C66   C68   A    
C21   C26   A    
Cr2   O5    S    
C34   O26   A    
C15   C18   S    
C41   C42   A    
C23   O23   A    
Cr1   O24   S    
C35   C36   A    
C24   C27   A    
C40   H9    S    
O27   C79   S    
C64   H21   S    
C66   C70   A    
C77   C78   A    
Cr6   O10   S    
Cr3   O22   S    
C38   H5    S    
Cr6   O19   S    
C47   H14   S    
C71   O8    A    
C36   C37   A    
C36   Cl2   S    
C38   C42   A    
C10   C15   A    
C33   H7    S    
C49   H17   S    
C5    C6    S    
C22   H1    S    
C61   C69   S    
C14   H31   S    
C32   H4    S    
C52   H13   S    
C25   H3    S    
C80   H37   S    
C35   C42   S    
C77   Cl1   S    
Cr5   O19   S    
C44   C50   A    
C71   O7    A    
C17   C19   T    
C23   O1    A    
C46   C47   A    
C19   C71   S    
C40   C43   A    
C46   H11   S    
C31   C32   A    
C75   O16   A    
C16   C17   S    
C66   O27   S    
C12   O21   A    
C80   H35   S    
C10   H28   S    
Cr5   O9    S    
C39   H6    S    
C13   H30   S    
C51   H12   S    
Cr1   O25   S    
C59   C60   A    
C13   C14   A    
C72   O9    A    
C43   C75   S    
C65   C70   A    
C4    C7    S    
C44   C46   A    
Cr2   O2    S    
C79   H33   S    
C20   C29   T    
C53   H16   S    
Cr6   O11   S    
Cr3   O23   S    
C12   C67   S    
Cr6   O18   S    
C8    C72   S    
C51   C52   A    
C24   C25   A    
Cr5   O15   S    
C52   C57   A    
C3    H27   S    
C56   O24   A    
C53   C57   A    
C9    C23   S    
C6    C8    T    
C58   C59   A    
C53   C54   A    
Cr3   O3    S    
Cr6   O17   S    
C31   C37   A    
C60   C61   A    
C57   C74   S    
Cr4   O19   S    
Cr5   O16   S    
C62   C63   A    
C78   Cl3   S    
C79   H34   S    
C11   C16   A    
C44   C56   S    
C47   C48   A    
Cr3   O5    S    
C2    H20   S    
Cr1   O5    S    
C14   C15   A    
C21   O28   S    
Cr4   O14   S    
Cr2   O20   S    
Cr4   O13   S    
C60   H23   S    
C48   C49   A    
C50   H18   S    
C73   O6    A    
C22   C27   A    
C74   O15   A    
C70   C76   S    
C76   O13   A    
C56   O4    A    
C54   H15   S    
C13   C16   A    
C2    C5    A    
C3    C4    A    
C65   H22   S    
C75   O17   A    
C79   H32   S    
C45   O2    A    
C58   C63   A    
C30   C73   S    
Cr1   O12   S    
C54   C55   A    
C40   C41   A    
C1    C20   S    
Cr4   O6    S    
O28   C80   S    
C68   C69   A    
C1    O12   A    
C39   C43   A    
C76   O18   A    
C64   C69   A    
Cr3   O4    S    
Cr2   O21   S    
C72   O10   A    
C59   H19   S    
C64   C65   A    
C63   H26   S    
C28   C30   T    
C2    C3    A    
C25   C26   A    
C4    C77   A    
C1    O20   A    
C32   C33   A    
Cr1   O1    S    
C38   C39   A    
C62   H25   S    
C34   O25   A    
C33   C35   A    
Cr4   O7    S    
C37   H10   S    
C51   C55   A    
C80   H36   S    
C61   C62   A    
C11   H29   S    
C10   C11   A    
C7    C67   T    
C9    C18   T    
C41   H8    S    
C26   C29   S    
C49   C50   A    
C31   C45   S    
C74   O14   A    
C27   C28   S    
C34   C58   S    
C12   O22   A    
C68   H24   S    
Cr5   O8    S    
C5    C78   A    
C21   C22   A    
C24   H2    S    
Cr2   O26   S    
C73   O11   A    
