data_mof_unit_63767.cif
_audit_creation_date              2013-03-05T16:21:31-0500
_audit_creation_method            fapswitch 2.2
_symmetry_space_group_name_H-M    P1
_symmetry_Int_Tables_number       1
_space_group_crystal_system       triclinic
_cell_length_a                    30.838144
_cell_length_b                    31.959933
_cell_length_c                    21.738346
_cell_angle_alpha                 89.599974
_cell_angle_beta                  135.168191
_cell_angle_gamma                 90.468817
_cell_volume                      15104.6904764

loop_
_atom_site_label
_atom_site_type_symbol
_atom_site_description
_atom_site_fract_x
_atom_site_fract_y
_atom_site_fract_z
_atom_type_partial_charge
O1    O     O_R   0.447840 0.000000 0.357610 -0.547950
O2    O     O_R   0.947840 0.500000 0.357610 -0.547974
O3    O     O_R   0.552190 0.000000 0.462050 -0.584923
O4    O     O_R   0.052190 0.500000 0.462050 -0.588015
C1    C     C_R   0.499819 0.999920 0.381220 0.780746
C2    C     C_R   0.999830 0.500006 0.381198 0.783357
O5    O     O_R   0.447840 0.939540 0.447780 -0.569060
O6    O     O_R   0.447840 0.060460 0.447780 -0.550898
O7    O     O_R   0.947840 0.439540 0.447780 -0.563210
O8    O     O_R   0.947840 0.560460 0.447780 -0.556145
O9    O     O_R   0.552190 0.939560 0.552210 -0.583744
O10   O     O_R   0.552190 0.060440 0.552210 -0.583810
O11   O     O_R   0.052190 0.439560 0.552210 -0.580587
O12   O     O_R   0.052190 0.560440 0.552210 -0.586294
C3    C     C_R   0.499900 0.919848 0.499883 0.807333
C4    C     C_R   0.500119 0.080147 0.500034 0.821358
C5    C     C_R   0.999902 0.419853 0.499840 0.820475
C6    C     C_R   0.000133 0.580151 0.500123 0.844754
Cu1   Cu    Cu3+1 0.438230 0.000000 0.438170 1.073065
Cu2   Cu    Cu3+1 0.938230 0.500000 0.438170 1.061263
Cu3   Cu    Cu3+1 0.561800 0.000000 0.561830 0.994148
Cu4   Cu    Cu3+1 0.061800 0.500000 0.561830 0.998950
O13   O     O_R   0.447840 0.000000 0.537950 -0.554099
O14   O     O_R   0.947840 0.500000 0.537950 -0.569242
O15   O     O_R   0.552190 0.000000 0.642390 -0.589350
O16   O     O_R   0.052190 0.500000 0.642390 -0.582098
C7    C     C_R   0.500168 0.999325 0.618921 0.788471
C8    C     C_R   0.000181 0.499700 0.618930 0.802254
C9    C     C_3   0.481500 0.736323 0.425418 -0.155891
C10   C     C_3   0.448325 0.263866 0.420355 -0.106179
C11   C     C_3   0.991988 0.236423 0.433263 -0.150024
C12   C     C_3   0.947645 0.763850 0.422017 -0.109318
C13   C     C_3   0.538496 0.764355 0.494929 -0.154929
C14   C     C_3   0.498077 0.236366 0.439799 -0.141535
C15   C     C_3   0.045769 0.264356 0.509939 -0.145183
C16   C     C_3   0.996404 0.736364 0.438912 -0.155490
H1    H     H_    0.570557 0.776625 0.491570 0.145550
H2    H     H_    0.496820 0.224670 0.390579 0.158967
H3    H     H_    0.083893 0.276605 0.519256 0.155823
H4    H     H_    0.993623 0.724694 0.388212 0.147210
H5    H     H_    0.466666 0.724603 0.364865 0.145291
H6    H     H_    0.406128 0.275795 0.355137 0.184316
H7    H     H_    0.985864 0.224765 0.379500 0.152359
H8    H     H_    0.904738 0.775753 0.357432 0.176725
H9    H     H_    0.603421 0.724270 0.625482 0.160758
H10   H     H_    0.590015 0.276671 0.535124 0.145451
H11   H     H_    0.097383 0.224129 0.638012 0.164190
H12   H     H_    0.088361 0.776697 0.531251 0.140860
C17   C     C_1   0.499660 0.874887 0.499536 -0.151704
C18   C     C_1   0.500245 0.125096 0.500095 -0.106492
C19   C     C_1   0.999681 0.374906 0.499485 -0.127510
C20   C     C_1   0.000324 0.625109 0.500490 -0.131472
C21   C     C_1   0.499559 0.625133 0.498994 -0.108756
C22   C     C_1   0.499690 0.374853 0.500153 -0.090384
C23   C     C_1   0.999511 0.125149 0.498878 -0.107838
C24   C     C_1   0.999704 0.874865 0.500307 -0.094894
C25   C     C_3   0.442537 0.763867 0.429628 -0.153175
C26   C     C_3   0.450015 0.235554 0.480197 -0.135373
C27   C     C_3   0.945683 0.264016 0.422100 -0.152813
C28   C     C_3   0.951217 0.735574 0.483698 -0.149015
C29   C     C_3   0.499530 0.791202 0.499134 0.172383
C30   C     C_3   0.499776 0.208768 0.499657 0.159379
C31   C     C_3   0.999467 0.291237 0.498785 0.165759
C32   C     C_3   0.999983 0.708789 0.500597 0.167586
C33   C     C_3   0.460571 0.735659 0.503099 -0.157373
C34   C     C_3   0.501139 0.263547 0.559499 -0.145246
C35   C     C_3   0.953073 0.235739 0.487242 -0.153823
C36   C     C_3   0.003195 0.763610 0.562170 -0.154161
C37   C     C_3   0.499533 0.708812 0.498890 0.170205
C38   C     C_3   0.499461 0.291159 0.499677 0.155185
C39   C     C_3   0.999383 0.208846 0.498419 0.164582
C40   C     C_3   0.999632 0.791179 0.500491 0.164618
C41   C     C_3   0.517565 0.763687 0.572606 -0.148255
C42   C     C_3   0.550888 0.236068 0.578941 -0.156458
C43   C     C_3   0.006857 0.263658 0.563916 -0.148475
C44   C     C_3   0.051953 0.736123 0.579063 -0.151582
C45   C     C_3   0.556527 0.736146 0.568398 -0.128255
C46   C     C_3   0.549201 0.264359 0.519103 -0.173075
C47   C     C_3   0.053161 0.236084 0.575080 -0.132191
C48   C     C_3   0.048381 0.764383 0.517382 -0.165434
C49   C     C_1   0.499562 0.837132 0.499319 -0.054676
C50   C     C_1   0.500072 0.162845 0.499890 -0.021513
C51   C     C_1   0.999567 0.337157 0.499171 -0.054532
C52   C     C_1   0.000230 0.662862 0.500611 -0.057653
C53   C     C_1   0.499541 0.662886 0.498860 -0.042332
C54   C     C_1   0.499513 0.337095 0.499938 -0.017603
C55   C     C_1   0.999429 0.162908 0.498554 -0.037826
C56   C     C_1   0.999609 0.837109 0.500414 -0.020460
H13   H     H_    0.532400 0.775405 0.633161 0.146663
H14   H     H_    0.593088 0.224171 0.644183 0.149229
H15   H     H_    0.012978 0.275324 0.617675 0.147912
H16   H     H_    0.094866 0.724253 0.643671 0.144652
H17   H     H_    0.428510 0.723389 0.506458 0.141327
H18   H     H_    0.502382 0.275182 0.608731 0.154052
H19   H     H_    0.914932 0.223506 0.477899 0.144203
H20   H     H_    0.005972 0.775283 0.612865 0.147934
H21   H     H_    0.395639 0.775732 0.372540 0.143698
H22   H     H_    0.409217 0.223216 0.464193 0.158304
H23   H     H_    0.901495 0.276009 0.359171 0.153193
H24   H     H_    0.911266 0.723226 0.469874 0.153936
C57   C     C_R   0.463559 0.025936 0.244189 0.046192
C58   C     C_R   0.961531 0.474929 0.242515 0.056352
C59   C     C_R   0.499313 0.998577 0.314568 -0.053282
C60   C     C_R   0.999539 0.501107 0.314664 -0.051187
C61   C     C_R   0.535865 0.969671 0.319189 -0.183949
C62   C     C_R   0.038994 0.528426 0.321583 -0.184052
H25   H     H_    0.563950 0.947299 0.372246 0.152317
H26   H     H_    0.069054 0.549791 0.376126 0.151295
C63   C     C_R   0.535622 0.969390 0.254091 -0.193793
C64   C     C_R   0.039014 0.528561 0.256768 -0.194491
H27   H     H_    0.563440 0.946717 0.258039 0.160352
H28   H     H_    0.068901 0.550156 0.262313 0.151251
C65   C     C_R   0.500940 0.999232 0.186108 -0.059799
C66   C     C_R   0.001589 0.500080 0.186649 -0.054387
C67   C     C_R   0.466388 0.027332 0.184942 0.083088
C68   C     C_R   0.964441 0.473333 0.183362 0.088081
C69   C     C_3   0.425701 0.064590 0.138448 -0.504819
C70   C     C_3   0.919338 0.438294 0.132841 -0.529786
C71   C     C_3   0.422293 0.063298 0.206300 -0.112282
C72   C     C_3   0.915821 0.439731 0.200575 -0.114289
H29   H     H_    0.381935 0.056809 0.070462 0.200988
H30   H     H_    0.450577 0.092127 0.144014 0.230827
H31   H     H_    0.940829 0.409618 0.135557 0.229181
H32   H     H_    0.876779 0.448328 0.065750 0.197161
C73   C     C_R   0.467087 0.028431 0.685174 0.015539
C74   C     C_R   0.970106 0.530816 0.687904 0.047026
C75   C     C_R   0.501340 0.999444 0.686671 -0.039864
C76   C     C_R   0.001447 0.500095 0.686751 -0.065747
C77   C     C_R   0.542141 0.973433 0.760360 -0.160362
C78   C     C_R   0.039880 0.472431 0.757930 -0.167908
H33   H     H_    0.571591 0.951805 0.765799 0.156662
H34   H     H_    0.067374 0.449692 0.761301 0.155162
C79   C     C_R   0.542006 0.973391 0.824802 -0.188616
C80   C     C_R   0.039864 0.472286 0.822403 -0.179181
H35   H     H_    0.571000 0.951531 0.878718 0.156777
H36   H     H_    0.067210 0.449388 0.874518 0.156779
C81   C     C_R   0.503590 0.001075 0.818178 -0.070066
C82   C     C_R   0.003460 0.501071 0.817912 -0.055122
C83   C     C_R   0.470912 0.031016 0.751968 0.117384
C84   C     C_R   0.972720 0.532111 0.753894 0.090262
C85   C     C_3   0.406453 0.046693 0.693066 -0.540031
C86   C     C_3   0.908279 0.547707 0.694817 -0.547873
C87   C     C_3   0.401372 0.042733 0.617641 -0.101581
C88   C     C_3   0.904543 0.545658 0.620623 -0.106192
H37   H     H_    0.405389 0.079363 0.709189 0.231454
H38   H     H_    0.376927 0.024638 0.690206 0.175782
H39   H     H_    0.907346 0.579932 0.712852 0.212448
H40   H     H_    0.877979 0.525173 0.689346 0.201200
O17   O     O_R   0.409740 0.500000 0.357550 -0.553729
O18   O     O_R   0.909740 0.000000 0.357550 -0.538501
O19   O     O_R   0.409840 0.500000 0.462040 -0.584885
O20   O     O_R   0.909840 0.000000 0.462040 -0.590185
C89   C     C_R   0.381418 0.500089 0.381339 0.817335
C90   C     C_R   0.881379 0.000031 0.381193 0.799659
O21   O     O_R   0.499890 0.560480 0.447700 -0.583954
O22   O     O_R   0.499890 0.439520 0.447700 -0.561810
O23   O     O_R   0.999890 0.060480 0.447700 -0.581301
O24   O     O_R   0.999890 0.939520 0.447700 -0.559235
O25   O     O_R   0.500000 0.560470 0.552180 -0.563012
O26   O     O_R   0.500000 0.439530 0.552180 -0.580465
O27   O     O_R   1.000000 0.060470 0.552180 -0.560729
O28   O     O_R   1.000000 0.939530 0.552180 -0.587223
C91   C     C_R   0.499630 0.580174 0.499438 0.851197
C92   C     C_R   0.499907 0.419821 0.500074 0.843742
C93   C     C_R   0.999649 0.080180 0.499449 0.851581
C94   C     C_R   0.999847 0.919824 0.500032 0.826383
Cu5   Cu    Cu3+1 0.499880 0.500000 0.438060 1.056220
Cu6   Cu    Cu3+1 0.999880 0.000000 0.438060 1.063686
Cu7   Cu    Cu3+1 0.500000 0.500000 0.561790 1.038759
Cu8   Cu    Cu3+1 0.000000 0.000000 0.561790 1.031751
O29   O     O_R   0.590030 0.500000 0.537810 -0.592167
O30   O     O_R   0.090030 0.000000 0.537810 -0.591170
O31   O     O_R   0.590140 0.500000 0.642300 -0.560490
O32   O     O_R   0.090140 0.000000 0.642300 -0.560165
C95   C     C_R   0.618633 0.500879 0.618801 0.857810
C96   C     C_R   0.118643 0.000959 0.618816 0.857066
O33   O     O_R   0.590180 0.965000 0.090240 -0.581194
O34   O     O_R   0.590180 0.035000 0.090240 -0.586585
O35   O     O_R   0.090180 0.465000 0.090240 -0.578378
O36   O     O_R   0.090180 0.535000 0.090240 -0.591908
C97   C     C_R   0.618888 0.000116 0.119388 0.805157
C98   C     C_R   0.118910 0.500110 0.118961 0.805493
O37   O     O_R   0.500040 0.965010 0.090190 -0.587308
O38   O     O_R   0.500040 0.034990 0.090190 -0.581235
O39   O     O_R   0.000040 0.465010 0.090190 -0.577027
O40   O     O_R   0.000040 0.534990 0.090190 -0.589373
C99   C     C_R   0.500458 0.999851 0.119335 0.800366
C100  C     C_R   0.000559 0.499914 0.119399 0.802402
Cu9   Cu    Cu3+1 0.500030 0.958570 0.000020 0.973173
Cu10  Cu    Cu3+1 0.500030 0.041430 0.000020 0.987772
Cu11  Cu    Cu3+1 0.000030 0.458570 0.000020 0.982618
Cu12  Cu    Cu3+1 0.000030 0.541430 0.000020 0.977837
O41   O     O_R   0.409890 0.965030 0.909800 -0.581331
O42   O     O_R   0.409890 0.034970 0.909800 -0.583430
O43   O     O_R   0.909890 0.465030 0.909800 -0.581981
O44   O     O_R   0.909890 0.534970 0.909800 -0.582294
O45   O     O_R   0.500040 0.965020 0.909850 -0.588263
O46   O     O_R   0.500040 0.034980 0.909850 -0.573512
O47   O     O_R   0.000040 0.465020 0.909850 -0.586819
O48   O     O_R   0.000040 0.534980 0.909850 -0.577295
C101  C     C_R   0.380979 0.999886 0.881185 0.821240
C102  C     C_R   0.880967 0.499886 0.881206 0.822929
C103  C     C_R   0.500442 0.000186 0.881437 0.798476
C104  C     C_R   0.000365 0.500180 0.881315 0.799142
C105  C     C_R   0.280958 0.472133 0.247968 0.033367
C106  C     C_R   0.780686 0.974266 0.244026 0.032222
C107  C     C_R   0.315320 0.500901 0.315435 -0.058694
C108  C     C_R   0.815235 0.001389 0.314549 -0.060940
C109  C     C_R   0.283200 0.530550 0.318353 -0.193338
C110  C     C_R   0.783204 0.030141 0.319229 -0.187120
H41   H     H_    0.308017 0.553648 0.369947 0.146503
H42   H     H_    0.808085 0.052387 0.372345 0.150413
C111  C     C_R   0.718357 0.030402 0.254164 -0.186537
C112  C     C_R   0.218356 0.530805 0.253102 -0.188455
H43   H     H_    0.694415 0.052938 0.258209 0.157462
H44   H     H_    0.194364 0.554043 0.255789 0.151235
C113  C     C_R   0.685152 0.000705 0.186100 -0.040385
C114  C     C_R   0.185213 0.500564 0.186039 -0.037909
C115  C     C_R   0.718582 0.972816 0.184663 0.007430
C116  C     C_R   0.218786 0.471558 0.186815 0.007345
C117  C     C_3   0.712451 0.935605 0.137896 -0.527518
C118  C     C_3   0.212939 0.435146 0.138678 -0.530930
C119  C     C_3   0.284135 0.435376 0.209095 0.558562
C120  C     C_3   0.783510 0.936870 0.205816 0.558535
H45   H     H_    0.688757 0.943521 0.070188 0.194981
H46   H     H_    0.693282 0.908017 0.143563 0.226567
H47   H     H_    0.190830 0.443946 0.072114 0.207805
H48   H     H_    0.192241 0.407482 0.141391 0.218195
C121  C     C_R   0.717060 0.468215 0.693673 0.035870
C122  C     C_R   0.217085 0.968743 0.692407 0.035307
C123  C     C_R   0.685265 0.501844 0.686739 -0.188074
C124  C     C_R   0.185301 0.001909 0.686798 -0.189765
C125  C     C_R   0.718551 0.532653 0.753366 0.325553
C126  C     C_R   0.218636 0.032109 0.754650 0.325113
C127  C     C_R   0.283311 0.030493 0.819961 -0.262109
C128  C     C_R   0.783223 0.531068 0.818751 -0.258184
H49   H     H_    0.309341 0.054502 0.869775 0.195007
H50   H     H_    0.809199 0.555522 0.867558 0.199790
C129  C     C_R   0.314415 0.999404 0.818401 -0.151094
C130  C     C_R   0.814381 0.499418 0.818457 -0.155857
C131  C     C_R   0.280461 0.967310 0.757388 0.139922
C132  C     C_R   0.780443 0.466841 0.758693 0.136100
C133  C     C_3   0.283993 0.950222 0.697305 -0.444850
C134  C     C_3   0.783965 0.448648 0.699277 -0.430434
C135  C     C_3   0.714143 0.450215 0.627599 -0.429331
C136  C     C_3   0.214175 0.951864 0.625662 -0.424540
H51   H     H_    0.302292 0.917809 0.715197 0.203995
H52   H     H_    0.306284 0.972288 0.686707 0.193787
H53   H     H_    0.802313 0.416244 0.718435 0.206728
H54   H     H_    0.806214 0.470154 0.687813 0.198736
H55   H     H_    0.692265 0.418712 0.605390 0.197020
H56   H     H_    0.695831 0.472662 0.574487 0.221691
H57   H     H_    0.192251 0.920397 0.602195 0.195131
H58   H     H_    0.195926 0.974924 0.573460 0.224839
C137  C     C_2   0.357929 0.053721 0.164550 0.894287
O49   O     O_2   0.345965 0.020187 0.177305 -0.573754
O50   O     O_R   0.311821 0.083609 0.110183 -0.703423
H59   H     H_    0.270636 0.073897 0.085582 0.348175
C138  C     C_2   0.453255 0.100068 0.268602 0.831815
O51   O     O_2   0.426468 0.119468 0.281822 -0.573148
O52   O     O_R   0.513105 0.111615 0.311972 -0.758473
H60   H     H_    0.529041 0.136357 0.352323 0.330753
C139  C     C_2   0.941580 0.401431 0.258820 0.830589
O53   O     O_2   0.992227 0.388037 0.295521 -0.586882
O54   O     O_R   0.907683 0.381402 0.271114 -0.732721
H61   H     H_    0.929485 0.355978 0.310474 0.330270
C140  C     C_2   0.853003 0.452877 0.159963 0.900858
O55   O     O_2   0.809597 0.428590 0.112072 -0.549683
O56   O     O_R   0.844032 0.492779 0.175255 -0.738733
H62   H     H_    0.799885 0.497636 0.143885 0.340436
C141  C     C_2   0.394998 0.083809 0.576463 0.848452
O57   O     O_2   0.426316 0.114096 0.622466 -0.592251
O58   O     O_R   0.354449 0.086907 0.485902 -0.717128
H63   H     H_    0.355113 0.115671 0.466600 0.338662
C142  C     C_2   0.354334 0.009609 0.552850 0.899214
O59   O     O_2   0.299650 0.018429 0.497899 -0.553680
O60   O     O_R   0.372552 0.968729 0.557972 -0.758256
H64   H     H_    0.336512 0.949735 0.511672 0.334591
C143  C     C_2   0.897855 0.588168 0.583723 0.892723
O61   O     O_2   0.851898 0.609007 0.547328 -0.555942
O62   O     O_R   0.943703 0.603498 0.590452 -0.775704
H65   H     H_    0.933623 0.632180 0.562937 0.331114
C144  C     C_2   0.858849 0.513308 0.551571 0.876881
O63   O     O_2   0.859445 0.477648 0.573067 -0.594555
O64   O     O_R   0.816209 0.524086 0.463120 -0.725515
H66   H     H_    0.788554 0.499784 0.423604 0.337207
N1    N     N_R   0.310835 0.445795 0.175735 0.124608
O65   O     O_R   0.291664 0.478286 0.125628 -0.360961
O66   O     O_R   0.356177 0.424000 0.199501 -0.289526
N2    N     N_R   0.311063 0.397870 0.264423 0.121156
O67   O     O_R   0.302042 0.361485 0.230353 -0.321045
O68   O     O_R   0.345498 0.400527 0.347874 -0.389318
N3    N     N_R   0.806041 0.945832 0.166102 0.132178
O69   O     O_R   0.830623 0.981872 0.176880 -0.340940
O70   O     O_R   0.798353 0.918226 0.115309 -0.307677
N4    N     N_R   0.813923 0.900914 0.265569 0.102942
O71   O     O_R   0.858862 0.881972 0.283106 -0.322734
O72   O     O_R   0.798622 0.889002 0.305516 -0.376520
N5    N     N_R   0.688306 0.567001 0.752619 0.132997
O73   O     O_R   0.640465 0.584475 0.679425 -0.378458
O74   O     O_R   0.713217 0.584477 0.825554 -0.338599
N6    N     N_R   0.188449 0.065931 0.755285 0.133600
O75   O     O_R   0.140732 0.083952 0.682820 -0.375749
O76   O     O_R   0.213342 0.082469 0.828933 -0.333199

loop_
_geom_bond_atom_site_label_1
_geom_bond_atom_site_label_2
_geom_bond_distance
_ccdc_geom_bond_type
C137  O50   1.397844 S    
C105  C116  1.352109 A    
C79   C81   1.407274 A    
C19   C51   1.206485 T    
Cu10  O46   1.972605 S    
C69   C71   1.551535 S    
C141  O57   1.223981 D    
C96   C124  1.449569 S    
C117  H45   1.112069 S    
O41   C101  1.281716 A    
C134  C135  1.519438 S    
C11   C27   1.549753 S    
C20   C52   1.206630 T    
O17   C89   1.292665 A    
C32   C52   1.467919 S    
O9    C3    1.297231 A    
O10   C4    1.298065 A    
O21   Cu5   1.945691 S    
C132  C134  1.492893 S    
N1    O66   1.301338 A    
C2    C60   1.440161 S    
C122  C136  1.493221 S    
C85   H37   1.111810 S    
O5    C3    1.297634 A    
C57   C59   1.387588 A    
C72   C140  1.513607 S    
C78   C80   1.401873 A    
O37   Cu9   1.972137 S    
O23   Cu6   1.945691 S    
O36   C98   1.280645 A    
C101  C129  1.450070 S    
C9    C37   1.536834 S    
C111  H43   1.083171 S    
C6    C20   1.436880 S    
Cu11  Cu12  2.648203 S    
O33   Cu9   1.969844 S    
C16   C48   1.549392 S    
C21   C91   1.436864 S    
Cu5   O29   1.969880 S    
C138  O52   1.398988 S    
O42   C101  1.282896 A    
C105  C119  1.495616 S    
C71   C137  1.515237 S    
Cu1   O13   1.969995 S    
O20   Cu8   1.970075 S    
C36   C40   1.536966 S    
C25   H21   1.110081 S    
C124  C126  1.420194 A    
C70   H32   1.112590 S    
C122  C124  1.394586 A    
C82   C84   1.394424 A    
C77   C79   1.403835 A    
N4    O71   1.301346 A    
C135  H56   1.112160 S    
O5    Cu1   1.944525 S    
O47   C104  1.283159 A    
C57   C67   1.351600 A    
C86   C88   1.535136 S    
O23   C93   1.297599 A    
Cu12  O44   1.969727 S    
Cu8   O32   1.972244 S    
Cu9   O45   1.969742 S    
C139  O54   1.398842 S    
C125  N5    1.438820 S    
C4    C18   1.436554 S    
C28   H24   1.110167 S    
C25   C29   1.536867 S    
C136  H57   1.111577 S    
C106  C115  1.352531 A    
C27   C31   1.536805 S    
C28   C32   1.537016 S    
C42   H14   1.110094 S    
C121  C132  1.379216 A    
C34   C38   1.536834 S    
C118  H47   1.111680 S    
O8    C6    1.296960 A    
C68   C70   1.489938 S    
O19   C89   1.290302 A    
C70   C72   1.552229 S    
Cu4   O16   1.972505 S    
O35   Cu11  1.969844 S    
C13   C29   1.536946 S    
C133  H52   1.112375 S    
C79   H35   1.083347 S    
C41   C45   1.549541 S    
C21   C53   1.206567 T    
C16   C32   1.536921 S    
C43   C47   1.549401 S    
O27   C93   1.297420 A    
C65   C67   1.385491 A    
C1    C59   1.438834 S    
C9    C13   1.549623 S    
C37   C45   1.536860 S    
C26   H22   1.110147 S    
C39   C47   1.536883 S    
Cu5   Cu7   2.687060 S    
C3    C17   1.436944 S    
C61   H25   1.083234 S    
C11   H7    1.110090 S    
C87   C141  1.517088 S    
C12   C16   1.549601 S    
Cu1   Cu3   2.686667 S    
C63   H27   1.083169 S    
C102  C130  1.450632 S    
O52   H60   1.013976 S    
C112  H44   1.083187 S    
C24   C56   1.206623 T    
C34   C42   1.549444 S    
O50   H59   1.013840 S    
C27   C35   1.549737 S    
C106  C120  1.498027 S    
C64   C66   1.411015 A    
O48   C104  1.280814 A    
C121  C135  1.493162 S    
C133  C136  1.519408 S    
Cu12  O48   1.972605 S    
C89   C107  1.437497 S    
O60   H64   1.013736 S    
C35   H19   1.110099 S    
C82   C104  1.447613 S    
O31   C95   1.292223 A    
C12   H8    1.110195 S    
N6    O76   1.301471 A    
O6    Cu1   1.942601 S    
C134  H53   1.111513 S    
C10   C14   1.549889 S    
C129  C131  1.392584 A    
C112  C114  1.412145 A    
O8    Cu2   1.942601 S    
C22   C54   1.206747 T    
O21   C91   1.297666 A    
O9    Cu3   1.941969 S    
C69   H30   1.111966 S    
C75   C77   1.407104 A    
N3    O69   1.301468 A    
O4    Cu4   1.969997 S    
C114  C116  1.386478 A    
C143  O61   1.223034 D    
C72   C139  1.516654 S    
C88   C144  1.518409 S    
C120  N4    1.468448 S    
C59   C61   1.410411 A    
C110  H42   1.083228 S    
C97   C113  1.440714 S    
O38   Cu10  1.969278 S    
C35   C43   1.549430 S    
C37   C53   1.467815 S    
C73   C75   1.393550 A    
C61   C63   1.409918 A    
C74   C76   1.396067 A    
C9    H5    1.110087 S    
C86   H39   1.112385 S    
C30   C42   1.536728 S    
C44   C48   1.549481 S    
C66   C68   1.384525 A    
C140  O55   1.223032 D    
C36   C44   1.549636 S    
C110  C111  1.409952 A    
O19   Cu7   1.970075 S    
O38   C99   1.281214 A    
O11   C5    1.297106 A    
O12   Cu4   1.943884 S    
C40   C48   1.536872 S    
C29   C49   1.467941 S    
C83   C85   1.496375 S    
C13   C45   1.549588 S    
C62   H26   1.083234 S    
C73   C87   1.502342 S    
O33   C97   1.281735 A    
N4    O72   1.302020 A    
C88   C143  1.512125 S    
C30   C50   1.467754 S    
C125  C128  1.407248 A    
C64   H28   1.083252 S    
Cu9   O41   1.971624 S    
O6    C4    1.296633 A    
C119  N2    1.467178 S    
C144  O63   1.224068 D    
C107  C109  1.410100 A    
Cu7   O31   1.972244 S    
C120  N3    1.467739 S    
H9    C45   1.110109 S    
C138  O51   1.223514 D    
C26   C30   1.536981 S    
C71   C138  1.515467 S    
C142  O59   1.223131 D    
O17   Cu5   1.972242 S    
C5    C19   1.436538 S    
C60   C62   1.410776 A    
O24   Cu6   1.942790 S    
C139  O53   1.223910 D    
C12   C40   1.536891 S    
C81   C83   1.393606 A    
C36   H20   1.110095 S    
O1    C1    1.290734 A    
O26   C92   1.298118 A    
C84   C86   1.494764 S    
C117  C120  1.547218 S    
C85   C87   1.538526 S    
O34   Cu10  1.971732 S    
C106  C108  1.386943 A    
C144  O64   1.398877 S    
C65   C99   1.441028 S    
C14   C30   1.536855 S    
C66   C100  1.439586 S    
N2    O67   1.301016 A    
C17   C49   1.206670 T    
Cu3   O15   1.972505 S    
O28   C94   1.297721 A    
C7    C75   1.447412 S    
C67   C69   1.490873 S    
O26   Cu7   1.945328 S    
O35   C98   1.281732 A    
Cu6   Cu8   2.687060 S    
C135  H55   1.111582 S    
O56   H62   1.013765 S    
C87   C142  1.518720 S    
C10   C38   1.537089 S    
O39   Cu11  1.972137 S    
O1    Cu1   1.972509 S    
O2    Cu2   1.972509 S    
O14   C8    1.293902 A    
O4    C2    1.292707 A    
H10   C46   1.110106 S    
C136  H58   1.112171 S    
C29   C41   1.536890 S    
C117  H46   1.111440 S    
C13   H1    1.110090 S    
C31   C51   1.467629 S    
C78   H34   1.083332 S    
N5    O73   1.300668 A    
O64   H66   1.013833 S    
O37   C99   1.280425 A    
O7    Cu2   1.944525 S    
N1    O65   1.302006 A    
O28   Cu8   1.945328 S    
C118  H48   1.111778 S    
C126  N6    1.438814 S    
C123  C125  1.419757 A    
C134  H54   1.112503 S    
C85   H38   1.113365 S    
C39   C55   1.468168 S    
C9    C25   1.549636 S    
C133  H51   1.111509 S    
C11   C15   1.549673 S    
C15   C47   1.549596 S    
C113  C115  1.385397 A    
C126  C127  1.407349 A    
C12   C28   1.549821 S    
O40   C100  1.279092 A    
C58   C72   1.499729 S    
C18   C50   1.206471 T    
O25   Cu7   1.942425 S    
C127  C129  1.403798 A    
C25   C33   1.549571 S    
O3    C1    1.292581 A    
C76   C78   1.406265 A    
C81   C103  1.445690 S    
C109  C112  1.409881 A    
C41   H13   1.110096 S    
C121  C123  1.394467 A    
C143  O62   1.398859 S    
C140  O56   1.398409 S    
C33   C37   1.536902 S    
C128  H50   1.083545 S    
O11   Cu4   1.941969 S    
C35   C39   1.536980 S    
C70   H31   1.111903 S    
Cu9   Cu10  2.648203 S    
O32   C96   1.292272 A    
O34   C97   1.280202 A    
Cu6   O30   1.969880 S    
C28   C36   1.549749 S    
C42   C46   1.549402 S    
C24   C94   1.436854 S    
O46   C103  1.280180 A    
C10   H6    1.110188 S    
C22   C92   1.437107 S    
C90   C108  1.438931 S    
C8    C76   1.447046 S    
C38   C46   1.537027 S    
C27   H23   1.110146 S    
O12   C6    1.297865 A    
C15   H3    1.110097 S    
H11   C47   1.110123 S    
C116  C118  1.492552 S    
O43   C102  1.281850 A    
C73   C83   1.373896 A    
C74   C84   1.379413 A    
C31   C43   1.536776 S    
C142  O60   1.398668 S    
Cu11  O47   1.969742 S    
C33   C41   1.549515 S    
C74   C88   1.504560 S    
C69   H29   1.112698 S    
C15   C31   1.536846 S    
C26   C34   1.549614 S    
Cu2   O14   1.969995 S    
O13   C7    1.293851 A    
O54   H61   1.013746 S    
C63   C65   1.411642 A    
C34   H18   1.110090 S    
O18   Cu6   1.972242 S    
C23   C55   1.206772 T    
C127  H49   1.083694 S    
O2    C2    1.291272 A    
C40   C56   1.467924 S    
Cu11  O43   1.971624 S    
C95   C123  1.449026 S    
C57   C71   1.499376 S    
C86   H40   1.112877 S    
C16   H4    1.110110 S    
O36   Cu12  1.971732 S    
C111  C113  1.411857 A    
O39   C100  1.281803 A    
C80   H36   1.083332 S    
O22   Cu5   1.942790 S    
O62   H65   1.013892 S    
O29   C95   1.294674 A    
O10   Cu3   1.943884 S    
C128  C130  1.403979 A    
C131  C133  1.492891 S    
C115  C117  1.491405 S    
C130  C132  1.392739 A    
O58   H63   1.013946 S    
C32   C44   1.536782 S    
C58   C60   1.388727 A    
N5    O74   1.301416 A    
C44   H16   1.110108 S    
C119  N1    1.467581 S    
O27   Cu8   1.942425 S    
O7    C5    1.297589 A    
O20   C90   1.292755 A    
C98   C114  1.441585 S    
O25   C91   1.297185 A    
O3    Cu3   1.969997 S    
O44   C102  1.283036 A    
C137  O49   1.223180 D    
C38   C54   1.468165 S    
C62   C64   1.409387 A    
C141  O58   1.398842 S    
N6    O75   1.300741 A    
C14   H2    1.110224 S    
Cu2   Cu4   2.686667 S    
C80   C82   1.405813 A    
C43   H15   1.110111 S    
O15   C7    1.293479 A    
O16   C8    1.293137 A    
H12   C48   1.110122 S    
N3    O70   1.301053 A    
C122  C131  1.379121 A    
C14   C46   1.549660 S    
C10   C26   1.549807 S    
C33   H17   1.110091 S    
C109  H41   1.083256 S    
O45   C103  1.282876 A    
N2    O68   1.301579 A    
O40   Cu12  1.969278 S    
C118  C119  1.548130 S    
C58   C68   1.352363 A    
Cu10  O42   1.969727 S    
O24   C94   1.297117 A    
O30   C96   1.294942 A    
O22   C92   1.296825 A    
C108  C110  1.410365 A    
O18   C90   1.291000 A    
C23   C93   1.437198 S    
C105  C107  1.384838 A    
C11   C39   1.537081 S    
C77   H33   1.083250 S    
