data_mof_unit_50715.cif
_audit_creation_date              2012-12-10T17:18:20-0500
_audit_creation_method            fapswitch 2.2
_symmetry_space_group_name_H-M    P1
_symmetry_Int_Tables_number       1
_space_group_crystal_system       triclinic
_cell_length_a                    10.16028
_cell_length_b                    10.866919
_cell_length_c                    14.92634
_cell_angle_alpha                 89.996499
_cell_angle_beta                  80.825384
_cell_angle_gamma                 95.339396
_cell_volume                      1619.70247278

loop_
_atom_site_label
_atom_site_type_symbol
_atom_type_description
_atom_site_fract_x
_atom_site_fract_y
_atom_site_fract_z
_atom_type_partial_charge
C1    C     C_R   0.556250 0.732261 0.495609 0.794788
C2    C     C_2   0.073493 0.491584 0.492106 0.652010
C3    C     C_R   0.499594 0.498950 0.672947 0.891883
C4    C     C_R   0.500915 0.502562 0.326821 0.925268
C5    C     C_R   0.399951 0.435397 0.197503 -0.198287
C6    C     C_R   0.579052 0.591324 0.803668 -0.185440
C7    C     C_R   0.501449 0.506932 0.231005 -0.185968
C8    C     C_R   0.498439 0.499516 0.768511 -0.190958
C9    C     C_R   0.599144 0.583565 0.174386 0.501654
C10   C     C_R   0.414052 0.411274 0.823827 0.523291
C11   C     C_R   0.584850 0.596995 0.082733 -0.193869
C12   C     C_R   0.443711 0.267648 0.506810 0.778832
C13   C     C_R   0.400025 0.424011 0.918234 -0.192743
C14   C     C_R   0.489128 0.515477 0.047511 -0.104041
C15   C     C_R   0.487931 0.512844 0.954130 -0.116106
C16   C     C_R   0.396105 0.434972 0.105406 -0.068271
C17   C     C_R   0.576766 0.597293 0.896505 -0.069063
C18   C     C_R   0.662765 0.688573 0.025424 0.536296
C19   C     C_R   0.301746 0.350812 0.977418 0.541777
C20   C     C_3   0.828767 0.612468 0.173091 0.161542
C21   C     C_3   0.891434 0.548627 0.244882 -0.342849
C22   C     C_3   0.038026 0.530263 0.210683 -0.802712
C23   C     C_R   0.659546 0.687735 0.932775 0.567914
C24   C     C_3   0.406828 0.202500 0.794820 0.156130
C25   C     C_3   0.546726 0.201394 0.737812 -0.509334
C26   C     C_3   0.597841 0.073836 0.739534 -0.746590
C27   C     C_R   0.300351 0.356059 0.070455 0.532733
C28   C     C_2   0.588667 0.863771 0.497681 0.504951
C29   C     C_2   0.411373 0.136007 0.515964 0.497245
C30   C     C_2   0.488185 0.934138 0.520281 -0.259788
C31   C     C_2   0.512170 0.065711 0.515727 -0.260832
C32   C     C_2   0.928189 0.514156 0.503324 0.646280
F1    F     F_    0.738583 0.781731 0.058654 -0.585852
F2    F     F_    0.883462 0.350574 0.416179 -0.526447
F3    F     F_    0.205555 0.275455 0.945889 -0.573905
F4    F     F_    0.738569 0.774683 0.878414 -0.593265
F5    F     F_    0.207268 0.281693 0.126208 -0.593362
F6    F     F_    0.281573 0.087020 0.524313 -0.580255
F7    F     F_    0.718118 0.912773 0.475020 -0.580371
F8    F     F_    0.121197 0.406718 0.431541 -0.618762
F9    F     F_    0.883251 0.607686 0.556678 -0.593997
F10   F     F_    0.111666 0.634539 0.597276 -0.504565
H1    H     H_    0.327020 0.376571 0.243476 0.243917
H2    H     H_    0.079323 0.479963 0.263004 0.321179
H3    H     H_    0.097961 0.620974 0.196681 0.254366
H4    H     H_    0.340153 0.125842 0.772245 0.218343
H5    H     H_    0.412411 0.182230 0.867073 0.164121
H6    H     H_    0.542932 0.227974 0.666827 0.231935
H7    H     H_    0.618690 0.269248 0.764801 0.243087
H8    H     H_    0.607007 0.047390 0.810006 0.286554
H9    H     H_    0.697886 0.075515 0.696606 0.301152
H10   H     H_    0.528460 0.003465 0.712607 0.252937
H11   H     H_    0.643555 0.657448 0.758136 0.232274
H12   H     H_    0.615573 0.105449 0.509317 0.241948
H13   H     H_    0.385117 0.894431 0.538845 0.240045
H14   H     H_    0.894757 0.697283 0.149288 0.237721
H15   H     H_    0.827796 0.550293 0.113557 0.112336
H16   H     H_    0.885062 0.605297 0.307144 0.251020
H17   H     H_    0.835771 0.456648 0.261772 0.279244
H18   H     H_    0.046856 0.475312 0.147640 0.289002
N1    N     N_2   0.842700 0.448880 0.462930 0.070493
N2    N     N_2   0.157300 0.551120 0.537070 0.106424
O1    O     O_R   0.431060 0.692470 0.507460 -0.638747
O2    O     O_3   0.347773 0.313934 0.783627 -0.583650
O3    O     O_R   0.568940 0.307530 0.492540 -0.635762
O4    O     O_R   0.651120 0.659650 0.483670 -0.535741
O5    O     O_R   0.348880 0.340350 0.516330 -0.524152
O6    O     O_R   0.389960 0.516440 0.644050 -0.556840
O7    O     O_R   0.610040 0.483560 0.355950 -0.604143
O8    O     O_R   0.610030 0.483620 0.620260 -0.604298
O9    O     O_R   0.389970 0.516380 0.379740 -0.595505
O10   O     O_3   0.701252 0.649262 0.211402 -0.591733
Zn1   Zn    Zn3+2 0.353060 0.521920 0.515880 1.152389
Zn2   Zn    Zn3+2 0.646940 0.478080 0.484120 1.105124

loop_
_geom_bond_atom_site_label_1
_geom_bond_atom_site_label_2
_ccdc_geom_bond_type
C29   F6    S    
O8    Zn2   S    
C1    C28   S    
C32   F9    S    
C8    C10   A    
C11   C18   A    
C21   H17   S    
O5    Zn1   S    
C26   H10   S    
C12   C29   S    
C19   C27   A    
C30   H13   S    
F10   N2    S    
C10   O2    S    
C3    O6    A    
C9    O10   S    
C20   H14   S    
C24   H4    S    
C22   H3    S    
C16   C27   A    
C28   C30   D    
C1    O4    A    
C25   C26   S    
C5    C7    A    
O7    Zn2   S    
N2    Zn1   S    
C19   F3    S    
C21   C22   S    
C24   C25   S    
C22   H18   S    
C9    C11   A    
C25   H6    S    
C17   C23   A    
C27   F5    S    
C4    C7    S    
C1    O1    A    
C2    C32   S    
C4    O7    A    
C18   F1    S    
C32   N1    D    
C24   O2    S    
C25   H7    S    
C26   H8    S    
C13   C15   A    
C5    H1    S    
C30   C31   S    
N1    Zn2   S    
C11   C14   A    
C14   C16   A    
C3    C8    S    
C13   C19   A    
C6    H11   S    
C18   C23   A    
O4    Zn2   S    
C7    C9    A    
C31   H12   S    
C21   H16   S    
C3    O8    A    
C20   C21   S    
C29   C31   D    
C23   F4    S    
C12   O3    A    
O9    Zn1   S    
C15   C17   A    
C6    C17   A    
C14   C15   A    
C20   O10   S    
C5    C16   A    
C6    C8    A    
C12   O5    A    
O1    Zn1   S    
C28   F7    S    
O6    Zn1   S    
C26   H9    S    
C24   H5    S    
C20   H15   S    
C10   C13   A    
C4    O9    A    
C22   H2    S    
O3    Zn2   S    
C2    F8    S    
C2    N2    D    
F2    N1    S    
