data_mof_unit_50469.cif
_audit_creation_date              2012-12-11T14:52:39-0500
_audit_creation_method            fapswitch 2.2
_symmetry_space_group_name_H-M    P1
_symmetry_Int_Tables_number       1
_space_group_crystal_system       triclinic
_cell_length_a                    19.127087
_cell_length_b                    11.095031
_cell_length_c                    18.741464
_cell_angle_alpha                 90.047627
_cell_angle_beta                  90.767424
_cell_angle_gamma                 90.356348
_cell_volume                      3976.79612873

loop_
_atom_site_label
_atom_site_type_symbol
_atom_type_description
_atom_site_fract_x
_atom_site_fract_y
_atom_site_fract_z
_atom_type_partial_charge
C1    C     C_R   0.270724 0.045284 0.852056 0.552727
C2    C     C_R   0.696519 0.525275 0.036986 0.244248
C3    C     C_3   0.020111 0.327406 0.066840 0.000274
C4    C     C_3   0.314295 0.845411 0.984339 -0.111943
C5    C     C_3   0.674923 0.825225 0.017301 -0.115150
C6    C     C_3   0.812827 0.334422 0.978606 -0.116480
C7    C     C_3   0.171897 0.332247 0.012332 -0.118713
C8    C     C_3   0.104118 0.635745 0.450629 -0.385875
C9    C     C_3   0.873401 0.699233 0.559211 -0.377219
C10   C     C_3   0.601705 0.127006 0.451406 -0.384458
C11   C     C_3   0.369698 0.206377 0.561017 -0.376112
C12   C     C_3   0.353307 0.458960 0.434653 -0.375572
C13   C     C_R   0.810626 0.037498 0.964262 0.297741
C14   C     C_3   0.660046 0.404910 0.553752 -0.336493
C15   C     C_3   0.853344 0.956690 0.434874 -0.374436
C16   C     C_3   0.161922 0.900995 0.553012 -0.333428
C17   C     C_3   0.431286 0.005453 0.090915 -0.366959
C18   C     C_3   0.504881 0.066346 0.940963 -0.362924
C19   C     C_3   0.919403 0.478488 0.102287 -0.347999
C20   C     C_3   0.998280 0.569369 0.948044 -0.359865
C21   C     C_3   0.384427 0.433195 0.894131 -0.094937
C22   C     C_3   0.589183 0.460997 0.077818 -0.107758
C23   C     C_3   0.880435 0.924443 0.890452 -0.096034
C24   C     C_R   0.194499 0.031385 0.035644 0.245252
C25   C     C_3   0.089344 0.958897 0.077483 -0.111157
C26   C     C_3   0.398064 0.431381 0.091527 -0.124549
C27   C     C_3   0.621867 0.381067 0.914901 -0.065756
C28   C     C_3   0.895505 0.921151 0.087174 -0.121586
C29   C     C_3   0.123097 0.880574 0.913969 -0.062909
C30   C     C_3   0.637950 0.729947 0.623737 -0.100442
C31   C     C_3   0.532510 0.543874 0.445723 -0.088445
C32   C     C_3   0.135856 0.219510 0.638450 -0.099068
C33   C     C_3   0.035670 0.043471 0.450620 -0.091494
C34   C     C_R   0.307309 0.541120 0.041948 0.312538
C35   C     C_R   0.694545 0.529832 0.960536 0.235330
C36   C     C_R   0.805399 0.034209 0.039878 0.316947
C37   C     C_R   0.193109 0.032748 0.959283 0.230783
C38   C     C_R   0.244043 0.575601 0.073269 0.036392
C39   C     C_R   0.750354 0.585776 0.923956 0.008805
C40   C     C_R   0.742782 0.071163 0.071809 0.035000
C41   C     C_R   0.727555 0.041798 0.146208 0.576119
C42   C     C_R   0.248887 0.088372 0.922416 0.003032
C43   C     C_R   0.188807 0.618488 0.031017 -0.125855
C44   C     C_R   0.800840 0.650228 0.962411 -0.236252
C45   C     C_R   0.687026 0.112217 0.029549 -0.133174
C46   C     C_R   0.296982 0.159198 0.959826 -0.242524
C47   C     C_R   0.192602 0.615424 0.958074 -0.158929
C48   C     C_R   0.800748 0.651500 0.035434 -0.248149
C49   C     C_R   0.690900 0.110265 0.956495 -0.150376
C50   C     C_R   0.294142 0.167751 0.032540 -0.253833
C51   C     C_R   0.254541 0.587315 0.924521 -0.015262
C52   C     C_R   0.770888 0.545038 0.852420 0.555350
C53   C     C_R   0.748453 0.593062 0.074104 -0.003645
C54   C     C_R   0.752674 0.081565 0.922708 -0.003416
C55   C     C_R   0.245483 0.102140 0.072026 0.005803
C56   C     C_R   0.544120 0.751405 0.550563 0.274326
C57   C     C_R   0.549139 0.737991 0.477043 0.286171
C58   C     C_R   0.050492 0.247173 0.555707 0.276038
C59   C     C_R   0.061266 0.234709 0.482559 0.275640
C60   C     C_R   0.518515 0.824780 0.430709 -0.017546
C61   C     C_R   0.498572 0.837561 0.577096 -0.014898
C62   C     C_R   0.037380 0.324280 0.435127 -0.014956
C63   C     C_R   0.227753 0.542486 0.146638 0.581424
C64   C     C_R   0.003965 0.335381 0.579197 -0.015622
C65   C     C_R   0.477997 0.916599 0.458310 -0.223143
C66   C     C_R   0.467146 0.921089 0.531018 -0.207143
C67   C     C_R   0.993263 0.414489 0.459494 -0.208316
C68   C     C_R   0.976205 0.418644 0.530842 -0.210093
C69   C     C_R   0.439831 0.817758 0.862351 0.571334
C70   C     C_R   0.554813 0.818659 0.137147 0.544994
C71   C     C_R   0.939420 0.317855 0.862329 0.567791
C72   C     C_R   0.052673 0.318428 0.137302 0.547588
C73   C     C_R   0.174994 0.573830 0.554348 -0.136975
C74   C     C_3   0.526681 0.749486 0.959385 -0.142218
C75   C     C_R   0.822439 0.605317 0.451582 -0.127592
C76   C     C_R   0.675114 0.072954 0.554624 -0.138712
C77   C     C_R   0.321232 0.110537 0.452811 -0.129682
C78   C     C_R   0.167410 0.571123 0.480958 -0.028688
C79   C     C_R   0.823380 0.608024 0.524780 -0.033005
C80   C     C_R   0.666869 0.067905 0.481382 -0.027584
C81   C     C_R   0.321059 0.113791 0.525882 -0.032577
C82   C     C_R   0.223441 0.526244 0.439124 0.050417
C83   C     C_R   0.773449 0.536127 0.561651 0.033814
C84   C     C_R   0.723103 0.024285 0.439273 0.053134
C85   C     C_3   0.488600 0.720225 0.029800 -0.097645
C86   C     C_R   0.272326 0.038766 0.562048 0.037420
C87   C     C_R   0.287982 0.494724 0.473491 -0.013606
C88   C     C_R   0.717937 0.478586 0.521900 -0.002596
C89   C     C_R   0.787995 0.993679 0.473523 -0.015427
C90   C     C_R   0.218466 0.978044 0.521693 0.004788
C91   C     C_R   0.295149 0.511259 0.546482 -0.126454
C92   C     C_R   0.714366 0.493475 0.448557 -0.065704
C93   C     C_R   0.795365 0.011227 0.546426 -0.127298
C94   C     C_R   0.215681 0.991852 0.448222 -0.062160
C95   C     C_R   0.240856 0.559821 0.585164 -0.013679
C96   C     C_3   0.026477 0.254080 0.959550 -0.149047
C97   C     C_R   0.762751 0.565070 0.415083 0.009608
C98   C     C_R   0.741118 0.060016 0.585090 -0.013311
C99   C     C_R   0.262974 0.066376 0.415417 0.011485
C100  C     C_R   0.261486 0.635887 0.851817 0.532910
C101  C     C_R   0.739433 0.635096 0.148262 0.552767
C102  C     C_R   0.760737 0.133464 0.850801 0.527970
C103  C     C_R   0.238763 0.137360 0.147450 0.561378
C104  C     C_R   0.285825 0.010144 0.637157 0.550362
C105  C     C_R   0.711607 0.003703 0.362501 0.572773
C106  C     C_R   0.786430 0.508670 0.637119 0.553296
C107  C     C_3   0.988396 0.216268 0.028714 -0.101364
C108  C     C_R   0.211893 0.504613 0.362535 0.557464
C109  C     C_R   0.470314 0.824427 0.647900 0.572710
C110  C     C_R   0.534476 0.821844 0.355215 0.567901
C111  C     C_R   0.970968 0.324050 0.648212 0.567867
C112  C     C_R   0.057832 0.319455 0.360631 0.578213
C113  C     C_R   0.257721 0.629573 0.648204 0.536868
C114  C     C_R   0.742964 0.629388 0.351303 0.562209
C115  C     C_R   0.757832 0.129815 0.648074 0.537771
C116  C     C_R   0.243019 0.129467 0.351311 0.559973
C117  C     C_3   0.463439 0.910615 0.043332 -0.015132
C118  C     C_R   0.313040 0.545759 0.966415 0.292555
C119  C     C_3   0.499675 0.939860 0.972061 0.013263
C120  C     C_3   0.956698 0.403236 0.046333 -0.017580
C121  C     C_3   0.992978 0.441364 0.976410 0.013556
C122  C     C_3   0.428059 0.801850 0.007061 0.306938
C123  C     C_3   0.560553 0.860222 0.994912 0.246707
C124  C     C_3   0.925922 0.293582 0.006658 0.309424
C125  C     C_3   0.055966 0.365586 0.998143 0.249509
C126  C     C_3   0.464808 0.828994 0.936449 0.008046
C127  C     C_3   0.524474 0.829953 0.065352 -0.006333
C128  C     C_3   0.962752 0.329506 0.937247 0.004467
Cr1   Cr    Cr6+3 0.229630 0.835900 0.747350 0.984338
Cr2   Cr    Cr6+3 0.614200 0.677120 0.250660 1.019745
Cr3   Cr    Cr6+3 0.885800 0.177120 0.749340 1.023885
Cr4   Cr    Cr6+3 0.114200 0.177120 0.250660 1.015825
Cr5   Cr    Cr6+3 0.770370 0.835900 0.252650 0.985860
Cr6   Cr    Cr6+3 0.729630 0.335900 0.747350 0.985875
Cr7   Cr    Cr6+3 0.270370 0.335900 0.252650 0.979851
Cr8   Cr    Cr6+3 0.387410 0.989850 0.750850 0.975472
Cr9   Cr    Cr6+3 0.612590 0.989850 0.249150 0.996008
Cr10  Cr    Cr6+3 0.887410 0.489850 0.750850 0.976373
Cr11  Cr    Cr6+3 0.112590 0.489850 0.249150 0.996986
Cr12  Cr    Cr6+3 0.385800 0.677120 0.749340 1.022634
H1    H     H_    0.132610 0.608062 0.586316 0.135964
H2    H     H_    0.480859 0.631002 0.054032 0.186112
H3    H     H_    0.554435 0.467562 0.415439 0.105731
H4    H     H_    0.484996 0.572327 0.415627 0.116253
H5    H     H_    0.518059 0.510946 0.499608 0.131070
H6    H     H_    0.119639 0.300979 0.668580 0.105583
H7    H     H_    0.178151 0.243173 0.600580 0.127936
H8    H     H_    0.157454 0.155094 0.677990 0.170549
H9    H     H_    0.053830 0.966316 0.418382 0.106311
H10   H     H_    0.988650 0.079413 0.422484 0.124870
H11   H     H_    0.020762 0.009266 0.504076 0.135062
H12   H     H_    0.056728 0.193917 0.924448 0.194603
H13   H     H_    0.981681 0.125772 0.051674 0.181216
H14   H     H_    0.139214 0.644189 0.053535 0.173051
H15   H     H_    0.843401 0.694801 0.936233 0.137105
H16   H     H_    0.637659 0.138335 0.052351 0.166211
H17   H     H_    0.339706 0.203470 0.933448 0.139045
H18   H     H_    0.146323 0.638346 0.927505 0.141689
H19   H     H_    0.842603 0.699370 0.061718 0.134785
H20   H     H_    0.645232 0.135763 0.925925 0.136820
H21   H     H_    0.863245 0.653406 0.423625 0.129998
H22   H     H_    0.331778 0.226009 0.057774 0.135103
H23   H     H_    0.453313 0.982113 0.423528 0.131668
H24   H     H_    0.430574 0.984625 0.551007 0.156535
H25   H     H_    0.969626 0.478549 0.423020 0.141330
H26   H     H_    0.937419 0.481272 0.547400 0.152185
H27   H     H_    0.314447 0.828398 0.926149 0.113916
H28   H     H_    0.327996 0.939752 0.995753 0.123485
H29   H     H_    0.261364 0.828136 0.004300 0.171894
H30   H     H_    0.659946 0.731187 0.009742 0.127966
H31   H     H_    0.676920 0.847158 0.074854 0.116336
H32   H     H_    0.632743 0.106806 0.586754 0.134968
H33   H     H_    0.727085 0.840512 0.994724 0.137797
H34   H     H_    0.812045 0.312860 0.921197 0.123763
H35   H     H_    0.828834 0.428890 0.984676 0.110248
H36   H     H_    0.760123 0.322861 0.000354 0.168012
H37   H     H_    0.160109 0.242121 0.991762 0.133602
H38   H     H_    0.175858 0.333193 0.071365 0.121270
H39   H     H_    0.222731 0.359376 0.990321 0.134022
H40   H     H_    0.075233 0.579729 0.411948 0.178635
H41   H     H_    0.066316 0.661889 0.492335 0.098379
H42   H     H_    0.121327 0.719667 0.423669 0.141657
H43   H     H_    0.361800 0.160219 0.425497 0.129312
H44   H     H_    0.914746 0.656838 0.592346 0.156458
H45   H     H_    0.901868 0.753402 0.519188 0.091599
H46   H     H_    0.843302 0.763456 0.592087 0.153817
H47   H     H_    0.573679 0.066782 0.414450 0.183622
H48   H     H_    0.563994 0.152117 0.493423 0.099370
H49   H     H_    0.616274 0.211253 0.423187 0.142366
H50   H     H_    0.412373 0.164945 0.592818 0.154242
H51   H     H_    0.396686 0.263404 0.521434 0.093546
H52   H     H_    0.338872 0.267503 0.595201 0.153779
H53   H     H_    0.399042 0.451441 0.471124 0.070601
H54   H     H_    0.345719 0.497959 0.572001 0.136510
H55   H     H_    0.346417 0.369781 0.409305 0.178182
H56   H     H_    0.366576 0.528495 0.394431 0.154240
H57   H     H_    0.618393 0.381363 0.514532 0.087622
H58   H     H_    0.681932 0.318852 0.569902 0.172635
H59   H     H_    0.634236 0.452842 0.597967 0.201835
H60   H     H_    0.899045 0.948259 0.471430 0.071393
H61   H     H_    0.845981 0.867488 0.409661 0.179143
H62   H     H_    0.867377 0.025842 0.394676 0.156989
H63   H     H_    0.120371 0.877236 0.513837 0.088386
H64   H     H_    0.185511 0.815576 0.567649 0.170462
H65   H     H_    0.671744 0.455084 0.417487 0.136597
H66   H     H_    0.135526 0.946028 0.597900 0.203188
H67   H     H_    0.406573 0.071645 0.056024 0.114142
H68   H     H_    0.392978 0.964044 0.127625 0.176698
H69   H     H_    0.471901 0.055971 0.121310 0.151388
H70   H     H_    0.529693 0.128028 0.980509 0.099054
H71   H     H_    0.535979 0.064621 0.891485 0.162513
H72   H     H_    0.451781 0.099919 0.928004 0.130583
H73   H     H_    0.938137 0.573221 0.100706 0.114411
H74   H     H_    0.862654 0.472342 0.094440 0.155711
H75   H     H_    0.928233 0.441514 0.156489 0.174704
H76   H     H_    0.846011 0.998350 0.571868 0.137147
H77   H     H_    0.020954 0.629624 0.989687 0.105346
H78   H     H_    0.031700 0.571116 0.900175 0.158999
H79   H     H_    0.945735 0.601419 0.932841 0.129658
H80   H     H_    0.415719 0.363681 0.922090 0.077822
H81   H     H_    0.413980 0.457259 0.845591 0.161883
H82   H     H_    0.333260 0.394092 0.876213 0.090992
H83   H     H_    0.560481 0.373838 0.078099 0.099311
H84   H     H_    0.568703 0.514309 0.032464 0.138325
H85   H     H_    0.577750 0.506845 0.128672 0.170697
H86   H     H_    0.914899 0.856415 0.915706 0.082978
H87   H     H_    0.174052 0.951066 0.416670 0.136577
H88   H     H_    0.906187 0.950669 0.840056 0.161629
H89   H     H_    0.828933 0.882567 0.876161 0.091360
H90   H     H_    0.063320 0.869599 0.081502 0.101867
H91   H     H_    0.066690 0.005026 0.030468 0.141549
H92   H     H_    0.077249 0.009261 0.126627 0.172397
H93   H     H_    0.367751 0.372490 0.127098 0.162272
H94   H     H_    0.449395 0.443655 0.118446 0.102654
H95   H     H_    0.407390 0.387871 0.039543 0.105625
H96   H     H_    0.669771 0.328997 0.923778 0.141908
H97   H     H_    0.602961 0.362651 0.859733 0.148665
H98   H     H_    0.554514 0.684150 0.925519 0.202311
H99   H     H_    0.580524 0.349919 0.951407 0.100412
H100  H     H_    0.865591 0.863936 0.123935 0.165498
H101  H     H_    0.948078 0.931255 0.111725 0.100945
H102  H     H_    0.901821 0.876834 0.034851 0.108329
H103  H     H_    0.172136 0.831459 0.922784 0.144149
H104  H     H_    0.104260 0.860923 0.858923 0.150489
H105  H     H_    0.082614 0.847033 0.950776 0.099003
H106  H     H_    0.624475 0.813184 0.653676 0.104812
H107  H     H_    0.675744 0.751482 0.580811 0.134986
H108  H     H_    0.664088 0.668426 0.662053 0.167176
O1    O     O_R   0.214270 0.709000 0.827470 -0.560503
O2    O     O_R   0.543270 0.717630 0.330160 -0.477559
O3    O     O_R   0.956730 0.217630 0.669840 -0.470947
O4    O     O_R   0.043270 0.217630 0.330160 -0.482903
O5    O     O_R   0.320620 0.625640 0.672920 -0.513684
O6    O     O_R   0.679380 0.625640 0.327080 -0.472535
O7    O     O_R   0.820620 0.125640 0.672920 -0.513811
O8    O     O_R   0.179380 0.125640 0.327080 -0.483754
O9    O     O_3   0.334280 0.834290 0.749180 -0.287444
O10   O     O_3   0.665720 0.834290 0.250820 -0.293308
O11   O     O_3   0.834280 0.334290 0.749180 -0.289285
O12   O     O_R   0.785730 0.709000 0.172530 -0.558971
O13   O     O_3   0.165720 0.334290 0.250820 -0.305276
O14   O     O_R   0.236160 0.958490 0.823130 -0.482587
O15   O     O_R   0.763840 0.958490 0.176870 -0.494371
O16   O     O_R   0.736160 0.458490 0.823130 -0.479830
O17   O     O_R   0.263840 0.458490 0.176870 -0.496369
O18   O     O_R   0.332080 0.075470 0.831280 -0.546473
O19   O     O_R   0.667920 0.075470 0.168720 -0.523790
O20   O     O_R   0.832080 0.575470 0.831280 -0.547214
O21   O     O_R   0.167920 0.575470 0.168720 -0.518992
O22   O     O_R   0.446300 0.918110 0.826620 -0.514536
O23   O     O_R   0.714270 0.209000 0.827470 -0.561516
O24   O     O_R   0.553700 0.918110 0.173380 -0.502832
O25   O     O_R   0.946300 0.418110 0.826620 -0.513744
O26   O     O_R   0.053700 0.418110 0.173380 -0.497545
O27   O     O_R   0.457110 0.716200 0.831760 -0.487742
O28   O     O_R   0.542890 0.716200 0.168240 -0.534057
O29   O     O_R   0.957110 0.216200 0.831760 -0.486077
O30   O     O_R   0.042890 0.216200 0.168240 -0.534720
O31   O     O_R   0.320980 0.624310 0.823030 -0.487639
O32   O     O_R   0.679020 0.624310 0.176970 -0.501382
O33   O     O_R   0.820980 0.124310 0.823030 -0.486996
O34   O     O_R   0.285730 0.209000 0.172530 -0.557160
O35   O     O_R   0.179020 0.124310 0.176970 -0.498522
O36   O     O_R   0.213890 0.710430 0.665540 -0.547052
O37   O     O_R   0.786110 0.710430 0.334460 -0.553947
O38   O     O_R   0.713890 0.210430 0.665540 -0.547582
O39   O     O_R   0.286110 0.210430 0.334460 -0.554176
O40   O     O_R   0.235810 0.959820 0.673020 -0.515459
O41   O     O_R   0.764190 0.959820 0.326980 -0.505566
O42   O     O_R   0.735810 0.459820 0.673020 -0.513199
O43   O     O_R   0.264190 0.459820 0.326980 -0.505367
O44   O     O_R   0.331700 0.076900 0.669350 -0.535847
O45   O     O_R   0.445950 0.919440 0.676520 -0.528471
O46   O     O_R   0.668300 0.076900 0.330650 -0.524662
O47   O     O_R   0.831700 0.576900 0.669350 -0.534406
O48   O     O_R   0.168300 0.576900 0.330650 -0.527704
O49   O     O_3   0.359274 0.767836 0.020351 -0.527472
O50   O     O_3   0.628254 0.898515 0.980808 -0.581546
O51   O     O_3   0.857021 0.257231 0.016285 -0.529705
O52   O     O_3   0.122238 0.413560 0.988255 -0.586090
O53   O     O_3   0.379271 0.537065 0.937591 -0.526103
O54   O     O_3   0.660988 0.436239 0.073907 -0.572686
O55   O     O_3   0.876687 0.026973 0.935201 -0.524053
O56   O     O_R   0.554050 0.919440 0.323480 -0.533222
O57   O     O_3   0.161690 0.939856 0.073076 -0.574551
O58   O     O_3   0.366727 0.545076 0.085168 -0.514786
O59   O     O_3   0.633482 0.505525 0.922192 -0.592260
O60   O     O_3   0.865381 0.035944 0.082277 -0.514622
O61   O     O_3   0.132401 0.005589 0.921048 -0.592401
O62   O     O_3   0.577930 0.671565 0.595576 -0.558169
O63   O     O_3   0.582594 0.637775 0.450817 -0.524420
O64   O     O_3   0.078911 0.164095 0.602480 -0.558209
O65   O     O_3   0.090008 0.130146 0.456749 -0.539626
O66   O     O_R   0.945950 0.419440 0.676520 -0.527709
O67   O     O_R   0.054050 0.419440 0.323480 -0.535458
O68   O     O_R   0.456730 0.717630 0.669840 -0.471790

loop_
_geom_bond_atom_site_label_1
_geom_bond_atom_site_label_2
_ccdc_geom_bond_type
C104  O44   A    
C87   C91   A    
C22   H85   S    
Cr11  O21   S    
C30   H108  S    
C18   H70   S    
C59   O65   S    
C117  C119  S    
C108  O43   A    
Cr3   O7    S    
C76   C98   A    
C82   C87   A    
C51   C118  A    
C56   C57   A    
C7    H37   S    
C11   H52   S    
C37   C42   A    
Cr2   O10   S    
C21   H80   S    
C49   H20   S    
C81   C86   A    
C74   C123  S    
C12   H56   S    
C28   H102  S    
C107  C124  S    
Cr10  O66   S    
C114  O6    A    
Cr1   O1    S    
C25   H90   S    
C102  O23   A    
C105  O46   A    
C121  C128  S    
C58   O64   S    
C86   C90   A    
C99   C116  S    
C10   C80   S    
C6    H34   S    
C4    H28   S    
Cr5   O41   S    
C5    O50   S    
C8    H40   S    
C41   O15   A    
C84   C105  S    
C29   H103  S    
C2    O54   S    
C63   O17   A    
C124  O51   S    
C21   H81   S    
C94   H87   S    
Cr2   O6    S    
Cr5   O10   S    
C60   C65   A    
C100  O1    A    
C71   C128  S    
C41   O19   A    
C73   C95   A    
Cr1   O14   S    
C13   C54   A    
C116  O8    A    
C91   H54   S    
C30   H106  S    
C17   H68   S    
C2    C53   A    
C4    H27   S    
C119  C123  S    
Cr4   O30   S    
C14   H59   S    
C11   H50   S    
C3    C72   S    
C14   C88   S    
C38   C43   A    
C9    H44   S    
C33   H9    S    
C109  O45   A    
C71   O25   A    
C72   O30   A    
C31   H3    S    
C105  O41   A    
C34   O58   S    
Cr4   O8    S    
C31   H5    S    
C119  C126  S    
Cr4   O35   S    
Cr12  O5    S    
C16   H64   S    
C75   C79   A    
C44   C48   A    
C68   H26   S    
C8    H41   S    
C34   C118  A    
C25   H92   S    
C83   C88   A    
C50   H22   S    
C20   H77   S    
C101  O32   A    
C20   H78   S    
C86   C104  S    
C106  O47   A    
C32   H7    S    
C64   C68   A    
C22   O54   S    
Cr1   O9    S    
C6    O51   S    
Cr11  O48   S    
C96   H12   S    
Cr9   O56   S    
Cr8   O18   S    
C9    C79   S    
C24   O57   S    
C76   H32   S    
C33   O65   S    
C92   H65   S    
C77   H43   S    
C69   O22   A    
Cr5   O12   S    
C10   H48   S    
C5    H30   S    
C82   C108  S    
C43   H14   S    
C19   H75   S    
C67   H25   S    
C112  O67   A    
C93   H76   S    
C28   O60   S    
C102  O33   A    
Cr7   O34   S    
C15   H61   S    
Cr3   O3    S    
C92   C97   A    
C58   C64   A    
C48   C53   A    
C69   O27   A    
C14   H57   S    
Cr12  O9    S    
C10   H49   S    
C70   O28   A    
C57   O63   S    
C9    H46   S    
C33   H11   S    
C125  O52   S    
C31   O63   S    
C22   H84   S    
C32   O64   S    
C19   H73   S    
C74   H98   S    
C117  C122  S    
C121  C125  S    
C15   C89   S    
C123  C127  S    
C65   H23   S    
C24   C37   A    
C66   H24   S    
Cr11  O26   S    
C45   H16   S    
C23   H89   S    
C107  H13   S    
C56   O62   S    
C27   H96   S    
C104  O40   A    
Cr11  O67   S    
Cr11  O13   S    
C100  O31   A    
C20   H79   S    
Cr2   O28   S    
Cr3   O33   S    
C120  C121  S    
C51   C100  S    
Cr5   O15   S    
C5    H33   S    
C76   C80   A    
Cr10  O47   S    
C39   C44   A    
C75   H21   S    
C122  O49   S    
C26   O58   S    
C18   H71   S    
C63   O21   A    
C109  O68   A    
C15   H60   S    
C98   C115  S    
C43   C47   A    
C77   C99   A    
C11   H51   S    
C74   C85   S    
C89   C93   A    
C113  O36   A    
C91   C95   A    
C1    O14   A    
Cr8   O9    S    
C97   C114  S    
C18   C119  S    
C70   C127  S    
C16   C90   S    
C12   H53   S    
C80   C84   A    
C23   H88   S    
C27   H99   S    
C73   H1    S    
C7    O52   S    
C110  O2    A    
C71   O29   A    
C72   O26   A    
Cr12  O27   S    
Cr9   O46   S    
C17   H69   S    
C106  O42   A    
C35   O59   S    
C32   H6    S    
C6    H35   S    
C75   C97   A    
C96   C128  S    
C116  O39   A    
C42   C46   A    
C1    O18   A    
C53   C101  S    
Cr6   O11   S    
Cr6   O38   S    
C103  O34   A    
C17   C117  S    
C124  C128  S    
C29   O61   S    
C90   C94   A    
C25   O57   S    
C40   C45   A    
C52   O16   A    
C113  O5    A    
C21   H82   S    
Cr10  O25   S    
C67   C68   A    
C17   H67   S    
C30   H107  S    
C111  O66   A    
C47   C51   A    
C58   C59   A    
C118  O53   S    
Cr1   O36   S    
C35   C39   A    
C45   C49   A    
C85   C122  S    
C117  C127  S    
Cr3   O11   S    
C96   C107  S    
Cr5   O37   S    
Cr8   O44   S    
C12   H55   S    
C4    O49   S    
C23   H86   S    
C27   H97   S    
C38   C63   S    
C8    H42   S    
Cr10  O11   S    
C25   H91   S    
Cr6   O16   S    
C29   H105  S    
C54   C102  S    
Cr6   O42   S    
C64   C111  S    
C32   H8    S    
C16   H66   S    
C36   O60   S    
C83   C106  S    
C28   H100  S    
C79   C83   A    
Cr10  O20   S    
C29   H104  S    
C27   O59   S    
Cr2   O32   S    
Cr3   O29   S    
C60   C110  S    
Cr8   O45   S    
C1    C42   S    
C62   C112  S    
C7    H38   S    
C56   C61   A    
C26   H95   S    
C110  O56   A    
C61   C109  S    
C108  O48   A    
Cr9   O10   S    
C11   C81   S    
C24   C55   A    
C14   H58   S    
C62   C67   A    
C9    H45   S    
C33   H10   S    
C115  O38   A    
C111  O3    A    
C49   C54   A    
Cr12  O68   S    
C101  O12   A    
C55   C103  S    
C31   H4    S    
C78   C82   A    
C61   C66   A    
C88   C92   A    
C73   C78   A    
C77   C81   A    
C16   H63   S    
C69   C126  S    
C39   C52   S    
C8    C78   S    
Cr12  O31   S    
C103  O35   A    
Cr9   O24   S    
C112  O4    A    
Cr2   O2    S    
C48   H19   S    
C4    H29   S    
C36   C40   A    
C13   C36   A    
C2    C35   A    
C3    C107  S    
Cr6   O23   S    
C46   H17   S    
C122  C126  S    
C18   H72   S    
C70   O24   A    
C10   H47   S    
C5    H31   S    
C7    H39   S    
C30   O62   S    
C20   C121  S    
C26   H93   S    
C40   C41   S    
C52   O20   A    
Cr7   O13   S    
C85   C127  S    
C123  O50   S    
Cr7   O39   S    
C84   C89   A    
C15   H62   S    
Cr4   O4    S    
Cr7   O17   S    
C59   C62   A    
C12   C87   S    
C34   C38   A    
C44   H15   S    
Cr1   O40   S    
C85   H2    S    
C19   C120  S    
C3    C125  S    
C114  O37   A    
C22   H83   S    
C46   C50   A    
C50   C55   A    
C19   H74   S    
C37   O61   S    
Cr9   O19   S    
C26   H94   S    
C74   C126  S    
C6    H36   S    
C94   C99   A    
C95   C113  S    
C96   C125  S    
C21   O53   S    
C23   O55   S    
C3    C120  S    
C57   C60   A    
C115  O7    A    
C65   C66   A    
C28   H101  S    
C13   O55   S    
Cr8   O22   S    
Cr7   O43   S    
C93   C98   A    
C120  C124  S    
Cr4   O13   S    
C47   H18   S    
