data_mof_unit_17789.cif
_audit_creation_date              2013-03-05T15:46:58-0500
_audit_creation_method            fapswitch 2.2
_symmetry_space_group_name_H-M    P1
_symmetry_Int_Tables_number       1
_space_group_crystal_system       triclinic
_cell_length_a                    10.198636
_cell_length_b                    10.670286
_cell_length_c                    14.91138
_cell_angle_alpha                 89.783615
_cell_angle_beta                  80.693979
_cell_angle_gamma                 95.202229
_cell_volume                      1594.45810746

loop_
_atom_site_label
_atom_site_type_symbol
_atom_site_description
_atom_site_fract_x
_atom_site_fract_y
_atom_site_fract_z
_atom_type_partial_charge
O1    O     O_R   0.431060 0.692470 0.507460 -0.614091
O2    O     O_R   0.568940 0.307530 0.492540 -0.614041
O3    O     O_R   0.651120 0.659650 0.483670 -0.608010
O4    O     O_R   0.348880 0.340350 0.516330 -0.609491
C1    C     C_R   0.556156 0.733517 0.490759 0.883998
C2    C     C_R   0.443898 0.266565 0.502383 0.886958
O5    O     O_R   0.389960 0.516440 0.644050 -0.600308
O6    O     O_R   0.610040 0.483560 0.355950 -0.607203
O7    O     O_R   0.610030 0.483620 0.620260 -0.609998
O8    O     O_R   0.389970 0.516380 0.379740 -0.613800
C3    C     C_R   0.499450 0.499159 0.672733 0.889204
C4    C     C_R   0.500315 0.500998 0.327242 0.872971
Zn1   Zn    Zn3+2 0.353060 0.521920 0.515880 0.983161
Zn2   Zn    Zn3+2 0.646940 0.478080 0.484120 0.983502
C5    C     C_R   0.434191 0.404159 0.195569 -0.190321
C6    C     C_R   0.535188 0.607311 0.807797 -0.186817
C7    C     C_R   0.499632 0.505797 0.231743 -0.100568
C8    C     C_R   0.495977 0.496223 0.768646 -0.107200
C9    C     C_R   0.551833 0.613861 0.180192 -0.045817
C10   C     C_R   0.442632 0.388389 0.820089 -0.049065
C11   C     C_R   0.533376 0.621020 0.088327 0.009173
C12   C     C_R   0.424826 0.393897 0.916069 0.011723
C13   C     C_R   0.475990 0.511015 0.049494 0.015493
C14   C     C_R   0.474324 0.506748 0.955784 0.014275
C15   C     C_R   0.422946 0.403956 0.104313 0.012039
C16   C     C_R   0.525293 0.614704 0.901272 0.012880
C17   C     C_R   0.568563 0.732534 0.033883 -0.160323
C18   C     C_R   0.359659 0.292825 0.973947 -0.155913
C19   C     C_R   0.565656 0.728537 0.940470 0.272192
C20   C     C_R   0.359985 0.297951 0.067619 0.270586
H1    H     H_    0.395685 0.323565 0.239587 0.181754
H2    H     H_    0.575216 0.687489 0.763750 0.181853
H3    H     H_    0.603992 0.115010 0.416735 0.194153
H4    H     H_    0.398544 0.885791 0.437673 0.191859
C21   C     C_2   0.588741 0.867240 0.473306 -0.168679
C22   C     C_2   0.411542 0.133118 0.491176 -0.177484
C23   C     C_2   0.494375 0.932431 0.447543 -0.173434
C24   C     C_2   0.507248 0.068272 0.446113 -0.179930
H5    H     H_    0.111993 0.423032 0.444177 0.174139
H6    H     H_    0.889289 0.581526 0.552401 0.167764
N1    N     N_2   0.842700 0.448880 0.462930 -0.146601
N2    N     N_2   0.157300 0.551120 0.537070 -0.149303
C25   C     C_2   0.927495 0.511116 0.505431 -0.110485
C26   C     C_2   0.073150 0.491171 0.492859 -0.115245
C27   C     C_1   0.630044 0.710598 0.222211 0.165688
N3    N     N_1   0.692726 0.786744 0.256256 -0.167650
C28   C     C_1   0.418104 0.272850 0.771666 0.184930
N4    N     N_1   0.399600 0.181382 0.732247 -0.151940
C29   C     C_1   0.595031 0.855173 0.072294 0.344508
N5    N     N_1   0.615774 0.953628 0.102168 -0.112036
C30   C     C_1   0.280902 0.187628 0.941550 0.330825
N6    N     N_1   0.217305 0.103391 0.916686 -0.104329
N7    N     N_R   0.601684 0.841451 0.885538 0.197161
O9    O     O_R   0.719200 0.901849 0.881900 -0.359447
O10   O     O_R   0.513697 0.888650 0.844356 -0.371230
N8    N     N_R   0.294657 0.195191 0.125798 0.196746
O11   O     O_R   0.332218 0.082309 0.113701 -0.367231
O12   O     O_R   0.191796 0.212984 0.186823 -0.377555
C31   C     C_1   0.281068 0.074507 0.530850 0.241288
N9    N     N_1   0.176940 0.027784 0.562520 -0.147061
C32   C     C_1   0.717999 0.925616 0.486757 0.237677
N10   N     N_1   0.821154 0.972170 0.497491 -0.153509
C33   C     C_1   0.114858 0.640910 0.600138 0.326536
N11   N     N_1   0.079948 0.715605 0.652582 -0.183014
C34   C     C_1   0.883861 0.354700 0.403255 0.321680
N12   N     N_1   0.917668 0.276325 0.353657 -0.167585

loop_
_geom_bond_atom_site_label_1
_geom_bond_atom_site_label_2
_geom_bond_distance
_ccdc_geom_bond_type
C4    C7    1.425917 S    
C27   N3    1.157768 T    
N1    C34   1.392969 S    
C13   C14   1.401054 A    
C9    C27   1.453098 S    
C3    C8    1.425045 S    
C5    H1    1.084301 S    
C23   C24   1.443256 S    
C6    H2    1.084275 S    
H4    C23   1.087839 S    
N1    C25   1.291047 D    
C28   N4    1.157788 T    
O6    C4    1.289271 A    
C25   C26   1.501546 S    
C22   C31   1.450325 S    
O3    C1    1.294746 A    
C18   C20   1.398590 A    
C11   C17   1.422929 A    
C31   N9    1.157302 T    
C21   C32   1.450365 S    
C6    C8    1.378599 A    
C12   C18   1.423771 A    
N7    O9    1.301275 A    
O5    C3    1.286489 A    
O7    C3    1.288825 A    
O2    C2    1.294906 A    
O3    Zn2   1.933966 S    
N2    C26   1.291096 D    
Zn2   N1    2.022967 S    
O1    C1    1.294843 A    
O8    C4    1.286758 A    
C22   C24   1.340468 D    
Zn1   N2    2.022967 S    
C7    C9    1.397686 A    
C2    C22   1.448718 S    
C34   N12   1.157453 T    
C8    C10   1.397567 A    
N7    O10   1.301456 A    
C11   C13   1.430298 A    
C6    C16   1.384184 A    
C32   N10   1.157350 T    
O2    Zn2   1.914096 S    
C18   C30   1.450720 S    
C12   C14   1.430850 A    
C5    C15   1.383922 A    
C10   C28   1.453622 S    
C17   C19   1.398754 A    
C10   C12   1.415373 A    
H5    C26   1.084303 S    
C17   C29   1.450850 S    
C30   N6    1.157846 T    
C1    C21   1.448218 S    
O5    Zn1   2.008347 S    
C13   C15   1.415522 A    
O1    Zn1   1.914094 S    
N8    O11   1.301164 A    
C16   C19   1.406743 A    
O4    C2    1.294833 A    
C29   N5    1.157812 T    
C15   C20   1.406291 A    
C5    C7    1.379185 A    
O7    Zn2   2.006001 S    
H3    C24   1.087861 S    
O6    Zn2   2.008345 S    
C21   C23   1.340389 D    
C9    C11   1.415250 A    
C20   N8    1.439505 S    
N2    C33   1.392856 S    
H6    C25   1.084260 S    
C14   C16   1.416174 A    
O4    Zn1   1.933968 S    
N8    O12   1.301262 A    
C33   N11   1.157441 T    
C19   N7    1.439609 S    
O8    Zn1   2.005999 S    
