data_mof_unit_18091.cif
_audit_creation_date              2012-12-10T17:38:15-0500
_audit_creation_method            fapswitch 2.2
_symmetry_space_group_name_H-M    P1
_symmetry_Int_Tables_number       1
_space_group_crystal_system       triclinic
_cell_length_a                    12.291604
_cell_length_b                    13.206835
_cell_length_c                    19.361529
_cell_angle_alpha                 77.24955
_cell_angle_beta                  101.261754
_cell_angle_gamma                 116.672748
_cell_volume                      2722.5526459

loop_
_atom_site_label
_atom_site_type_symbol
_atom_type_description
_atom_site_fract_x
_atom_site_fract_y
_atom_site_fract_z
_atom_type_partial_charge
C1    C     C_R   0.854784 0.286627 0.505394 0.772392
C2    C     C_R   0.003111 0.503104 0.709661 -0.294296
C3    C     C_R   0.994181 0.501155 0.070126 0.409383
C4    C     C_R   0.996119 0.488872 0.932705 0.455236
C5    C     C_R   0.052591 0.444885 0.195771 -0.294692
C6    C     C_R   0.057727 0.443909 0.268744 0.436484
C7    C     C_R   0.000061 0.500265 0.291430 -0.156097
C8    C     C_R   0.941611 0.559041 0.240584 -0.293183
C9    C     C_R   0.938566 0.562104 0.167477 0.178833
C10   C     C_R   0.994492 0.503566 0.145264 0.001011
C11   C     C_R   0.273936 0.017467 0.402087 -0.205153
C12   C     C_R   0.001884 0.502946 0.632619 0.859143
C13   C     C_R   0.227315 0.835109 0.478280 -0.039699
C14   C     C_R   0.817261 0.082408 0.540797 -0.180366
C15   C     C_R   0.739374 0.966190 0.548018 -0.149525
C16   C     C_R   0.614549 0.930365 0.526548 -0.201274
C17   C     C_R   0.565747 0.011006 0.496523 0.069604
C18   C     C_R   0.648498 0.126132 0.476526 0.072319
C19   C     C_R   0.437767 0.979125 0.480194 0.012400
C20   C     C_R   0.397740 0.053245 0.428081 0.136068
C21   C     C_R   0.482083 0.161180 0.400864 -0.245585
C22   C     C_R   0.605361 0.198098 0.425578 -0.204677
C23   C     C_R   0.145145 0.713334 0.490801 0.798105
C24   C     C_R   0.347642 0.876752 0.513306 0.074072
C25   C     C_R   0.190300 0.907127 0.424619 -0.247386
C26   C     C_R   0.772875 0.163897 0.506006 -0.105056
C27   C     C_R   0.328688 0.305956 0.601279 0.377337
C28   C     C_R   0.761803 0.649102 0.405914 0.078825
C29   C     C_R   0.665314 0.681095 0.385558 -0.264958
C30   C     C_R   0.559973 0.622934 0.420412 -0.178774
C31   C     C_R   0.549699 0.531239 0.476396 0.011619
C32   C     C_R   0.650331 0.501044 0.494701 0.213696
C33   C     C_R   0.444310 0.469324 0.515009 -0.160082
C34   C     C_R   0.999864 0.499442 0.367609 0.827854
C35   C     C_R   0.437181 0.372570 0.567582 -0.058864
C36   C     C_R   0.538218 0.345006 0.585671 0.408048
C37   C     C_R   0.643255 0.411857 0.551006 -0.231717
C38   C     C_R   0.345287 0.500360 0.504007 0.011007
C39   C     C_R   0.235769 0.342902 0.587704 -0.061849
C40   C     C_R   0.106672 0.505089 0.758368 0.285340
C41   C     C_R   0.100991 0.489986 0.832433 0.379886
C42   C     C_R   0.997344 0.484317 0.857291 -0.168796
C43   C     C_R   0.897563 0.485230 0.808748 -0.330230
C44   C     C_R   0.901465 0.500363 0.735335 0.401814
Cu1   Cu    Cu3+1 0.098280 0.475420 0.516260 0.943115
Cu2   Cu    Cu3+1 0.901720 0.524580 0.483740 0.925452
H1    H     H_    0.452638 0.217576 0.360315 0.147725
H2    H     H_    0.243085 0.072151 0.361000 0.141583
H3    H     H_    0.912514 0.108355 0.562261 0.146159
H4    H     H_    0.557125 0.839162 0.532398 0.137957
H5    H     H_    0.775541 0.903890 0.572034 0.140760
H6    H     H_    0.666554 0.280739 0.400420 0.184633
H7    H     H_    0.153515 0.294251 0.614115 0.134575
H8    H     H_    0.344186 0.573229 0.466292 0.131246
H9    H     H_    0.843411 0.694717 0.378729 0.118722
H10   H     H_    0.487939 0.650918 0.401836 0.126729
H11   H     H_    0.672134 0.751133 0.342622 0.147570
H12   H     H_    0.720272 0.394407 0.572149 0.225300
H13   H     H_    0.817580 0.479861 0.827670 0.192839
H14   H     H_    0.091518 0.396847 0.178346 0.157097
H15   H     H_    0.899463 0.604339 0.257971 0.163051
H16   H     H_    0.097214 0.877046 0.398735 0.157501
N1    N     N_R   0.888515 0.448253 0.960684 -0.249441
N2    N     N_R   0.887542 0.453996 0.028295 -0.243766
N3    N     N_R   0.101669 0.541837 0.042445 -0.248113
N4    N     N_R   0.102515 0.536750 0.974785 -0.178399
N5    N     N_R   0.246290 0.438200 0.540910 -0.202968
N6    N     N_R   0.754310 0.561190 0.459520 -0.194458
O1    O     O_R   0.972510 0.318130 0.520450 -0.577299
O2    O     O_R   0.806530 0.359650 0.492990 -0.618917
O3    O     O_R   0.083010 0.479220 0.613590 -0.556017
O4    O     O_R   0.917030 0.520740 0.586130 -0.555007
O5    O     O_R   0.193470 0.640350 0.507010 -0.588629
O6    O     O_R   0.027490 0.681870 0.479550 -0.596118
O7    O     O_R   0.082970 0.479260 0.413870 -0.542962
O8    O     O_R   0.916990 0.520780 0.386410 -0.600704
O9    O     O_3   0.219924 0.550444 0.732828 -0.552420
C45   C     C_3   0.265880 0.467142 0.742265 0.151510
H17   H     H_    0.199052 0.390407 0.717938 0.125863
H18   H     H_    0.289974 0.440348 0.799015 0.173504
C46   C     C_3   0.384456 0.520094 0.707828 -0.779715
H19   H     H_    0.454083 0.592775 0.734714 0.241713
H20   H     H_    0.420551 0.455084 0.712712 0.217177
H21   H     H_    0.368412 0.552748 0.650751 0.253474
C47   C     C_3   0.372904 0.821791 0.589422 -0.418529
C48   C     C_3   0.285392 0.813011 0.639083 -0.770489
H22   H     H_    0.284658 0.897594 0.635223 0.234739
H23   H     H_    0.190939 0.748768 0.625958 0.244259
H24   H     H_    0.316801 0.786623 0.694983 0.273178
H25   H     H_    0.368571 0.735976 0.590087 0.232328
H26   H     H_    0.465124 0.874196 0.613965 0.204322
O10   O     O_3   0.542075 0.265997 0.645680 -0.513901
C49   C     C_3   0.562576 0.178163 0.628005 0.103582
H27   H     H_    0.656184 0.210982 0.612479 0.123928
H28   H     H_    0.493765 0.137349 0.584134 0.135912
C50   C     C_3   0.552277 0.087344 0.693297 -0.740302
H29   H     H_    0.457356 0.045310 0.708088 0.252604
H30   H     H_    0.576788 0.021852 0.682018 0.188976
H31   H     H_    0.616199 0.127301 0.738772 0.251933
O11   O     O_3   0.314825 0.208429 0.650301 -0.535420
C51   C     C_3   0.228468 0.110089 0.620267 0.073734
H32   H     H_    0.276058 0.082179 0.590346 0.155221
H33   H     H_    0.152914 0.123766 0.583104 0.113983
C52   C     C_3   0.169614 0.014223 0.679810 -0.812175
H34   H     H_    0.118336 0.039833 0.708577 0.241702
H35   H     H_    0.104866 0.935261 0.657144 0.197534
H36   H     H_    0.240793 0.995828 0.718088 0.256637
O12   O     O_3   0.201639 0.490757 0.879613 -0.548581
C53   C     C_3   0.175711 0.377479 0.914766 0.046900
H37   H     H_    0.148513 0.316931 0.875981 0.103032
H38   H     H_    0.100724 0.345291 0.949103 0.156447
C54   C     C_3   0.289586 0.376220 0.962135 -0.748598
H39   H     H_    0.316769 0.433709 0.002580 0.259708
H40   H     H_    0.270461 0.287812 0.989884 0.196543
H41   H     H_    0.366311 0.405742 0.929549 0.240943
O13   O     O_3   0.806288 0.514180 0.688673 -0.544538
C55   C     C_3   0.806413 0.619588 0.694048 0.108772
H42   H     H_    0.898142 0.692266 0.686512 0.129470
H43   H     H_    0.780103 0.616430 0.746528 0.137242
C56   C     C_3   0.713157 0.643837 0.637241 -0.790803
H44   H     H_    0.703010 0.718697 0.647019 0.184342
H45   H     H_    0.744479 0.663792 0.583872 0.249476
H46   H     H_    0.622657 0.568836 0.639090 0.260726
O14   O     O_3   0.103776 0.374966 0.317556 -0.564519
C57   C     C_3   0.232629 0.423993 0.319446 0.099739
H47   H     H_    0.274347 0.504478 0.343167 0.139146
H48   H     H_    0.262807 0.443171 0.265568 0.125776
C58   C     C_3   0.280016 0.339560 0.365208 -0.778610
H49   H     H_    0.244108 0.261116 0.340171 0.230158
H50   H     H_    0.381648 0.378647 0.370000 0.200607
H51   H     H_    0.249520 0.315378 0.419176 0.257576
C59   C     C_3   0.878000 0.630294 0.115147 -0.401572
C60   C     C_3   0.972851 0.742275 0.079808 -0.811332
H52   H     H_    0.036269 0.794528 0.120910 0.250044
H53   H     H_    0.026552 0.725472 0.047488 0.261746
H54   H     H_    0.925651 0.792069 0.044063 0.240528
H55   H     H_    0.813928 0.578687 0.074070 0.222124
H56   H     H_    0.821724 0.652024 0.142745 0.195213

loop_
_geom_bond_atom_site_label_1
_geom_bond_atom_site_label_2
_ccdc_geom_bond_type
C8    C9    A    
C49   H27   S    
C41   O12   S    
Cu1   O3    S    
C41   C42   A    
C19   C20   A    
C18   C26   A    
C6    O14   S    
C2    C12   S    
C58   H49   S    
Cu2   O8    S    
C46   H19   S    
C47   H26   S    
C7    C8    A    
O9    C45   S    
O13   C55   S    
C4    N1    A    
C51   H32   S    
C28   C29   A    
C28   N6    A    
C16   H4    S    
C53   H38   S    
C5    C6    A    
C48   H23   S    
C14   H3    S    
C11   C25   A    
C59   H56   S    
C15   C16   A    
C50   H31   S    
O12   C53   S    
C13   C23   S    
Cu1   O5    S    
C54   H39   S    
C17   C19   A    
C35   C36   A    
C27   C39   A    
C59   C60   S    
C50   H30   S    
Cu1   N5    S    
C57   C58   S    
C31   C33   A    
C15   H5    S    
C24   C47   S    
Cu2   O4    S    
C37   H12   S    
C56   H46   S    
C43   H13   S    
C8    H15   S    
C32   N6    A    
C36   O10   S    
C57   H47   S    
C12   O4    A    
C49   H28   S    
C21   C22   A    
C13   C25   A    
C11   H2    S    
C3    N3    A    
C23   O5    A    
C52   H35   S    
C52   H34   S    
C46   H20   S    
C28   H9    S    
C56   H45   S    
C11   C20   A    
C27   O11   S    
Cu1   O1    S    
C53   C54   S    
C2    C44   A    
C48   H22   S    
C16   C17   A    
C27   C35   A    
C59   H55   S    
C47   C48   S    
C30   H10   S    
C1    O1    A    
C13   C24   A    
C43   C44   A    
Cu2   N6    S    
C29   C30   A    
C2    C40   A    
C60   H54   S    
C60   H52   S    
C31   C32   A    
C38   H8    S    
C30   C31   A    
C50   H29   S    
C20   C21   A    
C17   C18   A    
C32   C37   A    
C14   C26   A    
C57   H48   S    
C52   H36   S    
C54   H40   S    
C40   C41   A    
C12   O3    A    
C29   H11   S    
C49   C50   S    
C1    C26   S    
C7    C34   S    
C55   C56   S    
C42   C43   A    
C23   O6    A    
C58   H51   S    
Cu2   O6    S    
C46   H21   S    
C56   H44   S    
C22   H6    S    
C9    C10   A    
C9    C59   S    
C36   C37   A    
C5    H14   S    
C18   C22   A    
C39   N5    A    
C1    O2    A    
C48   H24   S    
C58   H50   S    
C47   H25   S    
C6    C7    A    
C51   C52   S    
C34   O7    A    
C33   C38   A    
Cu1   O7    S    
C55   H43   S    
C19   C24   A    
C5    C10   A    
C3    C10   S    
C53   H37   S    
C4    N4    A    
C45   H17   S    
C45   C46   S    
C39   H7    S    
C4    C42   S    
O10   C49   S    
C33   C35   A    
C45   H18   S    
C25   H16   S    
C40   O9    S    
C3    N2    A    
Cu2   O2    S    
N1    N2    A    
Cu1   Cu2   S    
C38   N5    A    
C44   O13   S    
C51   H33   S    
N3    N4    A    
C60   H53   S    
C14   C15   A    
O11   C51   S    
C55   H42   S    
C54   H41   S    
C34   O8    A    
O14   C57   S    
C21   H1    S    
