data_mof_unit_67395.cif
_audit_creation_date              2012-12-11T19:52:03-0500
_audit_creation_method            fapswitch 2.2
_symmetry_space_group_name_H-M    P1
_symmetry_Int_Tables_number       1
_space_group_crystal_system       triclinic
_cell_length_a                    16.695384
_cell_length_b                    28.203494
_cell_length_c                    8.478
_cell_angle_alpha                 90.0
_cell_angle_beta                  103.980545
_cell_angle_gamma                 90.002223
_cell_volume                      3873.76791839

loop_
_atom_site_label
_atom_site_type_symbol
_atom_type_description
_atom_site_fract_x
_atom_site_fract_y
_atom_site_fract_z
_atom_type_partial_charge
Ba1   Ba    Ba6+2 0.000400 0.534870 0.845190 1.980715
Ba2   Ba    Ba6+2 0.000400 0.465130 0.345190 1.980727
Ba3   Ba    Ba6+2 0.500400 0.034870 0.845190 1.980712
Ba4   Ba    Ba6+2 0.500400 0.965130 0.345190 1.980705
C1    C     C_3   0.987670 0.778753 0.614665 0.342660
C2    C     C_3   0.987647 0.221248 0.114796 0.342644
C3    C     C_3   0.487592 0.278735 0.614805 0.342847
C4    C     C_3   0.487668 0.721243 0.114730 0.342681
C5    C     C_R   0.136192 0.621336 0.388912 0.011022
C6    C     C_R   0.136171 0.378659 0.888879 0.011031
C7    C     C_R   0.636180 0.121337 0.388906 0.011033
C8    C     C_R   0.636181 0.878663 0.888897 0.011005
C9    C     C_2   0.777496 0.350241 0.953827 -0.173675
C10   C     C_2   0.777603 0.649782 0.453957 -0.173902
C11   C     C_2   0.277610 0.850215 0.953970 -0.173741
C12   C     C_2   0.277610 0.149785 0.453968 -0.173763
C13   C     C_2   0.813387 0.390678 0.905707 -0.136728
C14   C     C_2   0.813467 0.609340 0.405796 -0.136539
C15   C     C_2   0.313448 0.890662 0.905781 -0.136584
C16   C     C_2   0.313450 0.109338 0.405779 -0.136581
C17   C     C_2   0.839045 0.346085 0.672327 -0.008331
C18   C     C_2   0.839099 0.653932 0.172394 -0.008469
C19   C     C_2   0.339095 0.846066 0.672396 -0.008403
C20   C     C_2   0.339089 0.153932 0.172383 -0.008396
C21   C     C_3   0.811891 0.303136 0.738154 -0.086743
C22   C     C_3   0.811967 0.696886 0.238223 -0.086655
C23   C     C_3   0.311980 0.803110 0.738245 -0.086700
C24   C     C_3   0.311964 0.196887 0.238218 -0.086638
C25   C     C_3   0.755883 0.311237 0.844699 0.211065
C26   C     C_3   0.756016 0.688802 0.344892 0.210796
C27   C     C_3   0.256028 0.811192 0.844915 0.210809
C28   C     C_3   0.256025 0.188806 0.344913 0.210818
C29   C     C_2   0.771311 0.268132 0.607265 -0.061962
C30   C     C_2   0.771340 0.731877 0.107322 -0.061877
C31   C     C_2   0.271358 0.768115 0.607355 -0.061852
C32   C     C_2   0.271324 0.231873 0.107313 -0.061849
C33   C     C_2   0.265403 0.721560 0.639179 0.425687
C34   C     C_2   0.265377 0.278430 0.139109 0.425690
C35   C     C_2   0.765365 0.221580 0.639126 0.425641
C36   C     C_2   0.765386 0.778433 0.139136 0.425684
C37   C     C_R   0.275692 0.678363 0.384334 0.128577
C38   C     C_R   0.275653 0.321622 0.884255 0.128509
C39   C     C_R   0.775673 0.178370 0.384313 0.128583
C40   C     C_R   0.775666 0.821628 0.884285 0.128577
C41   C     C_R   0.229854 0.687394 0.508912 -0.196067
C42   C     C_R   0.229816 0.312591 0.008834 -0.196097
C43   C     C_R   0.729832 0.187402 0.508886 -0.196015
C44   C     C_R   0.729831 0.812597 0.008868 -0.196069
C45   C     C_3   0.023749 0.709813 0.133561 0.360594
C46   C     C_3   0.023686 0.290180 0.633631 0.360527
C47   C     C_3   0.523793 0.209781 0.133661 0.360739
C48   C     C_3   0.523739 0.790189 0.633604 0.360639
C49   C     C_R   0.256176 0.636804 0.276893 0.274668
C50   C     C_R   0.256149 0.363187 0.776845 0.274694
C51   C     C_R   0.756162 0.136809 0.276882 0.274654
C52   C     C_R   0.756159 0.863191 0.776865 0.274702
C53   C     C_R   0.190180 0.609243 0.278319 -0.058901
C54   C     C_R   0.190163 0.390753 0.778293 -0.058863
C55   C     C_R   0.690171 0.109245 0.278315 -0.058910
C56   C     C_R   0.690170 0.890755 0.778305 -0.058885
C57   C     C_R   0.159527 0.655391 0.513072 -0.065940
C58   C     C_R   0.159500 0.344599 0.013020 -0.065964
C59   C     C_R   0.659507 0.155398 0.513051 -0.066000
C60   C     C_R   0.659512 0.844604 0.013044 -0.065957
C61   C     C_3   0.068304 0.757290 0.147239 0.305827
C62   C     C_3   0.068235 0.242703 0.647305 0.305788
C63   C     C_3   0.568378 0.257250 0.147473 0.305987
C64   C     C_3   0.568301 0.742716 0.647298 0.305830
C65   C     C_3   0.695046 0.482993 0.850370 0.574666
C66   C     C_3   0.694908 0.517157 0.350161 0.575044
C67   C     C_3   0.194969 0.982911 0.850275 0.574881
C68   C     C_3   0.194967 0.017088 0.350274 0.574889
C69   C     C_3   0.624092 0.446922 0.837262 0.650261
C70   C     C_3   0.623897 0.553155 0.337487 0.650810
C71   C     C_3   0.124013 0.946854 0.837282 0.650882
C72   C     C_3   0.124013 0.053145 0.337292 0.650873
C73   C     C_3   0.234597 0.470249 0.131587 0.245931
C74   C     C_3   0.234618 0.529746 0.631594 0.245888
C75   C     C_3   0.734612 0.970254 0.131573 0.245896
C76   C     C_3   0.734606 0.029750 0.631598 0.245880
C77   C     C_3   0.311931 0.439759 0.158687 -0.200738
C78   C     C_3   0.311956 0.560236 0.658753 -0.200516
C79   C     C_3   0.811944 0.939758 0.158797 -0.200569
C80   C     C_3   0.811940 0.060243 0.658744 -0.200636
C81   C     C_3   0.028864 0.733023 0.580327 0.259331
C82   C     C_3   0.028839 0.266973 0.080398 0.259315
C83   C     C_3   0.528869 0.233038 0.580427 0.259284
C84   C     C_3   0.528864 0.766969 0.080363 0.259337
C85   C     C_2   0.836863 0.388298 0.748043 0.192094
C86   C     C_2   0.836920 0.611720 0.248113 0.191852
C87   C     C_2   0.336896 0.888281 0.748091 0.191893
C88   C     C_2   0.336895 0.111718 0.248086 0.191873
H1    H     H_    0.980827 0.710658 0.500342 -0.045402
H2    H     H_    0.980794 0.289336 0.000434 -0.045392
H3    H     H_    0.480878 0.210670 0.500336 -0.045500
H4    H     H_    0.480829 0.789329 0.000358 -0.045415
H5    H     H_    0.205643 0.472189 0.999598 -0.007023
H6    H     H_    0.205689 0.527803 0.499595 -0.007049
H7    H     H_    0.705714 0.972200 0.999560 -0.007022
H8    H     H_    0.705670 0.027809 0.499601 -0.007016
H9    H     H_    0.295857 0.403017 0.117766 0.064247
H10   H     H_    0.295895 0.596975 0.617791 0.064180
H11   H     H_    0.795882 0.903027 0.117713 0.064178
H12   H     H_    0.795871 0.096983 0.617808 0.064224
H13   H     H_    0.343385 0.438926 0.290070 0.204591
H14   H     H_    0.343377 0.561078 0.790150 0.204631
H15   H     H_    0.843306 0.938889 0.290233 0.204544
H16   H     H_    0.843372 0.061080 0.790136 0.204585
H17   H     H_    0.078085 0.742275 0.517720 -0.006644
H18   H     H_    0.078040 0.257714 0.017750 -0.006578
H19   H     H_    0.578111 0.242330 0.517923 -0.006451
H20   H     H_    0.578087 0.757712 0.017770 -0.006618
H21   H     H_    0.932973 0.770623 0.662920 0.110558
H22   H     H_    0.932979 0.229385 0.163129 0.110524
H23   H     H_    0.432854 0.270559 0.662870 0.110337
H24   H     H_    0.432968 0.729379 0.162961 0.110550
H25   H     H_    0.066640 0.682582 0.106254 -0.017187
H26   H     H_    0.066593 0.317411 0.606392 -0.017257
H27   H     H_    0.566666 0.182555 0.106264 -0.017172
H28   H     H_    0.566632 0.817422 0.606329 -0.017241
H29   H     H_    0.121991 0.756723 0.254044 -0.062978
H30   H     H_    0.121934 0.243275 0.754096 -0.062960
H31   H     H_    0.622068 0.256650 0.254283 -0.063304
H32   H     H_    0.621995 0.743293 0.754101 -0.063036
H33   H     H_    0.730851 0.473538 0.761327 0.006379
H34   H     H_    0.730630 0.526749 0.261108 0.005589
H35   H     H_    0.230745 0.973422 0.761219 0.005937
H36   H     H_    0.230742 0.026579 0.261218 0.005947
O1    O     O_2   0.163830 0.569270 0.980510 -0.439523
O2    O     O_2   0.163830 0.430730 0.480510 -0.439529
O3    O     O_2   0.663830 0.069270 0.980510 -0.439535
O4    O     O_2   0.663830 0.930730 0.480510 -0.439528
O5    O     O_3   0.745044 0.515170 0.509606 -0.597836
O6    O     O_3   0.745120 0.484861 0.009851 -0.597870
O7    O     O_3   0.245064 0.015170 0.509741 -0.597875
O8    O     O_3   0.245064 0.984828 0.009745 -0.597871
O9    O     O_3   0.950855 0.711264 0.008715 -0.570437
O10   O     O_3   0.950813 0.288738 0.508734 -0.570499
O11   O     O_3   0.450892 0.211263 0.008835 -0.570381
O12   O     O_3   0.450856 0.788737 0.508731 -0.570446
O13   O     O_3   0.904940 0.476110 0.001150 -0.350127
O14   O     O_3   0.904940 0.523890 0.501150 -0.350004
O15   O     O_3   0.404940 0.976110 0.001150 -0.350100
O16   O     O_3   0.404940 0.023890 0.501150 -0.350088
O17   O     O_3   0.095420 0.524330 0.188510 -0.426461
O18   O     O_3   0.095420 0.475670 0.688510 -0.426470
O19   O     O_3   0.595420 0.024330 0.188510 -0.426466
O20   O     O_3   0.595420 0.975670 0.688510 -0.426472
O21   O     O_3   0.028940 0.612400 0.656050 -0.429892
O22   O     O_3   0.028940 0.387600 0.156050 -0.429903
O23   O     O_3   0.528940 0.112400 0.656050 -0.429879
O24   O     O_3   0.528940 0.887600 0.156050 -0.429890
O25   O     O_2   0.167666 0.644161 0.843315 -0.390625
O26   O     O_2   0.167685 0.355848 0.343260 -0.390593
O27   O     O_2   0.667672 0.144153 0.843289 -0.390597
O28   O     O_2   0.667673 0.855844 0.343287 -0.390612
O29   O     O_3   0.257904 0.515508 0.193646 -0.586593
O30   O     O_3   0.257910 0.484489 0.693669 -0.586568
O31   O     O_3   0.757906 0.015510 0.193673 -0.586593
O32   O     O_3   0.757907 0.984492 0.693658 -0.586579
O33   O     O_3   0.062461 0.709381 0.726658 -0.573585
O34   O     O_3   0.062469 0.290621 0.226705 -0.573596
O35   O     O_3   0.562452 0.209376 0.726724 -0.573561
O36   O     O_3   0.562458 0.790621 0.226678 -0.573558
O37   O     O_2   0.837400 0.570350 0.710350 -0.400689
O38   O     O_2   0.837400 0.429650 0.210350 -0.400439
O39   O     O_2   0.337400 0.070350 0.710350 -0.400603
O40   O     O_2   0.337400 0.929650 0.210350 -0.400584
O41   O     O_3   0.972820 0.612580 0.035550 -0.392623
O42   O     O_3   0.972820 0.387420 0.535550 -0.392650
O43   O     O_3   0.472820 0.112580 0.035550 -0.392640
O44   O     O_3   0.472820 0.887420 0.535550 -0.392627
O45   O     O_2   0.842130 0.652760 0.840164 -0.468900
O46   O     O_2   0.842130 0.347244 0.340117 -0.468909
O47   O     O_2   0.342160 0.152782 0.840153 -0.468988
O48   O     O_2   0.342132 0.847236 0.340165 -0.468939
P1    P     P_3+3 0.171820 0.553000 0.158080 1.121044
P2    P     P_3+3 0.171820 0.447000 0.658080 1.121036
P3    P     P_3+3 0.671820 0.053000 0.158080 1.121042
P4    P     P_3+3 0.671820 0.947000 0.658080 1.121036
P5    P     P_3+3 0.829210 0.554130 0.532500 1.150380
P6    P     P_3+3 0.829210 0.445870 0.032500 1.150192
P7    P     P_3+3 0.329210 0.054130 0.532500 1.150270
P8    P     P_3+3 0.329210 0.945870 0.032500 1.150277
P9    P     P_3+3 0.898746 0.657559 0.012704 1.096414
P10   P     P_3+3 0.898722 0.342449 0.512682 1.096402
P11   P     P_3+3 0.398755 0.157563 0.012721 1.096423
P12   P     P_3+3 0.398745 0.842440 0.512707 1.096402
P13   P     P_3+3 0.105710 0.343920 0.182008 1.066901
P14   P     P_3+3 0.105713 0.656079 0.682027 1.066930
P15   P     P_3+3 0.605710 0.843921 0.182016 1.066932
P16   P     P_3+3 0.605707 0.156081 0.682026 1.066924
H37   H     H_    0.647553 0.414813 0.908888 -0.009866
H38   H     H_    0.647444 0.585376 0.408285 -0.010526
H39   H     H_    0.147558 0.914647 0.908144 -0.010591
H40   H     H_    0.147560 0.085350 0.408166 -0.010584
Cl1   Cl    Cl    0.539574 0.468783 0.911118 -0.363713
Cl2   Cl    Cl    0.539961 0.531300 0.413069 -0.364398
Cl3   Cl    Cl    0.039887 0.968608 0.912444 -0.364055
Cl4   Cl    Cl    0.039883 0.031390 0.412436 -0.364072
Cl5   Cl    Cl    0.585501 0.428599 0.631882 -0.428150
Cl6   Cl    Cl    0.584457 0.571137 0.132047 -0.426707
Cl7   Cl    Cl    0.084843 0.928845 0.631822 -0.427075
Cl8   Cl    Cl    0.084848 0.071160 0.131844 -0.427098
H41   H     H_    0.191240 0.453595 0.195962 0.062243
H42   H     H_    0.191244 0.546403 0.695924 0.062180
H43   H     H_    0.691211 0.953599 0.195848 0.062174
H44   H     H_    0.691236 0.046403 0.695944 0.062220
H45   H     H_    0.354879 0.454448 0.089419 0.184778
H46   H     H_    0.354928 0.545539 0.589554 0.184909
H47   H     H_    0.854971 0.954470 0.089733 0.184961
H48   H     H_    0.854905 0.045553 0.589517 0.184854
H49   H     H_    0.968383 0.799126 0.500423 0.164356
H50   H     H_    0.968315 0.200875 0.000564 0.164403
H51   H     H_    0.468353 0.299139 0.500623 0.164430
H52   H     H_    0.468386 0.700859 0.000510 0.164392
Cl9   Cl    Cl    0.001704 0.804845 0.170387 -0.521581
Cl10  Cl    Cl    0.001630 0.195151 0.670493 -0.521637
Cl11  Cl    Cl    0.501805 0.304809 0.170755 -0.521556
Cl12  Cl    Cl    0.501707 0.695157 0.670476 -0.521645
H53   H     H_    0.753334 0.351142 0.061249 0.153045
H54   H     H_    0.753409 0.648868 0.561337 0.153106
H55   H     H_    0.253426 0.851127 0.061362 0.153089
H56   H     H_    0.253430 0.148873 0.561364 0.153087
Cl13  Cl    Cl    0.326944 0.622953 0.160102 -0.470572
Cl14  Cl    Cl    0.326920 0.377036 0.660058 -0.470553
Cl15  Cl    Cl    0.826929 0.122963 0.160082 -0.470622
Cl16  Cl    Cl    0.826929 0.877040 0.660076 -0.470576
Cl17  Cl    Cl    0.859767 0.440968 0.659981 -0.572480
Cl18  Cl    Cl    0.859812 0.559045 0.160047 -0.572339
Cl19  Cl    Cl    0.359762 0.940955 0.659990 -0.572513
Cl20  Cl    Cl    0.359764 0.059044 0.159987 -0.572512
Cl21  Cl    Cl    0.041762 0.591953 0.361989 -0.675186
Cl22  Cl    Cl    0.041747 0.408049 0.861980 -0.675237
Cl23  Cl    Cl    0.541752 0.091949 0.361987 -0.675185
Cl24  Cl    Cl    0.541754 0.908049 0.861986 -0.675212
H57   H     H_    0.742827 0.281297 0.486144 0.058569
H58   H     H_    0.742839 0.718698 0.986224 0.058502
H59   H     H_    0.242861 0.781288 0.486250 0.058473
H60   H     H_    0.242811 0.218690 0.986226 0.058496
Cl25  Cl    Cl    0.311611 0.698830 0.832270 -0.634315
Cl26  Cl    Cl    0.311622 0.301173 0.332164 -0.634249
Cl27  Cl    Cl    0.811560 0.198871 0.832255 -0.634343
Cl28  Cl    Cl    0.811609 0.801168 0.332215 -0.634301
Cl29  Cl    Cl    0.056473 0.815516 0.755238 -0.566168
Cl30  Cl    Cl    0.056474 0.184482 0.255295 -0.566237
Cl31  Cl    Cl    0.556275 0.315484 0.755645 -0.565636
Cl32  Cl    Cl    0.556464 0.684496 0.255350 -0.566335
H61   H     H_    0.009880 0.701695 0.252145 -0.086201
H62   H     H_    0.009787 0.298291 0.752190 -0.086085
H63   H     H_    0.509930 0.201637 0.252229 -0.086210
H64   H     H_    0.509852 0.798303 0.752169 -0.086171
H65   H     H_    0.091829 0.763246 0.037493 0.129635
H66   H     H_    0.091746 0.236744 0.537542 0.129675
H67   H     H_    0.591916 0.263224 0.037748 0.129619
H68   H     H_    0.591826 0.736760 0.537548 0.129678
Cl33  Cl    Cl    0.657704 0.541494 0.795291 -0.452796
Cl34  Cl    Cl    0.657538 0.458694 0.294436 -0.452550
Cl35  Cl    Cl    0.157564 0.041389 0.795026 -0.452463
Cl36  Cl    Cl    0.157559 0.958610 0.295016 -0.452437

loop_
_geom_bond_atom_site_label_1
_geom_bond_atom_site_label_2
_ccdc_geom_bond_type
Ba2   O22   S    
C83   O35   S    
C70   H38   S    
C32   H60   S    
C65   O6    S    
C19   C87   D    
C51   C55   D    
C81   O33   S    
C10   C14   A    
C77   H45   S    
O38   P6    D    
O7    P7    S    
C61   H65   S    
C76   C80   S    
C64   H32   S    
Ba4   O15   S    
C84   H4    S    
Ba3   O39   S    
C17   P10   S    
Ba4   O4    S    
C77   H9    S    
Ba2   O17   S    
C11   C15   A    
C16   C88   S    
O45   P9    D    
O21   P14   S    
C29   C35   D    
C45   C61   S    
C42   C58   S    
C20   P11   S    
C30   C36   D    
C9    C25   A    
O10   P10   S    
Ba4   P4    S    
O13   P6    S    
O24   P15   S    
C81   H17   S    
C63   Cl11  S    
C43   C59   S    
C19   P12   S    
C8    C60   A    
O11   P11   S    
C76   O32   S    
C13   C85   S    
C83   H19   S    
C88   Cl20  S    
C67   Cl35  S    
C59   P16   S    
C3    Cl31  S    
Ba4   O40   S    
O18   P2    S    
C8    Cl24  S    
Ba1   Ba2   S    
C38   C42   S    
C51   Cl15  S    
Ba3   P3    S    
O32   P4    S    
Ba1   O14   S    
O2    P2    D    
C44   C60   S    
C49   Cl13  S    
C69   H37   S    
Ba1   P1    S    
C13   P6    S    
C74   O30   S    
C3    C83   S    
C19   C23   A    
C62   H66   S    
C79   H15   S    
O40   P8    D    
C69   Cl1   S    
C66   C70   S    
C66   O5    S    
C47   H27   S    
C62   H30   S    
C65   C69   S    
O35   P16   S    
C82   O34   S    
C61   H29   S    
C18   C86   D    
O36   P15   S    
C47   H63   S    
Ba2   O38   S    
O9    P9    S    
O8    P8    S    
C46   H62   S    
C68   C72   S    
C1    C81   S    
C66   H34   S    
C78   H14   S    
O16   P7    S    
C65   H33   S    
Ba3   O20   S    
O20   P4    S    
C76   H8    S    
C7    Cl23  S    
C67   H35   S    
Ba1   O18   S    
C6    C58   A    
C81   H1    S    
C10   C26   A    
C7    C55   S    
C20   C88   D    
C64   H68   S    
C10   H54   S    
O48   P12   D    
C58   P13   S    
C35   Cl27  S    
O25   P14   D    
C3    H51   S    
C21   C25   A    
Ba4   O24   S    
C45   H25   S    
C67   C71   S    
C6    Cl22  S    
C52   Cl16  S    
C5    Cl21  S    
O12   P12   S    
Ba2   P6    S    
C24   C28   A    
C4    Cl32  S    
C31   H59   S    
C72   Cl4   S    
C1    Cl29  S    
C67   O8    S    
Ba1   P5    S    
C3    H23   S    
C68   O7    S    
C17   C85   D    
C82   H18   S    
C14   P5    S    
C72   H40   S    
C84   O36   S    
Ba4   O19   S    
C69   Cl5   S    
C11   C27   A    
C70   Cl2   S    
C52   C56   D    
C87   Cl19  S    
O6    P6    S    
C4    C84   S    
C14   C86   S    
O39   P7    D    
C74   H42   S    
C74   H6    S    
C5    C57   A    
C73   H41   S    
C48   H64   S    
C74   C78   S    
C1    H21   S    
C2    H50   S    
Ba1   O37   S    
C12   C16   A    
C1    H49   S    
O42   P10   S    
C72   Cl8   S    
C82   H2    S    
C78   H10   S    
Ba3   O15   S    
C54   P2    S    
O29   P1    S    
Ba4   P8    S    
Ba1   O21   S    
C46   C62   S    
C37   C49   S    
C36   Cl28  S    
C79   H11   S    
Ba2   O42   S    
C29   H57   S    
C84   H20   S    
C48   H28   S    
O5    P5    S    
O23   P16   S    
C76   H44   S    
O26   P13   D    
O4    P4    D    
C68   Cl36  S    
C39   C43   S    
C71   Cl3   S    
C16   P7    S    
C23   C27   A    
C57   P14   S    
Ba2   O14   S    
Ba3   O3    S    
C12   H56   S    
C75   C79   S    
C56   P4    S    
C78   H46   S    
C33   C41   S    
Ba3   Ba4   S    
Ba1   O41   S    
C60   P15   S    
C31   C33   D    
C33   Cl25  S    
C35   C43   S    
C45   O9    S    
C50   C54   D    
C75   H7    S    
C36   C44   S    
C77   H13   S    
C17   C21   A    
C83   H3    S    
C71   Cl7   S    
O3    P3    D    
Ba4   O44   S    
Ba2   P2    S    
C6    C54   S    
C50   Cl14  S    
C46   H26   S    
C65   Cl33  S    
C63   H31   S    
C2    Cl30  S    
C15   C87   S    
Ba3   O16   S    
C20   C24   A    
C9    H53   S    
O33   P14   S    
C4    H52   S    
C48   C64   S    
C15   P8    S    
Ba4   O16   S    
C80   H48   S    
C22   C26   A    
C39   C51   S    
C34   Cl26  S    
C63   H67   S    
C48   O12   S    
C12   C28   A    
C70   Cl6   S    
Ba3   O23   S    
C2    C82   S    
O43   P11   S    
C23   C31   S    
O15   P8    S    
O41   P9    S    
C18   P9    S    
C55   P3    S    
O30   P2    S    
O37   P5    D    
C22   C30   S    
Ba1   O1    S    
C37   C41   S    
C38   C50   S    
C32   C34   D    
C53   P1    S    
C40   C52   S    
Ba3   O43   S    
C47   C63   S    
C61   Cl9   S    
O1    P1    D    
O44   P12   S    
C80   H12   S    
C75   O31   S    
C41   C57   S    
Ba2   O2    S    
C49   C53   D    
C2    H22   S    
C5    C53   S    
C75   H43   S    
C11   H55   S    
C30   H58   S    
C79   H47   S    
C34   C42   S    
Ba1   O13   S    
O27   P16   D    
C4    H24   S    
O47   P11   D    
C9    C13   A    
C8    C56   S    
O28   P15   D    
O19   P3    S    
C73   O29   S    
C80   H16   S    
O14   P5    S    
O31   P3    S    
C24   C32   S    
C71   H39   S    
C62   Cl10  S    
C73   C77   S    
C18   C22   A    
C66   Cl34  S    
O17   P1    S    
Ba2   O13   S    
C68   H36   S    
C46   O10   S    
C86   Cl18  S    
C73   H5    S    
C64   Cl12  S    
C45   H61   S    
C85   Cl17  S    
C7    C59   A    
Ba3   P7    S    
O34   P13   S    
O46   P10   D    
C40   C44   S    
C21   C29   S    
O22   P13   S    
C47   O11   S    
