data_mof_unit_8937.cif
_audit_creation_date              2012-12-11T14:51:50-0500
_audit_creation_method            fapswitch 2.2
_symmetry_space_group_name_H-M    P1
_symmetry_Int_Tables_number       1
_space_group_crystal_system       triclinic
_cell_length_a                    6.940294
_cell_length_b                    16.753859
_cell_length_c                    16.765138
_cell_angle_alpha                 101.180718
_cell_angle_beta                  90.261522
_cell_angle_gamma                 90.487269
_cell_volume                      1912.28891491

loop_
_atom_site_label
_atom_site_type_symbol
_atom_type_description
_atom_site_fract_x
_atom_site_fract_y
_atom_site_fract_z
_atom_type_partial_charge
O1    O     O_R   0.506340 0.439070 0.579550 -0.535009
O2    O     O_R   0.170010 0.404890 0.412100 -0.541912
O3    O     O_R   0.005010 0.560930 0.420450 -0.534383
C1    C     C_R   0.339231 0.381184 0.383488 0.676357
O4    O     O_R   0.176280 0.429360 0.578400 -0.539620
O5    O     O_R   0.011320 0.585570 0.587940 -0.537649
C2    C     C_R   0.345885 0.414475 0.605919 0.691625
O6    O     O_R   0.500030 0.414430 0.412060 -0.535941
O7    O     O_3   0.340950 0.551220 0.502940 -0.365990
V1    V     V_3+5 0.064020 0.490500 0.499460 1.406469
O8    O     O_R   0.681910 0.595110 0.587900 -0.544584
C3    C     C_R   0.851537 0.616781 0.617950 0.676300
O9    O     O_R   0.675640 0.570640 0.421600 -0.538114
C4    C     C_R   0.845351 0.586723 0.395094 0.693853
V2    V     V_3+5 0.564670 0.509500 0.500540 1.404048
O10   O     O_3   0.837610 0.448780 0.497060 -0.365842
C5    C     C_R   0.903398 0.868892 0.173758 -0.097068
C6    C     C_R   0.863561 0.637579 0.332084 -0.058556
C7    C     C_R   0.017552 0.660560 0.207715 -0.171570
C8    C     C_R   0.981227 0.610878 0.264280 -0.166739
C9    C     C_R   0.783738 0.715817 0.342883 -0.223628
C10   C     C_R   0.824546 0.767205 0.287253 0.118790
C11   C     C_R   0.941253 0.739182 0.218861 0.152631
C12   C     C_R   0.979045 0.789867 0.162593 -0.268716
C13   C     C_R   0.795253 0.898754 0.245216 0.142124
C14   C     C_R   0.754212 0.846780 0.299961 -0.187652
H1    H     H_    0.108018 0.637903 0.155902 0.112076
H2    H     H_    0.667747 0.868946 0.353242 0.122026
H3    H     H_    0.046306 0.551270 0.255343 0.109861
H4    H     H_    0.696883 0.737745 0.396093 0.110659
C15   C     C_3   0.713924 0.788819 0.760599 -0.134870
C16   C     C_3   0.838132 0.775828 0.683003 0.184930
C17   C     C_3   0.866284 0.686627 0.688801 -0.054331
C18   C     C_3   0.743272 0.698385 0.766341 -0.165529
C19   C     C_3   0.927932 0.722230 0.818408 -0.134999
C20   C     C_3   0.050901 0.709691 0.740067 -0.143287
C21   C     C_3   0.022590 0.800012 0.734255 -0.144979
C22   C     C_3   0.899110 0.811757 0.811910 -0.035273
H5    H     H_    0.965811 0.700514 0.874923 0.101102
H6    H     H_    0.189649 0.676692 0.731494 0.113673
H7    H     H_    0.138624 0.841173 0.721408 0.117474
C23   C     C_3   0.479308 0.234645 0.315690 -0.131831
C24   C     C_3   0.317035 0.180096 0.269688 -0.133211
H8    H     H_    0.263730 0.122393 0.285268 0.099221
H9    H     H_    0.557406 0.222748 0.370060 0.100299
C25   C     C_3   0.410094 0.188439 0.188255 -0.009372
C26   C     C_3   0.572304 0.242122 0.233491 -0.119423
C27   C     C_3   0.449402 0.318565 0.231483 -0.140756
C28   C     C_3   0.287011 0.264101 0.185558 -0.134948
C29   C     C_3   0.194076 0.256558 0.267736 -0.118498
C30   C     C_3   0.356265 0.310340 0.312893 -0.011792
H10   H     H_    0.727587 0.235712 0.218599 0.103397
H11   H     H_    0.208446 0.276162 0.131357 0.100727
H12   H     H_    0.038799 0.262756 0.282705 0.103633
C31   C     C_R   0.404028 0.131022 0.825703 -0.117907
C32   C     C_R   0.363027 0.363762 0.669112 -0.064590
C33   C     C_R   0.518566 0.339098 0.792216 -0.157039
C34   C     C_R   0.484939 0.389326 0.736217 -0.166435
C35   C     C_R   0.276902 0.286320 0.658391 -0.217446
C36   C     C_R   0.321076 0.231591 0.711127 0.093104
C37   C     C_R   0.439336 0.260217 0.780137 0.119747
C38   C     C_R   0.476427 0.210608 0.836953 -0.280011
C39   C     C_R   0.302387 0.097809 0.752517 0.099490
C40   C     C_R   0.254867 0.149057 0.695806 0.121664
H13   H     H_    0.558320 0.234828 0.891687 0.123606
H14   H     H_    0.610761 0.361389 0.844252 0.111315
H15   H     H_    0.554198 0.448639 0.745385 0.106344
H16   H     H_    0.182089 0.269224 0.606651 0.123183
O11   O     O_R   0.266070 0.085680 0.087850 -0.535598
O12   O     O_R   0.590090 0.070660 0.921580 -0.535819
O13   O     O_R   0.754780 0.914400 0.912080 -0.535937
C41   C     C_R   0.420637 0.085310 0.893656 0.707005
O14   O     O_R   0.596110 0.095130 0.087880 -0.545309
O15   O     O_R   0.760850 0.939050 0.079570 -0.539615
C42   C     C_R   0.426997 0.118285 0.117018 0.672181
O16   O     O_R   0.260010 0.061030 0.920360 -0.540221
O17   O     O_3   0.425070 0.948840 0.997010 -0.366075
V3    V     V_3+5 0.702100 0.009490 0.000550 1.400426
O18   O     O_R   0.090200 0.929250 0.078500 -0.536250
C43   C     C_R   0.920910 0.915995 0.107284 0.698739
O19   O     O_R   0.084180 0.904770 0.912200 -0.544964
C44   C     C_R   0.914327 0.882159 0.882690 0.686510
V4    V     V_3+5 0.201420 0.990350 0.999580 1.399739
O20   O     O_3   0.928580 0.051150 0.002990 -0.366771
H17   H     H_    0.062659 0.766952 0.108646 0.118608
H18   H     H_    0.503153 0.376200 0.215895 0.098449
C45   C     C_3   0.724155 0.985794 0.266431 -0.354266
C46   C     C_3   0.826905 0.033305 0.341932 -0.785006
H19   H     H_    0.793366 0.007014 0.396245 0.226950
H20   H     H_    0.985261 0.032497 0.332433 0.223189
H21   H     H_    0.778552 0.097499 0.353642 0.215866
H22   H     H_    0.748104 0.019859 0.216954 0.183018
H23   H     H_    0.566351 0.985441 0.277438 0.171783
C47   C     C_3   0.257970 0.006536 0.733225 -0.343527
C48   C     C_3   0.377441 0.962585 0.661736 -0.782457
H24   H     H_    0.297720 0.957061 0.603631 0.230299
H25   H     H_    0.514957 0.995612 0.657397 0.236876
H26   H     H_    0.411299 0.900061 0.669848 0.210559
H27   H     H_    0.292151 0.976439 0.784644 0.173291
H28   H     H_    0.101676 0.995156 0.722554 0.158477
C49   C     C_3   0.134800 0.116365 0.619466 -0.334925
C50   C     C_3   0.256418 0.102625 0.541812 -0.762485
H29   H     H_    0.299499 0.160656 0.524409 0.215070
H30   H     H_    0.389707 0.068887 0.549578 0.232167
H31   H     H_    0.171180 0.066870 0.490694 0.215167
H32   H     H_    0.060179 0.058619 0.622618 0.186412
H33   H     H_    0.014573 0.158289 0.614044 0.163873
C51   C     C_3   0.782947 0.801983 0.603440 -0.356599
C52   C     C_3   0.840172 0.889989 0.604171 -0.802353
H34   H     H_    0.800739 0.929462 0.662742 0.224772
H35   H     H_    0.997786 0.894054 0.595730 0.232439
H36   H     H_    0.767024 0.911737 0.553442 0.222768
H37   H     H_    0.856491 0.762493 0.551829 0.165520
H38   H     H_    0.625061 0.793864 0.593720 0.174017
H39   H     H_    0.575305 0.821915 0.768994 0.108914
H40   H     H_    0.628460 0.656082 0.778991 0.104864

loop_
_geom_bond_atom_site_label_1
_geom_bond_atom_site_label_2
_ccdc_geom_bond_type
C49   H33   S    
C45   C46   S    
C49   C50   S    
O12   V3    S    
C6    C9    A    
C4    C6    S    
C7    C11   A    
C7    C8    A    
C33   H14   S    
C1    O6    A    
O19   C44   A    
C48   H26   S    
O17   V3    S    
C39   C47   S    
C29   H12   S    
V4    O20   S    
C20   C21   S    
C52   H35   S    
O5    C3    A    
O17   V4    S    
C18   H40   S    
V2    O10   S    
C31   C38   A    
C13   C45   S    
C17   C20   S    
C51   C52   S    
C50   H31   S    
C18   C19   S    
C51   H38   S    
O8    V2    S    
C27   C30   S    
C15   C16   S    
C31   C39   A    
C11   C12   A    
O1    V2    S    
C7    H1    S    
C12   H17   S    
C31   C41   S    
C41   O16   A    
C23   C30   S    
O13   C44   A    
C35   C36   A    
O15   C43   A    
O9    C4    A    
C22   C44   S    
O14   C42   A    
C50   H29   S    
C2    C32   S    
O16   V4    S    
C15   H39   S    
C25   C42   S    
O19   V4    S    
C29   C30   S    
C8    H3    S    
C40   C49   S    
C5    C12   A    
C1    C30   S    
C20   H6    S    
C19   C22   S    
C52   H36   S    
O4    C2    A    
C13   C14   A    
C5    C43   S    
O18   C43   A    
C36   C37   A    
C19   C20   S    
C51   H37   S    
C19   H5    S    
C24   H8    S    
C21   C22   S    
O11   V4    S    
C35   H16   S    
C26   C27   S    
C25   C28   S    
C46   H21   S    
C47   H28   S    
O14   V3    S    
C17   C18   S    
C15   C18   S    
C16   C51   S    
C47   C48   S    
C16   C21   S    
C50   H30   S    
O3    C4    A    
C27   C28   S    
C46   H20   S    
O6    V2    S    
O9    V2    S    
C10   C14   A    
C27   H18   S    
C23   C24   S    
O2    V1    S    
C45   H22   S    
O7    V1    S    
C49   H32   S    
C25   C26   S    
C38   H13   S    
O1    C2    A    
O5    V1    S    
O8    C3    A    
C48   H25   S    
C24   C29   S    
C33   C37   A    
C26   H10   S    
C9    H4    S    
C14   H2    S    
C32   C35   A    
C36   C40   A    
C5    C13   A    
C16   C17   S    
C15   C22   S    
O7    V2    S    
O4    V1    S    
O3    V1    S    
V1    O10   S    
C52   H34   S    
O18   V4    S    
C33   C34   A    
C47   H27   S    
C28   H11   S    
O2    C1    A    
C45   H23   S    
C32   C34   A    
O11   C42   A    
C6    C8    A    
C23   C26   S    
C21   H7    S    
C37   C38   A    
C24   C25   S    
C39   C40   A    
V3    O20   S    
C34   H15   S    
C46   H19   S    
C28   C29   S    
O15   V3    S    
C48   H24   S    
C10   C11   A    
O12   C41   A    
C3    C17   S    
C9    C10   A    
C23   H9    S    
O13   V3    S    
