data_mof_unit_21697.cif
_audit_creation_date              2013-03-05T16:40:03-0500
_audit_creation_method            fapswitch 2.2
_symmetry_space_group_name_H-M    P1
_symmetry_Int_Tables_number       1
_space_group_crystal_system       triclinic
_cell_length_a                    8.833575
_cell_length_b                    17.728656
_cell_length_c                    16.456618
_cell_angle_alpha                 91.042847
_cell_angle_beta                  98.199709
_cell_angle_gamma                 90.070941
_cell_volume                      2550.4395843

loop_
_atom_site_label
_atom_site_type_symbol
_atom_site_description
_atom_site_fract_x
_atom_site_fract_y
_atom_site_fract_z
_atom_type_partial_charge
O1    O     O_R   0.499990 0.391240 0.567930 -0.615651
O2    O     O_R   0.500010 0.608760 0.432070 -0.617021
O3    O     O_R   0.500000 0.391270 0.432120 -0.517668
O4    O     O_R   0.500000 0.608730 0.567880 -0.477303
C1    C     C_R   0.500845 0.355248 0.499383 0.844564
C2    C     C_R   0.497008 0.644757 0.500642 0.849356
O5    O     O_R   0.274830 0.499990 0.552240 -0.562018
O6    O     O_R   0.725170 0.500010 0.447760 -0.563569
O7    O     O_R   0.274840 0.500020 0.416420 -0.567965
O8    O     O_R   0.725160 0.499980 0.583580 -0.588340
C3    C     C_R   0.203754 0.499885 0.479276 0.851758
C4    C     C_R   0.796216 0.499468 0.520679 0.855425
Cu1   Cu    Cu3+1 0.499990 0.499980 0.580420 1.020984
Cu2   Cu    Cu3+1 0.500010 0.500020 0.419580 1.011976
C5    C     C_2   0.040311 0.489001 0.469102 -0.225384
C6    C     C_2   0.959739 0.509469 0.530799 -0.213831
C7    C     C_R   0.427634 0.847662 0.563137 -0.295426
C8    C     C_R   0.563810 0.150658 0.442247 -0.275692
H1    H     H_    0.377680 0.881376 0.607808 0.116154
H2    H     H_    0.621649 0.116387 0.401244 0.125343
C9    C     C_R   0.429062 0.767785 0.565329 0.463683
C10   C     C_R   0.566575 0.230140 0.439042 0.440566
C11   C     C_R   0.492250 0.727831 0.502637 -0.103194
C12   C     C_R   0.498351 0.272226 0.497955 -0.115689
C13   C     C_R   0.552167 0.767228 0.441058 -0.272373
C14   C     C_R   0.425547 0.234782 0.556327 -0.266009
H3    H     H_    0.601331 0.737210 0.393237 0.165955
H4    H     H_    0.371465 0.266385 0.601211 0.161089
C15   C     C_R   0.551459 0.845623 0.440985 -0.155718
C16   C     C_R   0.420146 0.156331 0.556918 -0.153440
H5    H     H_    0.599114 0.875075 0.393291 0.140022
H6    H     H_    0.363013 0.128353 0.602127 0.140358
C17   C     C_R   0.489435 0.885620 0.501914 0.104586
C18   C     C_R   0.489532 0.114468 0.500019 0.096007
C19   C     C_1   0.488213 0.966244 0.501622 -0.041310
C20   C     C_1   0.487872 0.033889 0.501391 -0.043190
C21   C     C_R   0.590909 0.550249 0.837323 -0.402618
C22   C     C_R   0.394514 0.458892 0.161069 -0.368750
H7    H     H_    0.657388 0.590247 0.878044 0.152106
H8    H     H_    0.308556 0.428093 0.120178 0.151873
C23   C     C_R   0.592389 0.549942 0.750441 0.686206
C24   C     C_R   0.395729 0.457258 0.247629 0.661662
N1    N     N_R   0.499960 0.499970 0.701210 -0.197371
N2    N     N_R   0.500040 0.500030 0.298790 -0.201101
C25   C     C_R   0.409699 0.450176 0.735085 -0.015049
C26   C     C_R   0.606981 0.541493 0.266436 -0.013755
H9    H     H_    0.337638 0.411152 0.695634 0.135918
H10   H     H_    0.689925 0.574550 0.306924 0.139302
C27   C     C_R   0.408556 0.448703 0.820638 -0.282471
C28   C     C_R   0.611404 0.542068 0.180998 -0.281077
H11   H     H_    0.336048 0.408503 0.845675 0.144576
H12   H     H_    0.697806 0.575255 0.157313 0.148002
C29   C     C_R   0.500077 0.499135 0.872928 0.097637
C30   C     C_R   0.503803 0.500485 0.127055 0.088911
C31   C     C_1   0.501194 0.499452 0.962663 -0.023896
C32   C     C_1   0.503305 0.500297 0.037390 -0.022182
C33   C     C_2   0.975993 0.443904 0.394979 0.373877
H13   H     H_    0.005744 0.458349 0.335490 0.103401
O9    O     O_2   0.896826 0.388284 0.400706 -0.504889
C34   C     C_2   0.024665 0.554490 0.604702 0.373712
H14   H     H_    0.000310 0.538393 0.664788 0.056094
O10   O     O_2   0.099056 0.611582 0.598143 -0.517734
O11   O     O_3   0.361893 0.726010 0.622284 -0.526679
C35   C     C_3   0.340468 0.767203 0.694117 0.109862
H15   H     H_    0.243858 0.807336 0.680528 0.135743
H16   H     H_    0.446895 0.797732 0.720687 0.118659
C36   C     C_3   0.299086 0.713219 0.758386 -0.731015
H17   H     H_    0.388435 0.669472 0.770797 0.255401
H18   H     H_    0.289940 0.744815 0.816376 0.172835
H19   H     H_    0.187607 0.685470 0.736743 0.258741
O12   O     O_3   0.648752 0.268110 0.386143 -0.531324
C37   C     C_3   0.625976 0.235795 0.306109 0.080277
H20   H     H_    0.503252 0.222072 0.285426 0.100631
H21   H     H_    0.696233 0.184119 0.303369 0.138084
C38   C     C_3   0.678924 0.291346 0.246775 -0.736832
H22   H     H_    0.804657 0.297508 0.260078 0.259185
H23   H     H_    0.647643 0.270274 0.182607 0.177100
H24   H     H_    0.625999 0.347319 0.253700 0.252225
O13   O     O_3   0.675180 0.601644 0.711041 -0.556389
C39   C     C_3   0.800697 0.636526 0.760744 0.028880
H25   H     H_    0.890600 0.646223 0.721459 0.181974
H26   H     H_    0.855810 0.600732 0.811337 0.113923
C40   C     C_3   0.756169 0.714089 0.791157 -0.831764
H27   H     H_    0.660683 0.710002 0.827850 0.235501
H28   H     H_    0.856074 0.740578 0.829845 0.208454
H29   H     H_    0.720092 0.750722 0.737879 0.256024
O14   O     O_3   0.284322 0.418506 0.281631 -0.577188
C41   C     C_3   0.264840 0.343190 0.251664 0.050619
H30   H     H_    0.273462 0.305843 0.305585 0.178807
H31   H     H_    0.352492 0.323298 0.213924 0.119136
C42   C     C_3   0.106103 0.332981 0.202790 -0.847710
H32   H     H_    0.097827 0.361460 0.142869 0.232830
H33   H     H_    0.081247 0.271951 0.191352 0.211172
H34   H     H_    0.019506 0.357707 0.237729 0.263416

loop_
_geom_bond_atom_site_label_1
_geom_bond_atom_site_label_2
_geom_bond_distance
_ccdc_geom_bond_type
C16   H6    1.083597 S    
C31   C32   1.227050 T    
C23   N1    1.375246 A    
C19   C20   1.199340 T    
O14   C41   1.416673 S    
O5    C3    1.273125 A    
C28   C30   1.403114 A    
C7    C17   1.395225 A    
O1    C1    1.286843 A    
C12   C14   1.405509 A    
C22   C24   1.423821 A    
C39   C40   1.525953 S    
C33   O9    1.220960 D    
C5    C6    1.364731 D    
C15   C17   1.392904 A    
C34   O10   1.220868 D    
C6    C34   1.486504 S    
O4    Cu1   1.942737 S    
C38   H23   1.110491 S    
C17   C19   1.429501 S    
C3    C5    1.441858 S    
C4    C6    1.440617 S    
C27   H11   1.082951 S    
C28   H12   1.082921 S    
C18   C20   1.429226 S    
C21   C29   1.399969 A    
C25   H9    1.081669 S    
Cu1   Cu2   2.646922 S    
C5    C33   1.488509 S    
O2    C2    1.289881 A    
C24   N2    1.373549 A    
C37   C38   1.518637 S    
N2    C26   1.368296 A    
C26   H10   1.081538 S    
C29   C31   1.475272 S    
C13   C15   1.389883 A    
C30   C32   1.474900 S    
C16   C18   1.393852 A    
C36   H17   1.107918 S    
C35   C36   1.521343 S    
C37   H21   1.111040 S    
C42   H32   1.109184 S    
O7    Cu2   1.982307 S    
C37   H20   1.114170 S    
C7    C9    1.417254 A    
O13   C39   1.414930 S    
C34   H14   1.084564 S    
C36   H18   1.110704 S    
C35   H16   1.113933 S    
C38   H22   1.105855 S    
C42   H33   1.111091 S    
O7    C3    1.284397 A    
C40   H27   1.108179 S    
C22   C30   1.398750 A    
C41   C42   1.522577 S    
C25   C27   1.410111 A    
O6    C4    1.272625 A    
N1    C25   1.367025 A    
O3    Cu2   1.942737 S    
O8    C4    1.284754 A    
C39   H26   1.112335 S    
C40   H28   1.110203 S    
C41   H31   1.113316 S    
C14   C16   1.391836 A    
C9    C11   1.419985 A    
C10   C12   1.414665 A    
O4    C2    1.284687 A    
O1    Cu1   1.935016 S    
C10   O12   1.392230 S    
Cu1   N1    1.987836 S    
Cu2   N2    1.987836 S    
O6    Cu2   1.976855 S    
C8    C10   1.411368 A    
C39   H25   1.108318 S    
O3    C1    1.287075 A    
O8    Cu1   1.982308 S    
C23   O13   1.396657 S    
C13   H3    1.083490 S    
C26   C28   1.412342 A    
C14   H4    1.083500 S    
C36   H19   1.109494 S    
C35   H15   1.112391 S    
O12   C37   1.414236 S    
C21   H7    1.079897 S    
C42   H34   1.106821 S    
C22   H8    1.080455 S    
C33   H13   1.084166 S    
C1    C12   1.471707 S    
C8    C18   1.394695 A    
C27   C29   1.401877 A    
C2    C11   1.473335 S    
C7    H1    1.081475 S    
C8    H2    1.081535 S    
C11   C13   1.404559 A    
C21   C23   1.431624 A    
O2    Cu2   1.935016 S    
C38   H24   1.108370 S    
C9    O11   1.400671 S    
O11   C35   1.413968 S    
O5    Cu1   1.976854 S    
C40   H29   1.110682 S    
C41   H30   1.110779 S    
C15   H5    1.083740 S    
C24   O14   1.386724 S    
