data_mof_unit_45082.cif
_audit_creation_date              2012-10-26T19:17:53-0400
_audit_creation_method            fapswitch 2.2
_symmetry_space_group_name_H-M    P1
_symmetry_Int_Tables_number       1
_space_group_crystal_system       triclinic
_cell_length_a                    10.83305
_cell_length_b                    12.372933
_cell_length_c                    13.223547
_cell_angle_alpha                 117.270603
_cell_angle_beta                  77.406573
_cell_angle_gamma                 100.296147
_cell_volume                      1531.17223704

loop_
_atom_site_label
_atom_site_type_symbol
_atom_type_description
_atom_site_fract_x
_atom_site_fract_y
_atom_site_fract_z
_atom_type_partial_charge
C1    C     C_R   0.506415 0.854967 0.287247 0.571041
C2    C     C_R   0.330739 0.201737 0.271159 -0.105285
C3    C     C_R   0.376921 0.106791 0.167438 0.210825
C4    C     C_R   0.737392 0.997559 0.498220 0.607532
C5    C     C_R   0.322280 0.987444 0.138780 -0.009431
C6    C     C_R   0.229131 0.959588 0.217160 0.236792
C7    C     C_R   0.187329 0.055526 0.325623 0.016619
C8    C     C_R   0.308543 0.280006 0.023853 -0.014075
C9    C     C_R   0.440410 0.229490 0.836638 0.000197
C10   C     C_R   0.545669 0.817548 0.083323 -0.168024
C11   C     C_R   0.537690 0.744409 0.967988 -0.144401
C12   C     C_R   0.773849 0.756390 0.758823 -0.130604
C13   C     C_R   0.498557 0.619453 0.928460 0.242818
C14   C     C_R   0.456301 0.570115 0.009636 0.105519
C15   C     C_R   0.436202 0.652046 0.128488 0.037362
C16   C     C_R   0.477055 0.145570 0.714028 0.538909
C17   C     C_R   0.425817 0.443153 0.977366 0.060442
C18   C     C_R   0.346438 0.404075 0.056788 0.015848
C19   C     C_R   0.306628 0.489364 0.168644 -0.116753
C20   C     C_R   0.352899 0.611277 0.204929 -0.074734
C21   C     C_R   0.477635 0.354085 0.870824 -0.100838
C22   C     C_R   0.354823 0.192253 0.915126 0.275935
C23   C     C_R   0.043029 0.958195 0.561810 -0.161889
C24   C     C_R   0.495487 0.773260 0.165370 0.010401
C25   C     C_R   0.674749 0.318283 0.299838 0.281580
C26   C     C_R   0.333860 0.765369 0.651694 0.035878
C27   C     C_R   0.296546 0.669825 0.682724 -0.148808
C28   C     C_R   0.264039 0.998640 0.495672 0.545186
C29   C     C_R   0.355132 0.561573 0.621245 -0.121331
C30   C     C_R   0.452820 0.546899 0.527099 -0.068547
C31   C     C_R   0.486887 0.645819 0.495755 0.173482
C32   C     C_R   0.519717 0.438577 0.464422 -0.126545
C33   C     C_R   0.602163 0.420456 0.359289 0.030996
C34   C     C_R   0.131572 0.998387 0.490719 -0.030725
C35   C     C_R   0.613050 0.507492 0.318367 0.224382
C36   C     C_R   0.580560 0.625022 0.394918 0.250260
C37   C     C_R   0.506817 0.345641 0.500489 0.029713
C38   C     C_R   0.657207 0.231691 0.342117 0.064390
C39   C     C_R   0.793232 0.884815 0.814912 0.270612
C40   C     C_R   0.820658 0.950804 0.749344 -0.011899
C41   C     C_R   0.833785 0.889814 0.628747 0.006585
C42   C     C_R   0.810355 0.762212 0.574667 -0.071877
C43   C     C_R   0.777858 0.696095 0.639706 -0.158998
C44   C     C_R   0.092584 0.031707 0.414456 -0.039100
C45   C     C_R   0.961399 0.030069 0.416336 0.221202
C46   C     C_R   0.872407 0.991469 0.491824 0.043283
C47   C     C_R   0.914645 0.950229 0.560842 -0.086117
C48   C     C_R   0.236353 0.176487 0.349965 -0.155847
Cl1   Cl    Cl    0.507473 0.135907 0.075568 -0.579824
Cl2   Cl    Cl    0.667852 0.476000 0.171592 -0.504564
Cu1   Cu    Cu3+1 0.529370 0.098270 0.475420 0.988863
Cu2   Cu    Cu3+1 0.470630 0.901730 0.524580 1.002074
H1    H     H_    0.757864 0.702725 0.806779 0.115021
H2    H     H_    0.443150 0.348982 0.576580 0.158562
H3    H     H_    0.287001 0.848595 0.699259 0.162125
H4    H     H_    0.320577 0.489967 0.648066 0.141493
H5    H     H_    0.221474 0.679518 0.754577 0.137636
H6    H     H_    0.843989 0.048679 0.791495 0.159532
H7    H     H_    0.828223 0.713056 0.481809 0.138025
H8    H     H_    0.763323 0.597427 0.597094 0.129214
H9    H     H_    0.074397 0.929581 0.617753 0.155375
H10   H     H_    0.203561 0.250874 0.431336 0.124716
H11   H     H_    0.368985 0.294915 0.291371 0.146504
H12   H     H_    0.354039 0.915222 0.055729 0.162848
H13   H     H_    0.118933 0.830097 0.246432 0.334546
H14   H     H_    0.389778 0.026857 0.861174 0.360438
H15   H     H_    0.525781 0.596557 0.769514 0.325549
H16   H     H_    0.784673 0.887774 0.964095 0.323037
H17   H     H_    0.806337 0.230119 0.175263 0.339831
H18   H     H_    0.733034 0.691409 0.322821 0.339161
H19   H     H_    0.985670 0.096340 0.302688 0.329497
H20   H     H_    0.243040 0.461162 0.229589 0.106714
H21   H     H_    0.244848 0.250410 0.083810 0.143444
H22   H     H_    0.550544 0.380235 0.813998 0.193542
H23   H     H_    0.585124 0.911468 0.108862 0.181845
H24   H     H_    0.561387 0.786060 0.909365 0.140788
H25   H     H_    0.316716 0.673176 0.291779 0.147710
H26   H     H_    0.707495 0.150302 0.297013 0.156869
N1    N     N_R   0.573890 0.246290 0.438210 -0.269601
N2    N     N_R   0.426890 0.754320 0.561170 -0.226049
O1    O     O_R   0.536940 0.972510 0.318130 -0.508738
O2    O     O_3   0.313248 0.072093 0.889022 -0.693840
O3    O     O_3   0.488319 0.548622 0.813552 -0.744975
O4    O     O_3   0.793177 0.947627 0.932072 -0.665199
O5    O     O_3   0.765476 0.306842 0.204900 -0.595782
O6    O     O_3   0.652475 0.718188 0.375556 -0.637164
O7    O     O_3   0.916428 0.058377 0.341640 -0.690009
O8    O     O_R   0.487330 0.806530 0.359650 -0.450013
O9    O     O_R   0.705160 0.082990 0.479250 -0.451486
O10   O     O_R   0.655550 0.917010 0.520760 -0.444456
O11   O     O_R   0.512670 0.193470 0.640350 -0.513582
O12   O     O_R   0.463060 0.027490 0.681870 -0.501725
O13   O     O_R   0.344450 0.082990 0.479240 -0.501573
O14   O     O_R   0.294840 0.917010 0.520750 -0.527407
O15   O     O_3   0.183755 0.838467 0.184417 -0.700940

loop_
_geom_bond_atom_site_label_1
_geom_bond_atom_site_label_2
_ccdc_geom_bond_type
H15   O3    S    
C27   C29   A    
C41   C42   A    
Cu2   O10   S    
C19   C20   A    
C26   H3    S    
C3    Cl1   S    
C31   N2    A    
C4    C46   S    
C45   C46   A    
C2    H11   S    
C37   N1    A    
C26   C27   A    
C20   H25   S    
C22   O2    S    
C45   O7    S    
C9    C16   S    
C39   O4    S    
C12   C43   A    
C11   H24   S    
C30   C31   A    
C9    C22   A    
C38   N1    A    
C1    O1    A    
C28   O14   A    
C18   C19   A    
Cu1   O11   S    
C35   C36   A    
C8    C22   A    
Cu2   O14   S    
Cu1   O1    S    
C12   H1    S    
C1    O8    A    
C28   C34   S    
C13   C14   A    
C14   C17   A    
C19   H20   S    
C4    O10   A    
C15   C20   A    
C40   H6    S    
Cu1   Cu2   S    
H16   O4    S    
Cu2   O8    S    
C23   C47   A    
C27   H5    S    
C39   C40   A    
C38   H26   S    
C36   O6    S    
C7    C44   S    
C21   H22   S    
C26   N2    A    
C5    H12   S    
C28   O13   A    
C29   C30   A    
C25   C38   A    
H14   O2    S    
C10   H23   S    
C48   H10   S    
H13   O15   S    
C23   C34   A    
C35   Cl2   S    
C25   O5    S    
C17   C18   A    
C41   C47   S    
C34   C44   A    
C32   C37   A    
C43   H8    S    
Cu1   O13   S    
H19   O7    S    
C37   H2    S    
C40   C41   A    
C16   O12   A    
Cu2   O12   S    
C42   C43   A    
H18   O6    S    
H17   O5    S    
C44   C45   A    
C4    O9    A    
C46   C47   A    
C15   C24   A    
C14   C15   A    
C3    C5    A    
C42   H7    S    
C6    C7    A    
C29   H4    S    
C8    C18   A    
C13   O3    S    
C2    C48   A    
C7    C48   A    
C12   C39   A    
C2    C3    A    
C1    C24   S    
C32   C33   A    
C30   C32   A    
C11   C13   A    
C9    C21   A    
C5    C6    A    
C8    H21   S    
C33   C35   A    
Cu1   N1    S    
C10   C11   A    
C23   H9    S    
C16   O11   A    
C10   C24   A    
C6    O15   S    
C31   C36   A    
Cu2   N2    S    
Cu1   O9    S    
C25   C33   A    
C17   C21   A    
