data_mof_unit_31488.cif
_audit_creation_date              2013-03-05T16:48:14-0500
_audit_creation_method            fapswitch 2.2
_symmetry_space_group_name_H-M    P1
_symmetry_Int_Tables_number       1
_space_group_crystal_system       triclinic
_cell_length_a                    23.451106
_cell_length_b                    8.925425
_cell_length_c                    8.097041
_cell_angle_alpha                 89.967004
_cell_angle_beta                  90.057104
_cell_angle_gamma                 90.151825
_cell_volume                      1694.79338905

loop_
_atom_site_label
_atom_site_type_symbol
_atom_site_description
_atom_site_fract_x
_atom_site_fract_y
_atom_site_fract_z
_atom_type_partial_charge
O1    O     O_R   0.500000 0.285350 0.636850 -0.613967
O2    O     O_R   0.500000 0.714650 0.363150 -0.613659
O3    O     O_R   0.500000 0.714650 0.636850 -0.614931
O4    O     O_R   0.500000 0.285350 0.363150 -0.615378
C1    C     C_R   0.499987 0.217971 0.500030 0.941475
C2    C     C_R   0.500014 0.782029 0.499970 0.942458
O5    O     O_R   0.416160 0.500000 0.636910 -0.621762
O6    O     O_R   0.583840 0.500000 0.363090 -0.622900
O7    O     O_R   0.583840 0.500000 0.636910 -0.621341
O8    O     O_R   0.416160 0.500000 0.363090 -0.623411
C3    C     C_R   0.208257 0.481747 0.491118 -0.011706
C4    C     C_R   0.791777 0.494189 0.493424 -0.018567
C5    C     C_R   0.388975 0.499161 0.499762 0.955151
C6    C     C_R   0.611013 0.499954 0.499947 0.955446
Zn1   Zn    Zn3+2 0.500000 0.500000 0.682780 1.010641
Zn2   Zn    Zn3+2 0.500000 0.500000 0.317220 1.009610
C7    C     C_R   0.297933 0.481664 0.346556 -0.276578
C8    C     C_R   0.702171 0.477591 0.348947 -0.277492
C9    C     C_R   0.295905 0.499626 0.646120 -0.281000
C10   C     C_R   0.703962 0.517388 0.646007 -0.285207
H1    H     H_    0.320919 0.476516 0.230733 0.209826
H2    H     H_    0.679233 0.462162 0.233973 0.210240
H3    H     H_    0.317445 0.509110 0.764068 0.210100
H4    H     H_    0.682292 0.534091 0.762628 0.210283
C11   C     C_R   0.326815 0.494087 0.497882 -0.235853
C12   C     C_R   0.673167 0.498492 0.498679 -0.236261
C13   C     C_R   0.880917 0.611959 0.428446 0.700707
C14   C     C_R   0.119295 0.352062 0.527436 0.694002
C15   C     C_R   0.879682 0.364219 0.539760 0.655925
C16   C     C_R   0.120062 0.605801 0.434173 0.656408
N1    N     N_R   0.852456 0.490817 0.489341 -0.335922
N2    N     N_R   0.147574 0.480091 0.485886 -0.337228
C17   C     C_R   0.939155 0.351976 0.522836 -0.152150
C18   C     C_R   0.060635 0.604659 0.413803 -0.157905
C19   C     C_R   0.940675 0.610003 0.416220 -0.126338
C20   C     C_R   0.059345 0.347298 0.521871 -0.131776
C21   C     C_R   0.969932 0.479162 0.467571 -0.129182
C22   C     C_R   0.029941 0.476630 0.466778 -0.130275
C23   C     C_R   0.968614 0.218085 0.562674 0.337193
C24   C     C_R   0.031203 0.728724 0.345878 0.348961
C25   C     C_R   0.971321 0.733805 0.352274 0.471700
C26   C     C_R   0.028637 0.217064 0.567535 0.477612
C27   C     C_1   0.499996 0.065200 0.500042 -0.167488
C28   C     C_1   0.500006 0.934801 0.499957 -0.167700
C29   C     C_R   0.238889 0.475289 0.343283 0.663635
C30   C     C_R   0.761256 0.475002 0.346476 0.663991
C31   C     C_R   0.236659 0.493707 0.642675 0.681488
C32   C     C_R   0.763235 0.515668 0.643274 0.691840
N3    N     N_1   0.500000 0.500000 0.073640 -0.027556
N4    N     N_1   0.500000 0.500000 0.926360 -0.027285
O9    O     O_2   0.850963 0.733963 0.382241 -0.433320
O10   O     O_2   0.149579 0.230919 0.574453 -0.418331
O11   O     O_2   0.848916 0.252754 0.609030 -0.466721
O12   O     O_2   0.150477 0.732162 0.407681 -0.464591
O13   O     O_3   0.940024 0.086053 0.594522 -0.699890
H5    H     H_    0.911820 0.071978 0.504591 0.400270
O14   O     O_3   0.059627 0.844116 0.267721 -0.692365
H6    H     H_    0.087355 0.798022 0.190720 0.390309
O15   O     O_3   0.941763 0.855859 0.290619 -0.674038
H7    H     H_    0.968266 0.938087 0.261283 0.383586
O16   O     O_3   0.058237 0.089165 0.612563 -0.639370
H8    H     H_    0.031727 0.008419 0.646365 0.387741
F1    F     F_    0.211264 0.463243 0.196486 -0.584722
F2    F     F_    0.789015 0.453053 0.201492 -0.579235
F3    F     F_    0.206807 0.501200 0.785904 -0.577861
F4    F     F_    0.792963 0.535022 0.785603 -0.569335

loop_
_geom_bond_atom_site_label_1
_geom_bond_atom_site_label_2
_geom_bond_distance
_ccdc_geom_bond_type
O4    Zn2   1.951394 S    
O5    C5    1.279945 A    
C9    H3    1.083199 S    
O7    C6    1.279584 A    
C21   C22   1.407530 A    
O1    Zn1   1.951815 S    
O2    Zn2   1.951814 S    
C3    C31   1.399689 A    
C4    N1    1.423805 S    
C8    C12   1.403531 A    
C14   O10   1.349608 S    
C17   C21   1.416165 A    
C4    C32   1.399824 A    
O3    C2    1.260666 A    
C7    C11   1.403749 A    
O13   H5    0.991044 S    
O5    Zn1   2.000552 S    
O7    Zn1   2.001278 S    
O15   H7    0.989445 S    
C15   N1    1.361565 A    
O8    Zn2   2.001280 S    
C6    C12   1.457734 S    
C16   N2    1.361351 A    
C16   O12   1.350007 S    
C26   O16   1.386048 S    
C5    C11   1.458355 S    
O14   H6    0.991642 S    
O2    C2    1.260846 A    
C10   C12   1.403884 A    
C13   C19   1.405135 A    
O6    C6    1.277743 A    
C18   C24   1.416921 A    
C8    C30   1.386013 A    
C20   C22   1.417748 A    
C24   C25   1.406160 A    
C19   C21   1.417930 A    
C13   O9    1.349915 S    
C3    N2    1.423698 S    
C15   O11   1.349538 S    
C23   C26   1.408172 A    
C9    C31   1.390492 A    
C27   C28   1.163866 T    
C1    C27   1.363547 S    
O16   H8    0.989214 S    
C19   C25   1.414729 A    
C7    C29   1.385883 A    
O1    C1    1.260849 A    
C3    C29   1.397938 A    
C16   C18   1.403203 A    
C9    C11   1.403781 A    
C13   N1    1.361592 A    
C29   F1    1.357312 S    
C15   C17   1.406116 A    
C14   N2    1.361901 A    
O3    Zn1   1.951393 S    
Zn2   N3    1.972277 S    
C14   C20   1.407116 A    
C4    C30   1.398296 A    
N3    N4    1.192531 T    
O6    Zn2   2.000550 S    
Zn1   N4    1.972277 S    
C2    C28   1.363556 S    
C24   O14   1.379122 S    
C10   C32   1.390358 A    
C32   F4    1.357195 S    
C8    H2    1.083402 S    
C17   C23   1.418764 A    
C20   C26   1.414943 A    
C31   F3    1.357021 S    
C7    H1    1.083240 S    
C10   H4    1.083360 S    
C25   O15   1.385323 S    
C30   F2    1.357480 S    
O4    C1    1.260664 A    
C23   O13   1.378612 S    
O8    C5    1.277693 A    
C18   C22   1.415498 A    
