data_mof_unit_46897.cif
_audit_creation_date              2012-10-26T18:26:56-0400
_audit_creation_method            fapswitch 2.2
_symmetry_space_group_name_H-M    P1
_symmetry_Int_Tables_number       1
_space_group_crystal_system       triclinic
_cell_length_a                    15.082018
_cell_length_b                    10.915566
_cell_length_c                    9.681096
_cell_angle_alpha                 88.938472
_cell_angle_beta                  89.706776
_cell_angle_gamma                 90.454515
_cell_volume                      1593.44109684

loop_
_atom_site_label
_atom_site_type_symbol
_atom_type_description
_atom_site_fract_x
_atom_site_fract_y
_atom_site_fract_z
_atom_type_partial_charge
C1    C     C_R   0.494343 0.264726 0.501558 0.543318
C2    C     C_R   0.185722 0.500628 0.374725 -0.132313
C3    C     C_R   0.231668 0.499791 0.500479 -0.009541
C4    C     C_R   0.328580 0.499840 0.500273 0.556050
C5    C     C_R   0.184817 0.499110 0.626080 -0.134581
C6    C     C_2   0.509650 0.936185 0.385367 -0.133982
C7    C     C_2   0.516170 0.865688 0.498959 -0.080075
C8    C     C_2   0.517737 0.069600 0.396008 -0.126524
C9    C     C_2   0.482779 0.130666 0.503077 0.255972
C10   C     C_2   0.437273 0.449643 0.924092 0.009198
C11   C     C_2   0.446489 0.432399 0.078926 0.070749
C12   C     C_R   0.906606 0.500177 0.626342 0.011774
C13   C     C_R   0.503947 0.734500 0.498874 0.547507
C14   C     C_R   0.671414 0.500319 0.499721 0.539284
C15   C     C_R   0.814260 0.500259 0.625259 -0.138786
C16   C     C_R   0.768318 0.500823 0.499505 -0.013647
C17   C     C_R   0.815169 0.501768 0.373907 -0.142820
C18   C     C_R   0.907573 0.501705 0.373206 0.013647
C19   C     C_R   0.953516 0.500797 0.499880 0.061681
C20   C     C_3   0.421692 0.105868 0.729863 0.020113
C21   C     C_3   0.508197 0.073676 0.805744 -0.271724
C22   C     C_3   0.508471 0.121276 0.952774 -0.477534
C23   C     C_R   0.954767 0.502368 0.248067 -0.133100
C24   C     C_3   0.608679 0.635140 0.115134 0.042987
C25   C     C_3   0.638031 0.736266 0.014042 -0.417732
C26   C     C_R   0.047206 0.501993 0.248282 -0.130810
C27   C     C_R   0.093373 0.501002 0.373639 0.012755
C28   C     C_R   0.046466 0.500439 0.500101 0.061586
C29   C     C_R   0.092408 0.499475 0.626777 0.013718
C30   C     C_R   0.045207 0.498952 0.751912 -0.130868
C31   C     C_R   0.952768 0.499324 0.751697 -0.133188
Cu1   Cu    Cu3+1 0.500020 0.500020 0.638630 0.927163
Cu2   Cu    Cu3+1 0.499980 0.499980 0.361370 0.972037
H1    H     H_    0.778303 0.499706 0.722558 0.121313
H2    H     H_    0.221680 0.501098 0.277430 0.128911
H3    H     H_    0.220105 0.498359 0.723399 0.122977
H4    H     H_    0.079756 0.498246 0.849813 0.102712
H5    H     H_    0.917399 0.498877 0.849447 0.099698
H6    H     H_    0.500920 0.896571 0.284173 0.145810
H7    H     H_    0.367563 0.053427 0.782778 0.151709
H8    H     H_    0.401635 0.202527 0.740914 0.154145
H9    H     H_    0.515008 0.972537 0.812046 0.157662
H10   H     H_    0.566522 0.112641 0.749336 0.163612
H11   H     H_    0.511622 0.222577 0.950464 0.151149
H12   H     H_    0.532779 0.905589 0.596801 0.132428
H13   H     H_    0.567765 0.086568 0.008151 0.139940
H14   H     H_    0.448176 0.089895 0.010007 0.145992
H15   H     H_    0.650459 0.553011 0.097494 0.104106
H16   H     H_    0.620558 0.669835 0.219981 0.183090
H17   H     H_    0.598424 0.820131 0.030884 0.153650
H18   H     H_    0.709190 0.758296 0.030267 0.092495
H19   H     H_    0.629084 0.706780 0.905858 0.157617
H20   H     H_    0.553781 0.117608 0.313647 0.097169
H21   H     H_    0.378038 0.413959 0.875665 0.104644
H22   H     H_    0.560029 0.510490 0.891335 0.237562
H23   H     H_    0.407385 0.360641 0.129475 0.076964
H24   H     H_    0.779902 0.502395 0.276597 0.110272
H25   H     H_    0.920210 0.503103 0.150169 0.099383
H26   H     H_    0.082571 0.502464 0.150528 0.103162
N1    N     N_2   0.499020 0.498660 0.846910 -0.324719
N2    N     N_2   0.499000 0.498630 0.153040 -0.056268
O1    O     O_R   0.500020 0.321960 0.617040 -0.515725
O2    O     O_3   0.517830 0.609657 0.095234 -0.466388
O3    O     O_R   0.499980 0.321920 0.382900 -0.529538
O4    O     O_R   0.370270 0.499990 0.617090 -0.504775
O5    O     O_R   0.370240 0.499950 0.382940 -0.498451
O6    O     O_R   0.500020 0.678080 0.617100 -0.485739
O7    O     O_R   0.499980 0.678040 0.382960 -0.480218
O8    O     O_R   0.629760 0.500050 0.617060 -0.515651
O9    O     O_R   0.629730 0.500010 0.382910 -0.532589
O10   O     O_3   0.422259 0.068384 0.590475 -0.580424

loop_
_geom_bond_atom_site_label_1
_geom_bond_atom_site_label_2
_ccdc_geom_bond_type
C8    H20   S    
C2    H2    S    
C23   H25   S    
C10   N1    D    
C24   C25   S    
C25   H18   S    
C20   O10   S    
C6    C7    D    
C25   H17   S    
C14   C16   S    
C26   H26   S    
C15   H1    S    
C12   C15   A    
C30   C31   A    
C3    C5    A    
C2    C27   A    
C1    O1    A    
C31   H5    S    
C17   C18   A    
C3    C4    S    
C25   H19   S    
Cu1   O1    S    
C21   H10   S    
C21   C22   S    
Cu1   Cu2   S    
C4    O5    A    
C19   C28   A    
C14   O9    A    
C26   C27   A    
C29   C30   A    
Cu2   O9    S    
Cu1   O6    S    
C20   H8    S    
C7    H12   S    
C12   C19   A    
C28   C29   A    
C22   H13   S    
Cu2   O5    S    
C2    C3    A    
C24   O2    S    
C5    C29   A    
Cu2   O3    S    
C12   C31   A    
C4    O4    A    
C20   H7    S    
C14   O8    A    
C22   H14   S    
C10   C11   S    
Cu1   N1    S    
C10   H21   S    
C18   C23   A    
C24   H15   S    
C5    H3    S    
C9    O10   S    
C7    C13   S    
C1    C9    S    
C20   C21   S    
C30   H4    S    
C8    C9    D    
Cu2   N2    S    
C18   C19   A    
C13   O6    A    
C23   C26   A    
C24   H16   S    
N2    O2    S    
C6    H6    S    
Cu1   O4    S    
C6    C8    S    
C21   H9    S    
C11   N2    D    
H22   N1    S    
Cu1   O8    S    
C1    O3    A    
C22   H11   S    
C11   H23   S    
C15   C16   A    
Cu2   O7    S    
C17   H24   S    
C16   C17   A    
C27   C28   A    
C13   O7    A    
