data_mof_unit_14688.cif
_audit_creation_date              2012-12-11T17:47:33-0500
_audit_creation_method            fapswitch 2.2
_symmetry_space_group_name_H-M    P1
_symmetry_Int_Tables_number       1
_space_group_crystal_system       triclinic
_cell_length_a                    14.888628
_cell_length_b                    14.871512
_cell_length_c                    15.164553
_cell_angle_alpha                 110.377333
_cell_angle_beta                  109.129359
_cell_angle_gamma                 108.643261
_cell_volume                      2592.64603305

loop_
_atom_site_label
_atom_site_type_symbol
_atom_type_description
_atom_site_fract_x
_atom_site_fract_y
_atom_site_fract_z
_atom_type_partial_charge
C1    C     C_R   0.904359 0.191851 0.987294 -0.140836
C2    C     C_R   0.029520 0.755644 0.941679 -0.123009
C3    C     C_R   0.294419 0.871315 0.298422 0.067471
C4    C     C_R   0.675221 0.209336 0.672898 0.054226
C5    C     C_R   0.325672 0.501780 0.055267 0.063270
C6    C     C_R   0.695481 0.496694 0.062504 0.067243
C7    C     C_R   0.039924 0.496198 0.320442 0.044313
C8    C     C_R   0.050112 0.499070 0.693080 0.060418
C9    C     C_R   0.937139 0.860559 0.836408 -0.238938
C10   C     C_R   0.824788 0.955783 0.905208 -0.224374
C11   C     C_R   0.034282 0.064110 0.665986 -0.137377
C12   C     C_R   0.853526 0.977075 0.204198 -0.133632
C13   C     C_R   0.964607 0.008570 0.695128 -0.186212
C14   C     C_R   0.887184 0.951928 0.127382 -0.157450
C15   C     C_R   0.681859 0.318459 0.190700 -0.122140
C16   C     C_R   0.371941 0.728197 0.900300 -0.138745
C17   C     C_R   0.785140 0.384906 0.282442 -0.120756
C18   C     C_R   0.299411 0.641863 0.794089 -0.136576
C19   C     C_R   0.850410 0.338901 0.311864 0.115663
C20   C     C_R   0.248887 0.662940 0.713483 0.116494
C21   C     C_R   0.810696 0.225602 0.248849 -0.187238
C22   C     C_R   0.281204 0.772565 0.738547 -0.167430
C23   C     C_R   0.294421 0.806613 0.206306 -0.133734
C24   C     C_R   0.684672 0.239497 0.775326 -0.129517
C25   C     C_R   0.707159 0.159458 0.156848 -0.112487
C26   C     C_R   0.358067 0.859187 0.844140 -0.110717
C27   C     C_R   0.642650 0.205865 0.127837 -0.111257
C28   C     C_R   0.401599 0.836906 0.925495 -0.110921
C29   C     C_R   0.969286 0.411874 0.501650 -0.253615
C30   C     C_R   0.145880 0.566939 0.513242 -0.252077
C31   C     C_R   0.061474 0.493489 0.601078 0.068623
C32   C     C_R   0.050366 0.488574 0.414599 0.074719
C33   C     C_R   0.152245 0.571693 0.608403 0.022828
C34   C     C_R   0.960632 0.410305 0.408547 0.012989
C35   C     C_R   0.007862 0.990765 0.780754 0.121388
C36   C     C_R   0.809337 0.879278 0.017136 0.109362
C37   C     C_R   0.184286 0.063332 0.790745 -0.144469
C38   C     C_R   0.665788 0.859740 0.062368 -0.169836
C39   C     C_R   0.085700 0.968569 0.409453 -0.153034
C40   C     C_R   0.751304 0.964248 0.459940 -0.126048
C41   C     C_R   0.186552 0.018565 0.415945 -0.152119
C42   C     C_R   0.671621 0.987954 0.473136 -0.124292
C43   C     C_R   0.277288 0.019842 0.485534 0.121790
C44   C     C_R   0.659996 0.073299 0.460082 0.111881
C45   C     C_R   0.225219 0.408896 0.977746 -0.148859
C46   C     C_R   0.787720 0.589602 0.095246 -0.157985
C47   C     C_R   0.267248 0.976256 0.552785 -0.206927
C48   C     C_R   0.727476 0.133173 0.431606 -0.186872
C49   C     C_R   0.165611 0.924253 0.543965 -0.120577
C50   C     C_R   0.812376 0.114446 0.426730 -0.144365
C51   C     C_R   0.074758 0.919856 0.471880 -0.091197
C52   C     C_R   0.822728 0.028606 0.438528 -0.130523
C53   C     C_R   0.475974 0.131497 0.567793 -0.242039
C54   C     C_R   0.472278 0.027071 0.374545 -0.226899
C55   C     C_R   0.574123 0.146263 0.568352 0.068500
C56   C     C_R   0.376627 0.987858 0.379756 0.051753
C57   C     C_R   0.571388 0.092846 0.468906 0.015792
C58   C     C_R   0.376445 0.048831 0.475397 0.030644
C59   C     C_R   0.144238 0.093015 0.714988 -0.078193
C60   C     C_R   0.742564 0.930438 0.171257 -0.120860
C61   C     C_R   0.841239 0.882443 0.936310 0.026307
C62   C     C_R   0.941629 0.951847 0.827420 0.028800
C63   C     C_R   0.117339 0.014696 0.825538 -0.163649
C64   C     C_R   0.698261 0.833481 0.985157 -0.159217
C65   C     C_R   0.905049 0.838208 0.907200 0.061938
C66   C     C_R   0.894670 0.008659 0.875710 0.048894
C67   C     C_R   0.057862 0.590593 0.313717 -0.142291
C68   C     C_R   0.998738 0.408026 0.698593 -0.169568
C69   C     C_3   0.491989 0.394172 0.028181 0.014423
C70   C     C_3   0.540786 0.602821 0.127731 0.028772
C71   C     C_3   0.434678 0.444898 0.974222 -0.243605
C72   C     C_3   0.599091 0.551823 0.182120 -0.248949
C73   C     C_3   0.428849 0.503212 0.078043 0.108060
C74   C     C_3   0.603545 0.494135 0.077511 0.090657
C75   C     C_3   0.485096 0.450631 0.129760 0.046849
C76   C     C_3   0.545674 0.545725 0.025942 0.037581
C77   C     C_R   0.313992 0.592888 0.069613 -0.137623
C78   C     C_R   0.697865 0.406684 0.000734 -0.124240
C79   C     C_R   0.975942 0.406372 0.217751 -0.101540
C80   C     C_R   0.083085 0.591454 0.786650 -0.129795
C81   C     C_R   0.205493 0.803396 0.298402 -0.145619
C82   C     C_R   0.779653 0.247405 0.687323 -0.124887
C83   C     C_R   0.002615 0.198508 0.904744 -0.152045
C84   C     C_R   0.931952 0.749790 0.027151 -0.138886
C85   C     C_R   0.934645 0.128449 0.922345 0.071031
C86   C     C_R   0.951272 0.781876 0.955984 0.054735
H1    H     H_    0.843003 0.162760 0.008642 0.098698
H2    H     H_    0.067201 0.771383 0.895224 0.089702
H3    H     H_    0.004577 0.087734 0.607812 0.123331
H4    H     H_    0.913129 0.036662 0.288214 0.099107
H5    H     H_    0.267336 0.078795 0.823120 0.101953
H6    H     H_    0.581097 0.827398 0.037972 0.116358
H7    H     H_    0.562658 0.154772 0.056420 0.100894
H8    H     H_    0.457732 0.903827 0.008088 0.097571
H9    H     H_    0.632843 0.354772 0.168312 0.124069
H10   H     H_    0.402783 0.709995 0.963212 0.099422
H11   H     H_    0.814694 0.472191 0.330004 0.107714
H12   H     H_    0.275965 0.558133 0.776560 0.113314
H13   H     H_    0.861460 0.189700 0.268700 0.118651
H14   H     H_    0.243097 0.790792 0.677843 0.104687
H15   H     H_    0.677302 0.072591 0.107338 0.128023
H16   H     H_    0.380954 0.943298 0.863625 0.097966
H17   H     H_    0.898033 0.356003 0.497473 0.132608
H18   H     H_    0.213350 0.626980 0.516234 0.132289
H19   H     H_    0.880448 0.989961 0.659661 0.124464
H20   H     H_    0.973124 0.993724 0.152762 0.114285
H21   H     H_    0.341833 0.833884 0.171026 0.085764
H22   H     H_    0.619959 0.223240 0.795009 0.090643
H23   H     H_    0.151548 0.998203 0.889179 0.110945
H24   H     H_    0.637063 0.782575 0.900174 0.126424
H25   H     H_    0.995940 0.878987 0.464650 0.110294
H26   H     H_    0.884624 0.010318 0.428563 0.099692
H27   H     H_    0.015106 0.963787 0.353143 0.112126
H28   H     H_    0.757976 0.896293 0.466665 0.110124
H29   H     H_    0.192545 0.050526 0.362699 0.113305
H30   H     H_    0.617575 0.938675 0.491479 0.113235
H31   H     H_    0.335987 0.975343 0.605965 0.118151
H32   H     H_    0.717431 0.197243 0.418558 0.125738
H33   H     H_    0.156981 0.886479 0.592278 0.119808
H34   H     H_    0.868695 0.164304 0.411166 0.115531
H35   H     H_    0.476105 0.176077 0.641564 0.125055
H36   H     H_    0.474044 0.988262 0.300749 0.123625
H37   H     H_    0.972292 0.817235 0.798972 0.125108
H38   H     H_    0.775112 0.988182 0.927334 0.128656
H39   H     H_    0.208341 0.324561 0.943779 0.110155
H40   H     H_    0.815325 0.673407 0.153576 0.098131
H41   H     H_    0.101824 0.674773 0.379431 0.106401
H42   H     H_    0.975506 0.324050 0.645198 0.110033
H43   H     H_    0.375280 0.678231 0.122314 0.109912
H44   H     H_    0.645373 0.321748 0.972791 0.103084
H45   H     H_    0.948539 0.320920 0.193672 0.111507
H46   H     H_    0.133373 0.676239 0.812595 0.115311
H47   H     H_    0.171632 0.823196 0.349627 0.136613
H48   H     H_    0.805612 0.247687 0.629808 0.123235
H49   H     H_    0.036853 0.181715 0.853749 0.130269
H50   H     H_    0.873945 0.752742 0.053927 0.118340
H51   H     H_    0.197687 0.135671 0.691933 0.120095
H52   H     H_    0.714317 0.950513 0.228406 0.140147
N1    N     N_R   0.947560 0.293820 0.002910 -0.041854
N2    N     N_R   0.052440 0.706180 0.997090 -0.041136
N3    N     N_R   0.208960 0.706170 0.152110 -0.039410
N4    N     N_R   0.791040 0.293830 0.847890 -0.040703
N5    N     N_R   0.154330 0.443160 0.946140 -0.040399
N6    N     N_R   0.845670 0.556840 0.053860 -0.038711
N7    N     N_R   0.002190 0.556820 0.208880 -0.040787
N8    N     N_R   0.997810 0.443180 0.791120 -0.037994
N9    N     N_R   0.210550 0.556810 0.002910 -0.041934
N10   N     N_R   0.789450 0.443190 0.997090 -0.039829
N11   N     N_R   0.945970 0.443180 0.152110 -0.041278
N12   N     N_R   0.054030 0.556820 0.847890 -0.039240
N13   N     N_R   0.151530 0.706170 0.208880 -0.041470
N14   N     N_R   0.848470 0.293830 0.791120 -0.042418
N15   N     N_R   0.004980 0.293810 0.946140 -0.040202
N16   N     N_R   0.995020 0.706190 0.053860 -0.040788
Ni1   Ni    Ni4+2 0.869690 0.369690 0.000000 0.217763
Ni2   Ni    Ni4+2 0.130310 0.630310 0.000000 0.212727
Ni3   Ni    Ni4+2 0.001390 0.369680 0.869810 0.214294
Ni4   Ni    Ni4+2 0.998610 0.630320 0.130190 0.215016
N17   N     N_3   0.447844 0.398980 0.186065 -0.210419
H53   H     H_    0.496309 0.364728 0.208312 0.102160
H54   H     H_    0.368474 0.333829 0.130481 0.100926
N18   N     N_3   0.576602 0.595104 0.965672 -0.210864
H55   H     H_    0.521823 0.622106 0.939738 0.102969
H56   H     H_    0.653397 0.664256 0.020133 0.124123
H57   H     H_    0.369117 0.401609 0.888774 0.128660
H58   H     H_    0.666491 0.594484 0.266466 0.126094
N19   N     N_3   0.465819 0.279594 0.976057 -0.238388
H59   H     H_    0.440900 0.252319 0.894302 0.097142
H60   H     H_    0.399012 0.234974 0.980487 0.093903
N20   N     N_3   0.571565 0.718428 0.185246 -0.216121
H61   H     H_    0.656285 0.763837 0.221638 0.116341
H62   H     H_    0.538931 0.738614 0.127762 0.077898

loop_
_geom_bond_atom_site_label_1
_geom_bond_atom_site_label_2
_ccdc_geom_bond_type
C16   C28   A    
C8    C80   A    
C39   C51   A    
C1    H1    S    
C80   H46   S    
C72   C74   S    
C41   C43   A    
C76   N18   S    
N6    N10   A    
C66   C85   S    
C65   C86   S    
C47   C49   A    
N8    Ni3   S    
C80   N12   A    
C10   C66   A    
C74   C76   S    
C81   N13   A    
C50   H34   S    
C12   H4    S    
C19   C21   A    
C84   C86   A    
N16   Ni4   S    
C10   H38   S    
C15   H9    S    
C71   C76   S    
C21   H13   S    
C6    C78   A    
N20   H61   S    
C52   H26   S    
C38   H6    S    
C29   H17   S    
C28   H8    S    
C2    C86   A    
N4    N14   A    
C69   C71   S    
C14   C36   A    
C21   C25   A    
C43   C58   S    
C9    H37   S    
N8    N12   A    
C3    C23   A    
C40   H28   S    
C45   H39   S    
C49   C51   A    
C67   N7    A    
C50   C52   A    
N17   H54   S    
C2    H2    S    
C24   H22   S    
N10   Ni1   S    
N4    Ni1   S    
C43   C47   A    
C77   N9    A    
C83   H49   S    
C1    N1    A    
C78   N10   A    
C79   N11   A    
C40   C42   A    
C54   H36   S    
C79   H45   S    
N12   Ni2   S    
C5    C73   S    
C73   C75   S    
C42   C44   A    
C41   H29   S    
C72   C75   S    
C11   C59   A    
C37   C63   A    
N5    Ni3   S    
N18   H56   S    
C53   C55   A    
C1    C85   A    
C15   C27   A    
C54   C56   A    
C16   H10   S    
C22   H14   S    
C37   H5    S    
C9    C62   A    
N13   Ni4   S    
N19   H60   S    
C24   N4    A    
N19   H59   S    
C71   C73   S    
C62   C66   A    
C48   H32   S    
C39   H27   S    
C40   C52   A    
C6    C74   S    
C5    C45   A    
C29   C34   A    
C70   C72   S    
C32   C34   A    
C82   H48   S    
N5    N9    A    
C69   N19   S    
C3    C81   A    
C67   H41   S    
C78   H44   S    
C3    C56   S    
C11   H3    S    
C64   H24   S    
N17   H53   S    
N1    Ni1   S    
C44   C57   S    
C23   H21   S    
C70   C73   S    
C31   C33   A    
C69   C74   S    
C84   N16   A    
C77   H43   S    
C81   H47   S    
N9    Ni2   S    
C37   C59   A    
C22   C26   A    
N2    Ni2   S    
C38   C60   A    
C20   C33   S    
N6    Ni4   S    
C13   H19   S    
C83   C85   A    
C12   C14   A    
C8    C68   A    
C55   C57   A    
C4    C55   S    
C70   C76   S    
C27   H7    S    
C10   C61   A    
C5    C77   A    
C36   C61   S    
C68   N8    A    
N3    N13   A    
C7    C79   A    
N18   H55   S    
C75   N17   S    
C15   C17   A    
C68   H42   S    
N14   Ni3   S    
C84   H50   S    
C51   H25   S    
C7    C32   S    
C6    C46   A    
C30   C33   A    
C8    C31   S    
C72   H58   S    
C46   H40   S    
C70   N20   S    
C20   C22   A    
C19   C34   S    
C46   N6    A    
C53   C58   A    
N3    Ni2   S    
C13   C35   A    
C83   N15   A    
C25   C27   A    
C26   C28   A    
C2    N2    A    
N7    N11   A    
N11   Ni1   S    
C29   C31   A    
C53   H35   S    
C26   H16   S    
C30   C32   A    
N7    Ni4   S    
C11   C13   A    
C25   H15   S    
C49   H33   S    
N20   H62   S    
C4    C24   A    
C42   H30   S    
C48   C50   A    
C17   C19   A    
C56   C58   A    
C69   C75   S    
C35   C62   S    
C18   C20   A    
N15   Ni3   S    
C9    C65   A    
C7    C67   A    
C12   C60   A    
C61   C65   A    
C47   H31   S    
C4    C82   A    
C39   C41   A    
C16   C18   A    
C71   H57   S    
C14   H20   S    
C30   H18   S    
C45   N5    A    
C38   C64   A    
N1    N15   A    
C23   N3    A    
C35   C63   A    
C18   H12   S    
C36   C64   A    
C17   H11   S    
C59   H51   S    
C82   N14   A    
C44   C48   A    
N2    N16   A    
C63   H23   S    
C54   C57   A    
C60   H52   S    
