data_mof_unit_38385.cif
_audit_creation_date              2012-12-11T15:32:41-0500
_audit_creation_method            fapswitch 2.2
_symmetry_space_group_name_H-M    P1
_symmetry_Int_Tables_number       1
_space_group_crystal_system       triclinic
_cell_length_a                    6.95535
_cell_length_b                    20.455683
_cell_length_c                    24.427939
_cell_angle_alpha                 89.622325
_cell_angle_beta                  90.351465
_cell_angle_gamma                 89.201677
_cell_volume                      3475.03983996

loop_
_atom_site_label
_atom_site_type_symbol
_atom_type_description
_atom_site_fract_x
_atom_site_fract_y
_atom_site_fract_z
_atom_type_partial_charge
O1    O     O_R   0.507320 0.423560 0.460500 -0.543475
O2    O     O_R   0.170760 0.556250 0.437010 -0.539680
O3    O     O_R   0.004030 0.576440 0.539500 -0.523856
C1    C     C_R   0.338554 0.576352 0.421074 0.711293
O4    O     O_R   0.177370 0.422820 0.454110 -0.528541
O5    O     O_R   0.010680 0.442050 0.556720 -0.525798
C2    C     C_R   0.346652 0.398944 0.443352 0.732452
O6    O     O_R   0.500680 0.557950 0.443280 -0.537855
O7    O     O_3   0.340380 0.506470 0.533650 -0.361503
V1    V     V_3+5 0.064130 0.498800 0.493760 1.471205
O8    O     O_R   0.681160 0.443750 0.562990 -0.540057
C3    C     C_R   0.850962 0.423781 0.578854 0.737549
O9    O     O_R   0.674560 0.577180 0.545890 -0.546662
C4    C     C_R   0.842117 0.601194 0.556341 0.738854
V2    V     V_3+5 0.564560 0.501200 0.506240 1.442484
O10   O     O_3   0.838180 0.493530 0.466350 -0.372785
C5    C     C_R   0.978951 0.838523 0.910744 -0.077505
C6    C     C_R   0.844937 0.661410 0.589233 -0.075957
C7    C     C_R   0.049777 0.722309 0.905679 0.173935
C8    C     C_R   0.054142 0.781301 0.934040 -0.225261
C9    C     C_R   0.910128 0.838793 0.856368 0.129833
C10   C     C_R   0.936616 0.781648 0.823012 0.002456
C11   C     C_R   0.987075 0.721983 0.850319 0.098914
C12   C     C_R   0.913723 0.780446 0.764272 0.078534
C13   C     C_R   0.909659 0.719464 0.735732 0.079632
C14   C     C_R   0.917317 0.661893 0.767325 -0.212409
C15   C     C_R   0.967640 0.662858 0.822269 -0.184557
C16   C     C_R   0.906011 0.838018 0.732682 -0.211774
C17   C     C_R   0.855787 0.837052 0.677732 -0.183968
C18   C     C_R   0.836497 0.777930 0.649670 0.097786
C19   C     C_R   0.886876 0.718263 0.676989 0.001909
C20   C     C_R   0.774053 0.777613 0.594285 0.177186
C21   C     C_R   0.769868 0.718633 0.565911 -0.226168
C22   C     C_R   0.913477 0.661122 0.643636 0.130615
H1    H     H_    0.985680 0.616209 0.842908 0.137511
H2    H     H_    0.716454 0.717651 0.524119 0.119542
H3    H     H_    0.837752 0.883700 0.657093 0.138137
H4    H     H_    0.107782 0.782289 0.975807 0.120781
H5    H     H_    0.884093 0.614963 0.750528 0.135238
H6    H     H_    0.939156 0.884951 0.749486 0.136706
C23   C     C_3   0.786768 0.296351 0.762931 0.183873
C24   C     C_3   0.973400 0.281515 0.794922 0.122259
H7    H     H_    0.225401 0.301282 0.731992 0.152258
C25   C     C_1   0.961070 0.121742 0.875573 -0.185786
C26   C     C_1   0.863561 0.378442 0.624601 -0.179472
C27   C     C_3   0.746527 0.223262 0.759790 0.207760
C28   C     C_3   0.932141 0.207642 0.791749 0.113234
C29   C     C_3   0.853166 0.218630 0.704720 -0.168307
C30   C     C_3   0.895132 0.292773 0.708529 0.088226
C31   C     C_3   0.042975 0.203304 0.737000 -0.206707
C32   C     C_3   0.085149 0.277991 0.740134 -0.177856
C33   C     C_1   0.948939 0.160264 0.837685 -0.003398
C34   C     C_1   0.876554 0.340026 0.662566 -0.011539
H8    H     H_    0.148326 0.164322 0.726207 0.142354
H9    H     H_    0.801380 0.192532 0.667884 0.127061
C35   C     C_3   0.510659 0.720285 0.209018 -0.131973
C36   C     C_3   0.312746 0.699366 0.231641 0.126693
H10   H     H_    0.594006 0.695564 0.176324 0.124864
H11   H     H_    0.098800 0.789151 0.213855 0.117336
C37   C     C_1   0.347390 0.621874 0.375132 -0.181193
C38   C     C_1   0.476784 0.878105 0.124889 -0.193905
C39   C     C_3   0.578295 0.729623 0.268666 0.180906
C40   C     C_3   0.384211 0.707515 0.291045 0.129703
C41   C     C_3   0.512760 0.801995 0.268165 -0.192655
C42   C     C_3   0.438733 0.792386 0.208813 0.068678
C43   C     C_3   0.314838 0.779475 0.289664 0.143078
C44   C     C_3   0.239461 0.771375 0.230203 -0.145383
C45   C     C_1   0.361165 0.660293 0.337122 -0.005841
C46   C     C_1   0.462744 0.839597 0.162855 -0.028625
H12   H     H_    0.597722 0.843638 0.283594 0.124902
C47   C     C_R   0.464076 0.162933 0.087805 -0.165146
C48   C     C_R   0.351811 0.337648 0.411574 -0.064085
C49   C     C_R   0.428491 0.281335 0.087686 0.222782
C50   C     C_R   0.446701 0.222427 0.059034 0.115861
C51   C     C_R   0.461703 0.162482 0.145833 0.111472
C52   C     C_R   0.419046 0.221394 0.175355 0.031515
C53   C     C_R   0.414329 0.281029 0.145423 -0.031535
C54   C     C_R   0.380725 0.223562 0.233281 0.063501
C55   C     C_R   0.376441 0.284863 0.262098 0.002010
C56   C     C_R   0.369531 0.343305 0.229695 0.165210
C57   C     C_R   0.388704 0.340138 0.173096 -0.114012
C58   C     C_R   0.324460 0.167030 0.262023 -0.119607
C59   C     C_R   0.288787 0.167879 0.317704 -0.214106
C60   C     C_R   0.310099 0.224888 0.347732 0.111255
C61   C     C_R   0.360841 0.284022 0.321176 0.096057
C62   C     C_R   0.275782 0.222989 0.404273 -0.192810
C63   C     C_R   0.290928 0.279326 0.436111 0.203206
C64   C     C_R   0.395209 0.338833 0.355340 -0.289598
H13   H     H_    0.377700 0.385731 0.150364 0.186923
H14   H     H_    0.456798 0.382935 0.339749 0.125208
H15   H     H_    0.243449 0.123110 0.337502 0.125223
H16   H     H_    0.291252 0.122084 0.241576 0.162889
H17   H     H_    0.233160 0.177587 0.423557 0.110628
O11   O     O_R   0.323550 0.942140 0.056770 -0.537181
O12   O     O_R   0.647080 0.077200 0.045890 -0.542416
O13   O     O_R   0.813610 0.057920 0.943260 -0.531155
C65   C     C_R   0.477361 0.101141 0.056591 0.710666
O14   O     O_R   0.653470 0.943760 0.063000 -0.539069
O15   O     O_R   0.820050 0.923540 0.960490 -0.521032
C66   C     C_R   0.485663 0.923705 0.078972 0.717863
O16   O     O_R   0.317110 0.076520 0.039540 -0.539682
O17   O     O_3   0.483830 0.993580 0.966380 -0.357677
V3    V     V_3+5 0.760140 0.001190 0.006240 1.436428
O18   O     O_R   0.149510 0.922740 0.954070 -0.544815
C67   C     C_R   0.981903 0.898752 0.943633 0.746690
O19   O     O_R   0.143120 0.056170 0.936970 -0.539014
C68   C     C_R   0.973376 0.076257 0.921194 0.724847
V4    V     V_3+5 0.259690 0.998700 0.993700 1.431416
O20   O     O_3   0.986130 0.006420 0.033620 -0.373926
C69   C     C_3   0.706775 0.839076 0.564939 -0.797452
H18   H     H_    0.654153 0.828869 0.522863 0.208233
H19   H     H_    0.586707 0.862266 0.587825 0.211212
H20   H     H_    0.827466 0.873775 0.561443 0.204507
C70   C     C_3   0.041858 0.317419 0.845545 -0.793564
H21   H     H_    0.059363 0.370026 0.835697 0.214265
H22   H     H_    0.934789 0.312162 0.878724 0.210806
H23   H     H_    0.182004 0.296424 0.859431 0.219991
N1    N     N_3   0.643797 0.346167 0.776718 -0.678110
H24   H     H_    0.598323 0.336659 0.816642 0.228191
H25   H     H_    0.713733 0.391033 0.777481 0.232972
N2    N     N_3   0.561855 0.193354 0.770505 -0.662618
H26   H     H_    0.465706 0.211663 0.741062 0.231718
H27   H     H_    0.514232 0.210112 0.808472 0.232190
C71   C     C_3   0.200198 0.641515 0.210475 -0.771053
H28   H     H_    0.163716 0.649381 0.166617 0.210406
H29   H     H_    0.288459 0.596160 0.214984 0.221856
H30   H     H_    0.065875 0.636219 0.234219 0.233491
N3    N     N_3   0.033014 0.606448 0.660012 -0.675123
H31   H     H_    0.136321 0.619776 0.688929 0.245371
H32   H     H_    0.947524 0.568117 0.673682 0.208884
C72   C     C_3   0.204630 0.813594 0.335035 -0.805540
H33   H     H_    0.169574 0.864609 0.322412 0.215625
H34   H     H_    0.069619 0.787258 0.343409 0.208160
H35   H     H_    0.293932 0.814095 0.372829 0.212584
N4    N     N_3   0.762665 0.706045 0.289828 -0.669022
H36   H     H_    0.868954 0.732250 0.269705 0.230069
H37   H     H_    0.770046 0.718953 0.331094 0.224801
N5    N     N_3   0.244954 0.277772 0.493420 -0.670855
H38   H     H_    0.372790 0.284483 0.515287 0.215255
H39   H     H_    0.193929 0.231806 0.504725 0.223409
N6    N     N_3   0.419853 0.342043 0.057823 -0.677033
H40   H     H_    0.302752 0.340844 0.030813 0.253559
H41   H     H_    0.545496 0.346123 0.034835 0.251925
N7    N     N_3   0.451558 0.224198 0.000271 -0.682462
H42   H     H_    0.337789 0.196581 0.985166 0.230484
H43   H     H_    0.580827 0.202818 0.987360 0.227017
N8    N     N_3   0.520467 0.103786 0.174196 -0.682637
H44   H     H_    0.660017 0.091318 0.162014 0.237706
H45   H     H_    0.429024 0.066009 0.162766 0.208325
N9    N     N_3   0.308512 0.405768 0.250096 -0.685973
H46   H     H_    0.200577 0.401217 0.279385 0.245038
H47   H     H_    0.426933 0.432171 0.263613 0.229679
C73   C     C_3   0.117180 0.660845 0.935001 -0.789011
H48   H     H_    0.170001 0.671052 0.977056 0.210000
H49   H     H_    0.996504 0.626146 0.938544 0.205840
H50   H     H_    0.237131 0.637650 0.912069 0.211129
N10   N     N_3   0.790429 0.893443 0.840033 -0.672162
H51   H     H_    0.875808 0.931799 0.826356 0.211962
H52   H     H_    0.687106 0.880103 0.811125 0.245878

loop_
_geom_bond_atom_site_label_1
_geom_bond_atom_site_label_2
_ccdc_geom_bond_type
C13   C19   A    
C29   H9    S    
O15   V3    S    
C12   C13   A    
N10   H51   S    
C49   C50   A    
C4    C6    S    
O2    C1    A    
C7    C8    A    
C55   C61   A    
C1    O6    A    
C72   H35   S    
N3    H31   S    
C21   H2    S    
C70   H21   S    
N4    H36   S    
C53   C57   A    
C49   N6    S    
V4    O20   S    
C56   N9    S    
C47   C65   S    
O11   V4    S    
C14   C15   A    
C31   H8    S    
C20   C69   S    
C16   C17   A    
N8    H45   S    
C60   C62   A    
N6    H41   S    
O5    C3    A    
C18   C19   A    
C30   C34   S    
C14   H5    S    
C25   C68   S    
O19   C68   A    
C16   H6    S    
O14   V3    S    
C5    C8    A    
C58   H16   S    
C35   C36   S    
C23   C24   S    
C69   H18   S    
C39   C41   S    
H11   C44   S    
N1    H24   S    
O8    V2    S    
C24   C70   S    
N8    H44   S    
C42   C44   S    
C23   C27   S    
C27   N2    S    
O17   V4    S    
O1    V2    S    
C41   H12   S    
C23   N1    S    
C73   H49   S    
O7    V1    S    
C24   C32   S    
C57   H13   S    
C25   C33   T    
O16   V4    S    
C29   C31   S    
C43   C44   S    
C40   C43   S    
C26   C34   T    
N10   H52   S    
O9    C4    A    
C36   C44   S    
C23   C30   S    
O18   C67   A    
C48   C64   A    
O12   V3    S    
C36   C40   S    
C28   C31   S    
N1    H25   S    
O15   C67   A    
C27   C29   S    
C18   C20   A    
C52   C53   A    
N7    H43   S    
C2    C48   S    
O4    C2    A    
C54   C55   A    
N7    H42   S    
C30   C32   S    
C13   C14   A    
C5    C9    A    
C41   C43   S    
C39   N4    S    
C7    C11   A    
C51   C52   A    
C17   C18   A    
C62   H17   S    
C5    C67   S    
C8    H4    S    
C35   C42   S    
C54   C58   A    
C59   C60   A    
O11   C66   A    
C1    C37   S    
C39   C40   S    
C31   C32   S    
C19   C22   A    
N9    H47   S    
C27   C28   S    
C60   C61   A    
C73   H50   S    
C6    C22   A    
C69   H20   S    
C51   N8    S    
N2    H26   S    
O3    C4    A    
N5    H39   S    
C71   H30   S    
C29   C30   S    
O13   C68   A    
C64   H14   S    
O6    V2    S    
C11   C15   A    
O9    V2    S    
C7    C73   S    
C35   C39   S    
C38   C66   S    
C63   N5    S    
C72   H33   S    
O2    V1    S    
O18   V4    S    
C48   C63   A    
C62   C63   A    
C71   H29   S    
C43   C72   S    
C61   C64   A    
C38   C46   T    
N4    H37   S    
C50   N7    S    
C40   C45   S    
O1    C2    A    
C9    N10   S    
C12   C16   A    
C52   C54   A    
C56   C57   A    
C72   H34   S    
N3    H32   S    
O5    V1    S    
C47   C50   A    
C70   H22   S    
O8    C3    A    
O12   C65   A    
C28   C33   S    
C3    C26   S    
C59   H15   S    
O14   C66   A    
N9    H46   S    
V3    O20   S    
C15   H1    S    
C41   C42   S    
O7    V2    S    
O4    V1    S    
O3    V1    S    
V1    O10   S    
N6    H40   S    
C20   C21   A    
C36   C71   S    
C47   C51   A    
H7    C32   S    
O19   V4    S    
C42   C46   S    
C35   H10   S    
C10   C12   A    
C24   C28   S    
O17   V3    S    
C6    C21   A    
C69   H19   S    
N2    H27   S    
C70   H23   S    
N5    H38   S    
C55   C56   A    
C37   C45   T    
C22   N3    S    
C58   C59   A    
O13   V3    S    
C17   H3    S    
C49   C53   A    
C10   C11   A    
C73   H48   S    
C9    C10   A    
C65   O16   A    
V2    O10   S    
C71   H28   S    
