data_mof_unit_23214.cif
_audit_creation_date              2012-12-10T17:47:04-0500
_audit_creation_method            fapswitch 2.2
_symmetry_space_group_name_H-M    P1
_symmetry_Int_Tables_number       1
_space_group_crystal_system       triclinic
_cell_length_a                    10.004172
_cell_length_b                    10.78042
_cell_length_c                    13.484046
_cell_angle_alpha                 93.9654
_cell_angle_beta                  81.599676
_cell_angle_gamma                 87.063026
_cell_volume                      1432.42243557

loop_
_atom_site_label
_atom_site_type_symbol
_atom_type_description
_atom_site_fract_x
_atom_site_fract_y
_atom_site_fract_z
_atom_type_partial_charge
C1    C     C_R   0.495340 0.740069 0.501791 0.865950
C2    C     C_R   0.603839 0.923333 0.455797 -0.256049
C3    C     C_R   0.611972 0.049851 0.453251 -0.019604
C4    C     C_R   0.474265 0.502322 0.685914 0.878079
C5    C     C_R   0.507691 0.128686 0.510269 -0.169779
C6    C     C_R   0.824262 0.644170 0.649487 -0.211407
C7    C     C_R   0.870244 0.706177 0.731185 -0.048922
C8    C     C_R   0.010850 0.705508 0.733345 -0.028268
C9    C     C_R   0.099877 0.639608 0.654098 -0.248554
C10   C     C_R   0.053125 0.566860 0.576683 0.107577
C11   C     C_R   0.909709 0.566538 0.576397 0.118194
C12   C     C_1   0.454009 0.513019 0.791138 -0.193646
C13   C     C_R   0.947337 0.456116 0.418323 -0.028180
C14   C     C_R   0.089033 0.441626 0.423606 -0.020100
C15   C     C_R   0.503374 0.260459 0.500704 0.871312
C16   C     C_R   0.525900 0.497167 0.314090 0.912879
C17   C     C_1   0.548035 0.484550 0.208880 -0.158894
C18   C     C_2   0.561654 0.464773 0.014804 0.029356
C19   C     C_2   0.460959 0.529822 0.983024 -0.225300
C20   C     C_1   0.448594 0.522759 0.879812 0.004728
C21   C     C_1   0.560560 0.473099 0.119866 -0.064711
C22   C     C_R   0.767247 0.767708 0.813554 0.105364
C23   C     C_R   0.242463 0.912061 0.574676 -0.185959
C24   C     C_R   0.660720 0.846653 0.791405 -0.186118
C25   C     C_R   0.561018 0.899643 0.868346 -0.121192
C26   C     C_R   0.566998 0.875366 0.968114 -0.152148
C27   C     C_R   0.672187 0.797446 0.991082 -0.133441
C28   C     C_R   0.771595 0.743557 0.914358 -0.142147
C29   C     C_R   0.068058 0.780429 0.812642 0.120665
C30   C     C_R   0.020314 0.904470 0.841987 -0.118748
C31   C     C_R   0.076699 0.975382 0.914122 -0.141619
C32   C     C_R   0.181335 0.922955 0.958489 -0.141448
C33   C     C_R   0.228214 0.799389 0.931410 -0.129383
C34   C     C_R   0.140338 0.993008 0.628763 -0.155351
C35   C     C_R   0.171657 0.728198 0.859230 -0.169226
C36   C     C_R   0.175670 0.356730 0.346499 0.179252
C37   C     C_R   0.206572 0.233965 0.368163 -0.102148
C38   C     C_R   0.281325 0.149758 0.294676 -0.186760
C39   C     C_R   0.320114 0.185614 0.197577 -0.155492
C40   C     C_R   0.285276 0.306091 0.174149 -0.144215
C41   C     C_R   0.214404 0.391896 0.248334 -0.117717
C42   C     C_R   0.658599 0.374883 0.948481 0.154767
C43   C     C_R   0.734416 0.411532 0.860231 -0.153991
C44   C     C_R   0.811346 0.323232 0.791836 -0.120409
C45   C     C_R   0.170482 0.110486 0.664815 -0.151230
C46   C     C_R   0.815430 0.198107 0.811995 -0.131097
C47   C     C_R   0.747465 0.161821 0.902399 -0.166932
C48   C     C_R   0.668503 0.249633 0.970273 -0.180786
C49   C     C_R   0.720488 0.087125 0.376589 0.164105
C50   C     C_R   0.688484 0.103745 0.280064 -0.158145
C51   C     C_R   0.787711 0.079963 0.195349 -0.171028
C52   C     C_R   0.920043 0.041816 0.206355 -0.133663
C53   C     C_R   0.954288 0.030894 0.302335 -0.169712
C54   C     C_R   0.855562 0.054884 0.387210 -0.173654
C55   C     C_R   0.908884 0.467975 0.317799 0.166491
C56   C     C_R   0.297809 0.152790 0.635146 -0.148290
C57   C     C_R   0.897224 0.587362 0.282643 -0.115748
C58   C     C_R   0.884200 0.600739 0.182023 -0.174884
C59   C     C_R   0.884069 0.495202 0.115783 -0.111323
C60   C     C_R   0.893487 0.376461 0.150660 -0.131075
C61   C     C_R   0.905401 0.363258 0.251524 -0.143602
C62   C     C_R   0.395210 0.078423 0.566422 0.077406
C63   C     C_R   0.374761 0.951756 0.548027 0.092159
C64   C     C_R   0.487376 0.873402 0.500900 -0.146533
H1    H     H_    0.720795 0.662875 0.642765 0.212616
H2    H     H_    0.851104 0.681801 0.933389 0.123306
H3    H     H_    0.940026 0.946584 0.808220 0.113932
H4    H     H_    0.039488 0.071002 0.935350 0.130111
H5    H     H_    0.225661 0.977780 0.014142 0.115652
H6    H     H_    0.308590 0.759377 0.966472 0.140021
H7    H     H_    0.206605 0.631915 0.840454 0.142974
H8    H     H_    0.205477 0.653046 0.650974 0.206790
H9    H     H_    0.172697 0.203450 0.442037 0.144077
H10   H     H_    0.307260 0.056045 0.312640 0.134919
H11   H     H_    0.376342 0.119840 0.140343 0.116679
H12   H     H_    0.211538 0.823483 0.548645 0.173818
H13   H     H_    0.313496 0.333078 0.098507 0.144296
H14   H     H_    0.188830 0.485213 0.229222 0.128759
H15   H     H_    0.729820 0.507509 0.842386 0.154890
H16   H     H_    0.865615 0.351469 0.722387 0.142073
H17   H     H_    0.870208 0.129520 0.756922 0.113776
H18   H     H_    0.753752 0.065365 0.919112 0.158794
H19   H     H_    0.611325 0.219356 0.037894 0.126055
H20   H     H_    0.685831 0.862266 0.413994 0.177114
H21   H     H_    0.038188 0.963486 0.643509 0.131473
H22   H     H_    0.584473 0.123455 0.269641 0.129823
H23   H     H_    0.094346 0.171250 0.712142 0.132709
H24   H     H_    0.761259 0.087286 0.120970 0.133871
H25   H     H_    0.996113 0.021770 0.140749 0.140136
H26   H     H_    0.056161 0.999809 0.310863 0.142045
H27   H     H_    0.881390 0.036474 0.460330 0.131551
H28   H     H_    0.902413 0.669718 0.332436 0.120714
H29   H     H_    0.876964 0.692733 0.155021 0.136862
H30   H     H_    0.876504 0.505304 0.037540 0.131126
H31   H     H_    0.894486 0.294925 0.099016 0.142136
H32   H     H_    0.919589 0.272664 0.277780 0.166308
H33   H     H_    0.317337 0.245667 0.662943 0.155624
H34   H     H_    0.386812 0.587907 0.035509 0.138898
H35   H     H_    0.655085 0.867917 0.714726 0.132832
H36   H     H_    0.479639 0.960345 0.850655 0.151343
H37   H     H_    0.490157 0.916983 0.027636 0.113567
H38   H     H_    0.676198 0.778120 0.068329 0.133961
N1    N     N_R   0.857120 0.501200 0.500900 -0.135850
N2    N     N_R   0.142720 0.501280 0.500940 -0.134527
O1    O     O_R   0.385310 0.683220 0.500000 -0.644416
O2    O     O_R   0.614640 0.683250 0.500010 -0.639974
O3    O     O_R   0.368830 0.499960 0.640340 -0.640911
O4    O     O_R   0.598160 0.499980 0.640350 -0.621557
O5    O     O_R   0.385360 0.316750 0.499990 -0.616050
O6    O     O_R   0.614690 0.316780 0.500000 -0.602268
O7    O     O_R   0.401840 0.500020 0.359650 -0.606240
O8    O     O_R   0.631170 0.500040 0.359660 -0.593969
Zn1   Zn    Zn3+2 0.346870 0.499980 0.499990 0.922682
Zn2   Zn    Zn3+2 0.653130 0.500020 0.500010 0.937797

loop_
_geom_bond_atom_site_label_1
_geom_bond_atom_site_label_2
_ccdc_geom_bond_type
C57   H28   S    
C18   C21   S    
C15   O5    A    
C2    H20   S    
C19   C20   S    
C9    H8    S    
C23   H12   S    
O8    Zn2   S    
C3    C49   S    
C61   H32   S    
C7    C8    A    
C53   C54   A    
C4    O4    A    
C6    C11   A    
C26   C27   A    
C29   C30   A    
O2    Zn2   S    
C8    C29   S    
O1    Zn1   S    
C36   C37   A    
C45   H23   S    
C58   H29   S    
C18   C42   S    
C26   H37   S    
C14   C36   S    
C30   C31   A    
C43   H15   S    
C49   C54   A    
C24   H35   S    
C18   C19   D    
C47   H18   S    
O4    Zn2   S    
O3    Zn1   S    
C6    H1    S    
C31   C32   A    
C45   C56   A    
C44   C46   A    
C8    C9    A    
C59   H30   S    
C39   H11   S    
C4    C12   S    
C9    C10   A    
O6    Zn2   S    
C30   H3    S    
O5    Zn1   S    
C1    O2    A    
C23   C63   A    
C35   H7    S    
C59   C60   A    
C22   C28   A    
C13   C14   A    
C15   O6    A    
C36   C41   A    
C56   H33   S    
C19   H34   S    
C2    C64   A    
C31   H4    S    
C4    O3    A    
C51   C52   A    
C44   H16   S    
N1    Zn2   S    
C24   C25   A    
C41   H14   S    
C16   C17   S    
C58   C59   A    
C17   C21   T    
N2    Zn1   S    
C60   C61   A    
C34   H21   S    
C28   H2    S    
C43   C44   A    
C37   C38   A    
C46   H17   S    
C25   H36   S    
C14   N2    A    
C47   C48   A    
C23   C34   A    
C12   C20   T    
C62   C63   A    
C50   C51   A    
O7    Zn1   S    
C34   C45   A    
C42   C48   A    
C6    C7    A    
C33   H6    S    
C40   C41   A    
C55   C57   A    
C56   C62   A    
C13   N1    A    
C42   C43   A    
C1    C64   S    
C39   C40   A    
C52   C53   A    
C16   O8    A    
C38   H10   S    
C37   H9    S    
C46   C47   A    
C52   H25   S    
C3    C5    A    
C51   H24   S    
C32   H5    S    
C7    C22   S    
C29   C35   A    
C27   H38   S    
C48   H19   S    
C32   C33   A    
C10   N2    A    
C2    C3    A    
C25   C26   A    
C54   H27   S    
C57   C58   A    
C38   C39   A    
C55   C61   A    
C33   C35   A    
C5    C62   A    
C22   C24   A    
C5    C15   S    
C10   C11   A    
C50   H22   S    
C63   C64   A    
C60   H31   S    
C49   C50   A    
C53   H26   S    
C40   H13   S    
C11   N1    A    
C13   C55   S    
C16   O7    A    
C1    O1    A    
C27   C28   A    
