data_mof_unit_32347.cif
_audit_creation_date              2012-12-11T16:20:10-0500
_audit_creation_method            fapswitch 2.2
_symmetry_space_group_name_H-M    P1
_symmetry_Int_Tables_number       1
_space_group_crystal_system       triclinic
_cell_length_a                    13.407602
_cell_length_b                    14.033962
_cell_length_c                    30.142733
_cell_angle_alpha                 97.790012
_cell_angle_beta                  89.645921
_cell_angle_gamma                 118.507152
_cell_volume                      4926.89916105

loop_
_atom_site_label
_atom_site_type_symbol
_atom_type_description
_atom_site_fract_x
_atom_site_fract_y
_atom_site_fract_z
_atom_type_partial_charge
C1    C     C_R   0.719716 0.098165 0.569143 0.551112
C2    C     C_1   0.371339 0.719207 0.775560 0.036243
C3    C     C_1   0.377731 0.737469 0.737622 0.048631
C4    C     C_R   0.403867 0.836360 0.559257 0.548013
C5    C     C_R   0.313003 0.620660 0.903495 -0.010850
C6    C     C_3   0.366744 0.066927 0.721740 -0.213770
C7    C     C_3   0.211640 0.117134 0.712975 -0.214863
C8    C     C_3   0.200363 0.120804 0.764702 -0.028610
C9    C     C_1   0.300870 0.195852 0.878061 0.052436
C10   C     C_3   0.335027 0.146470 0.701885 0.016834
C11   C     C_3   0.364476 0.081501 0.773712 -0.211664
C12   C     C_R   0.383912 0.760519 0.692683 0.049726
C13   C     C_3   0.319330 0.162662 0.789684 -0.004062
C14   C     C_3   0.407152 0.275728 0.776064 -0.040762
C15   C     C_3   0.416074 0.265164 0.724414 -0.216471
C16   C     C_R   0.397383 0.117851 0.569521 0.542790
C17   C     C_1   0.310925 0.175296 0.838746 -0.014528
C18   C     C_1   0.347246 0.138594 0.653299 -0.067249
C19   C     C_1   0.365651 0.131786 0.614236 -0.007787
C20   C     C_3   0.696645 0.117632 0.726065 -0.180167
C21   C     C_3   0.887308 0.283366 0.723354 -0.230530
C22   C     C_3   0.904976 0.295802 0.775134 -0.273216
C23   C     C_R   0.293726 0.766103 0.672485 -0.125256
C24   C     C_1   0.898531 0.206238 0.878842 0.055076
C25   C     C_3   0.811524 0.161211 0.703391 0.020949
C26   C     C_3   0.715686 0.127852 0.777895 0.180414
C27   C     C_3   0.845681 0.181724 0.791178 0.036400
C28   C     C_R   0.720087 0.094813 0.442487 0.573605
C29   C     C_3   0.896035 0.112181 0.766080 -0.181532
C30   C     C_3   0.870842 0.095384 0.714776 -0.217361
C31   C     C_1   0.870302 0.195216 0.839840 0.008815
C32   C     C_1   0.790898 0.147417 0.654452 -0.067131
C33   C     C_1   0.765215 0.129237 0.614796 -0.005746
C34   C     C_R   0.299583 0.789663 0.628795 -0.126273
C35   C     C_3   0.346466 0.784276 0.261066 -0.046668
C36   C     C_3   0.243204 0.592513 0.280299 -0.235125
C37   C     C_3   0.218583 0.546258 0.229438 0.135838
C38   C     C_1   0.275582 0.551592 0.114437 0.098459
C39   C     C_3   0.356338 0.701940 0.288578 -0.038735
C40   C     C_R   0.401350 0.827440 0.421688 0.557600
C41   C     C_3   0.322519 0.736151 0.210232 -0.314106
C42   C     C_3   0.318913 0.622339 0.202188 0.008614
C43   C     C_3   0.438794 0.643731 0.220315 0.140013
C44   C     C_3   0.452482 0.676577 0.272195 -0.204370
C45   C     C_R   0.281500 0.712548 0.846473 -0.096514
C46   C     C_1   0.296691 0.583629 0.153906 0.060057
C47   C     C_1   0.374775 0.744688 0.336597 -0.028429
C48   C     C_1   0.387381 0.781341 0.375679 0.037913
C49   C     C_R   0.359616 0.137777 0.401397 0.015321
C50   C     C_R   0.442293 0.227485 0.382480 -0.156650
C51   C     C_R   0.429246 0.237099 0.338114 -0.117636
C52   C     C_R   0.395701 0.115391 0.443273 0.568680
C53   C     C_R   0.333006 0.158275 0.311981 0.011186
C54   C     C_R   0.244360 0.075199 0.330968 -0.059702
C55   C     C_R   0.255212 0.065183 0.376094 0.260493
C56   C     C_R   0.259232 0.678151 0.888699 0.044658
C57   C     C_R   0.215270 0.146828 0.159951 -0.066256
C58   C     C_R   0.207770 0.165071 0.116530 -0.127866
C59   C     C_R   0.410986 0.230375 0.111008 0.266627
C60   C     C_R   0.417720 0.212901 0.155390 -0.041284
C61   C     C_R   0.320217 0.173130 0.179674 0.019092
C62   C     C_1   0.326744 0.165597 0.225937 0.051068
C63   C     C_1   0.328598 0.161147 0.265168 0.041672
C64   C     C_R   0.395608 0.807027 0.604767 0.016501
C65   C     C_R   0.305385 0.210016 0.091990 0.027673
C66   C     C_R   0.771088 0.125018 0.399663 0.011858
C67   C     C_R   0.400988 0.616487 0.879161 -0.114927
C68   C     C_R   0.757675 0.038580 0.366167 -0.145889
C69   C     C_R   0.770853 0.053785 0.321601 -0.092032
C70   C     C_R   0.797779 0.155344 0.309788 -0.018114
C71   C     C_R   0.822500 0.245011 0.342783 -0.096436
C72   C     C_R   0.811505 0.231555 0.388078 0.251340
C73   C     C_R   0.833947 0.275812 0.162039 -0.020340
C74   C     C_R   0.868006 0.292925 0.118493 0.284100
C75   C     C_R   0.855820 0.112050 0.106538 -0.149984
C76   C     C_R   0.486650 0.802824 0.625727 -0.137011
C77   C     C_R   0.820144 0.096170 0.149484 -0.104784
C78   C     C_R   0.424837 0.654725 0.838011 -0.096748
C79   C     C_R   0.813905 0.179759 0.177708 0.019805
C80   C     C_1   0.801935 0.172381 0.224264 0.057145
C81   C     C_1   0.798894 0.166072 0.263476 0.039038
C82   C     C_R   0.887060 0.212503 0.091074 0.017918
C83   C     C_R   0.284825 0.232316 0.922850 0.566657
C84   C     C_R   0.269047 0.552163 0.939653 0.567019
C85   C     C_R   0.946327 0.222820 0.923309 0.558051
C86   C     C_R   0.291586 0.243152 0.049366 0.594691
C87   C     C_R   0.246783 0.510840 0.067971 0.563687
C88   C     C_R   0.480436 0.779096 0.669414 -0.101200
C89   C     C_R   0.360570 0.696818 0.820677 0.013600
C90   C     C_R   0.952070 0.232670 0.050146 0.553601
C91   C     C_2   0.182567 0.706207 0.916584 0.603876
C92   C     C_2   0.111001 0.011771 0.776801 0.539308
C93   C     C_2   0.383642 0.368936 0.793413 0.550774
C94   C     C_2   0.448567 0.898212 0.269406 0.567859
Cr1   Cr    Cr6+3 0.583400 0.162540 0.509180 1.110677
Cr2   Cr    Cr6+3 0.584070 0.916690 0.495550 1.045579
Cr3   Cr    Cr6+3 0.332550 0.920810 0.495240 1.097777
Cr4   Cr    Cr6+3 0.086700 0.177000 0.983690 1.063431
Cr5   Cr    Cr6+3 0.336880 0.419130 0.994740 1.107070
Cr6   Cr    Cr6+3 0.084850 0.422220 0.995960 1.145086
H1    H     H_    0.305634 0.980727 0.707460 0.160321
H2    H     H_    0.236883 0.751260 0.833490 0.160596
H3    H     H_    0.683887 0.183096 0.794448 0.099875
H4    H     H_    0.654326 0.166097 0.719075 0.070739
H5    H     H_    0.971292 0.316152 0.708382 0.144227
H6    H     H_    0.847048 0.332674 0.715025 0.132546
H7    H     H_    0.870049 0.348393 0.791630 0.128141
H8    H     H_    0.997775 0.338468 0.785004 0.140053
H9    H     H_    0.815572 0.006550 0.702322 0.160287
H10   H     H_    0.951846 0.122198 0.697760 0.117563
H11   H     H_    0.862642 0.031686 0.777991 0.220411
H12   H     H_    0.189380 0.176876 0.701175 0.125537
H13   H     H_    0.219284 0.753047 0.690625 0.133052
H14   H     H_    0.638830 0.031213 0.710819 0.178436
H15   H     H_    0.989500 0.155408 0.773577 0.131333
H16   H     H_    0.239861 0.727781 0.198255 0.127379
H17   H     H_    0.271622 0.793238 0.272326 0.142437
H18   H     H_    0.247861 0.533103 0.300057 0.170655
H19   H     H_    0.171684 0.605542 0.292868 0.127821
H20   H     H_    0.141352 0.549515 0.218268 0.136372
H21   H     H_    0.537671 0.748524 0.282262 0.139049
H22   H     H_    0.229449 0.795188 0.614016 0.144263
H23   H     H_    0.151234 0.035248 0.694175 0.149316
H24   H     H_    0.448302 0.609615 0.289264 0.175931
H25   H     H_    0.502906 0.717361 0.206628 0.148771
H26   H     H_    0.387471 0.793249 0.189778 0.158754
H27   H     H_    0.125602 0.149108 0.103040 0.153882
H28   H     H_    0.139746 0.116434 0.178791 0.154509
H29   H     H_    0.168132 0.016867 0.310280 0.155806
H30   H     H_    0.521703 0.286982 0.400894 0.191092
H31   H     H_    0.562933 0.818507 0.608529 0.143010
H32   H     H_    0.498710 0.231932 0.171266 0.160347
H33   H     H_    0.497006 0.303072 0.323607 0.151815
H34   H     H_    0.170056 0.180345 0.776127 0.150544
H35   H     H_    0.827131 0.339216 0.184560 0.169731
H36   H     H_    0.847994 0.324666 0.333087 0.169613
H37   H     H_    0.728439 0.956433 0.373726 0.160318
H38   H     H_    0.804087 0.021111 0.161566 0.141090
H39   H     H_    0.865707 0.047296 0.086524 0.153549
H40   H     H_    0.489010 0.645925 0.818597 0.159728
H41   H     H_    0.754809 0.984808 0.296121 0.167015
H42   H     H_    0.446983 0.577694 0.890667 0.191549
H43   H     H_    0.550989 0.775742 0.685056 0.152872
H44   H     H_    0.311957 0.000776 0.784984 0.196490
H45   H     H_    0.505319 0.287334 0.716847 0.103611
H46   H     H_    0.147442 0.753048 0.978352 0.350603
H47   H     H_    0.981912 0.933895 0.815548 0.358745
H48   H     H_    0.285225 0.440942 0.789710 0.334016
H49   H     H_    0.626519 0.839229 0.784937 0.366517
H50   H     H_    0.072969 0.350796 0.276874 0.344150
H51   H     H_    0.510646 0.056568 0.297137 0.337794
H52   H     H_    0.575391 0.532500 0.257898 0.342730
H53   H     H_    0.066885 0.942823 0.463805 0.364345
H54   H     H_    0.571091 0.253958 0.011017 0.382708
H55   H     H_    0.832335 0.536472 0.124364 0.388389
H56   H     H_    0.395988 0.323190 0.709716 0.163919
H57   H     H_    0.962825 0.523623 0.432181 0.384078
H58   H     H_    0.492225 0.297698 0.791546 0.114412
H59   H     H_    0.452610 0.081795 0.712228 0.122977
H60   H     H_    0.452083 0.114382 0.788979 0.155573
O1    O     O_R   0.494060 0.188820 0.559230 -0.498379
O2    O     O_R   0.170530 0.527770 0.952070 -0.471848
O3    O     O_R   0.987720 0.318450 0.945940 -0.496950
O4    O     O_R   0.678470 0.153390 0.554100 -0.480305
O5    O     O_R   0.976400 0.159230 0.032040 -0.532260
O6    O     O_R   0.193740 0.188470 0.029020 -0.522572
O7    O     O_R   0.364860 0.335530 0.039220 -0.436794
O8    O     O_R   0.330170 0.515340 0.044800 -0.489474
O9    O     O_R   0.177230 0.536000 0.050040 -0.444114
O10   O     O_R   0.993930 0.326080 0.036750 -0.440337
O11   O     O_3   0.169480 0.339450 0.991460 -0.309219
O12   O     O_R   0.480140 0.824500 0.445020 -0.492616
O13   O     O_R   0.697870 0.003940 0.549410 -0.517084
O14   O     O_R   0.480980 0.827230 0.535590 -0.486838
O15   O     O_R   0.309390 0.811640 0.537920 -0.493430
O16   O     O_R   0.341810 0.023400 0.546180 -0.510410
O17   O     O_R   0.493150 0.185870 0.461540 -0.501270
O18   O     O_R   0.677630 0.150660 0.463530 -0.430988
O19   O     O_R   0.696960 0.000990 0.451710 -0.523009
O20   O     O_2   0.102186 0.708532 0.898765 -0.510297
O21   O     O_R   0.204978 0.734528 0.963127 -0.651066
O22   O     O_2   0.103900 0.925389 0.758295 -0.530176
O23   O     O_R   0.308480 0.808690 0.440220 -0.442798
O24   O     O_R   0.037684 0.010831 0.810107 -0.713040
O25   O     O_2   0.446266 0.439390 0.823756 -0.546885
O26   O     O_R   0.292417 0.375631 0.774672 -0.739396
O27   O     O_2   0.657609 0.003955 0.845685 -0.267330
O28   O     O_2   0.508000 0.965284 0.789463 -0.322578
O29   O     O_3   0.654891 0.900027 0.766929 -0.577786
O30   O     O_2   0.156150 0.357727 0.170937 -0.265004
O31   O     O_2   0.261981 0.378948 0.240944 -0.214830
O32   O     O_3   0.052250 0.335750 0.244236 -0.540628
O33   O     O_2   0.540290 0.915063 0.255202 -0.559637
O34   O     O_R   0.340970 0.020670 0.455610 -0.440891
O35   O     O_R   0.436991 0.984475 0.293403 -0.709109
O36   O     O_2   0.399808 0.452923 0.165977 -0.193525
O37   O     O_2   0.595533 0.597608 0.181285 -0.271679
O38   O     O_3   0.497759 0.482209 0.243990 -0.486862
O39   O     O_2   0.028940 0.934978 0.372417 -0.282902
O40   O     O_2   0.149489 0.861389 0.395971 -0.262914
O41   O     O_3   0.128403 0.007395 0.452619 -0.509048
O42   O     O_2   0.592494 0.397597 0.084639 -0.190252
O43   O     O_2   0.612980 0.239652 0.099109 -0.270091
O44   O     O_3   0.498916 0.219720 0.026005 -0.519175
O45   O     O_3   0.500010 0.000010 0.499990 -0.319074
O46   O     O_2   0.010441 0.499341 0.107359 -0.297678
O47   O     O_2   0.842781 0.396727 0.053884 -0.236960
O48   O     O_3   0.815178 0.466546 0.134762 -0.474222
O49   O     O_2   0.746093 0.361776 0.437983 -0.283743
O50   O     O_2   0.898812 0.338849 0.471038 -0.262811
O51   O     O_3   0.947227 0.461403 0.408306 -0.518956
O52   O     O_R   0.969690 0.151000 0.934080 -0.480213
O53   O     O_R   0.187530 0.180840 0.938210 -0.481119
O54   O     O_R   0.358160 0.327300 0.941250 -0.490206
O55   O     O_R   0.323950 0.507710 0.953980 -0.503634
S1    S     S_3+6 0.631158 0.996895 0.796589 -0.043365
S2    S     S_3+6 0.175534 0.401732 0.220197 0.018624
S3    S     S_3+6 0.482570 0.541458 0.201401 0.053503
S4    S     S_3+6 0.136617 0.962645 0.398753 0.028565
S5    S     S_3+6 0.534055 0.274663 0.080447 0.073910
S6    S     S_3+6 0.886434 0.416408 0.101888 0.063269
S7    S     S_3+6 0.849833 0.349479 0.428410 0.024691

loop_
_geom_bond_atom_site_label_1
_geom_bond_atom_site_label_2
_ccdc_geom_bond_type
H47   O24   S    
Cr1   O45   S    
C7    C10   S    
C66   C68   A    
C85   O52   A    
C8    C13   S    
O50   S7    D    
C27   C29   S    
C94   O33   D    
C51   H33   S    
C41   C42   S    
C5    C56   A    
C28   C66   S    
C86   O6    A    
C37   S2    S    
C5    C67   A    
C60   H32   S    
C57   H28   S    
C6    H59   S    
O28   S1    D    
C1    C33   S    
C7    C8    S    
C53   C54   A    
C12   C23   A    
C1    O13   A    
C26   C27   S    
C29   C30   S    
Cr2   O14   S    
O43   S5    D    
C30   H10   S    
Cr3   O15   S    
C36   C37   S    
C10   C15   S    
Cr1   O1    S    
C76   H31   S    
Cr5   O11   S    
C20   C25   S    
O46   S6    D    
O42   S5    D    
C22   H7    S    
C87   O9    A    
C44   H21   S    
C11   C13   S    
C7    H12   S    
C26   S1    S    
C18   C19   T    
C42   C46   S    
C6    H1    S    
H51   O35   S    
C37   C42   S    
C70   C81   S    
C36   H19   S    
C52   O17   A    
C3    C12   S    
C50   H30   S    
C54   C55   A    
Cr1   O17   S    
C56   C91   S    
C66   C72   A    
C73   H35   S    
C1    O4    A    
C20   C26   S    
C68   C69   A    
C4    O15   A    
C70   C71   A    
C8    C92   S    
C36   H18   S    
C24   C85   S    
C76   C88   A    
C14   C93   S    
Cr5   O7    S    
C21   H6    S    
C84   O55   A    
C40   O23   A    
C93   O26   S    
C16   O16   A    
C25   C32   S    
C29   H15   S    
C59   C60   A    
C34   H22   S    
Cr3   O16   S    
C4    O14   A    
C13   C14   S    
Cr6   O11   S    
O49   S7    D    
O31   S2    D    
C68   H37   S    
O38   S3    S    
C67   C78   A    
O32   S2    S    
C74   C82   A    
C58   C65   A    
C83   O53   A    
C11   H60   S    
Cr3   O23   S    
H48   O26   S    
H53   O41   S    
C77   C79   A    
C78   C89   A    
C73   C79   A    
Cr2   O13   S    
C12   C88   A    
C30   H9    S    
Cr6   O10   S    
C94   O35   S    
C65   C86   S    
C52   O34   A    
C77   H38   S    
C45   C56   A    
H55   O48   S    
C92   O24   S    
C71   H36   S    
C15   H45   S    
C5    C84   S    
C55   S4    S    
O48   S6    S    
C49   C55   A    
O51   S7    S    
C27   C31   S    
C44   H24   S    
C60   C61   A    
C51   C53   A    
C28   O18   A    
Cr3   O34   S    
C2    C89   S    
C35   C39   S    
C43   C44   S    
C62   C63   T    
O29   S1    S    
C26   H3    S    
C23   H13   S    
Cr1   O18   S    
H54   O44   S    
C47   C48   T    
C74   S6    S    
C8    H34   S    
C23   C34   A    
C72   S7    S    
C91   O20   D    
C90   O10   A    
C40   O12   A    
C34   C64   A    
C50   C51   A    
C64   C76   A    
O39   S4    D    
C75   C77   A    
O41   S4    S    
C15   H56   S    
Cr4   O6    S    
C9    C83   S    
Cr4   O11   S    
C9    C17   T    
Cr4   O53   S    
O44   S5    S    
H57   O51   S    
C22   C27   S    
C91   O21   S    
C87   O8    A    
C85   O3    A    
C35   H17   S    
C43   S3    S    
C42   C43   S    
C41   H16   S    
O37   S3    D    
O30   S2    D    
C6    C11   S    
C83   O54   A    
C84   O2    A    
C39   C47   S    
Cr5   O8    S    
C11   H44   S    
C35   C94   S    
C25   C30   S    
C40   C48   S    
C54   H29   S    
C21   C25   S    
O27   S1    D    
C73   C74   A    
C45   C89   A    
C88   H43   S    
H46   O21   S    
Cr6   O9    S    
C41   H26   S    
C29   H11   S    
C36   C39   S    
C86   O7    A    
C49   C52   S    
C7    H23   S    
C80   C81   T    
C14   H58   S    
C75   H39   S    
C78   H40   S    
C6    C10   S    
O36   S3    D    
C75   C82   A    
C57   C61   A    
C39   C44   S    
C20   H4    S    
Cr5   O54   S    
C16   O1    A    
C4    C64   S    
H49   O29   S    
C82   C90   S    
C13   C17   S    
C38   C87   S    
H52   O38   S    
Cr3   O45   S    
C32   C33   T    
C61   C62   S    
C2    C3    T    
C24   C31   T    
C71   C72   A    
C90   O5    A    
Cr4   O52   S    
Cr1   O4    S    
C59   C65   A    
C20   H14   S    
C53   C63   S    
Cr2   O45   S    
C37   H20   S    
Cr5   O55   S    
C10   C18   S    
C16   C19   S    
C22   H8    S    
Cr6   O3    S    
C43   H25   S    
Cr2   O19   S    
C69   C70   A    
C35   C41   S    
C28   O19   A    
C38   C46   T    
Cr4   O5    S    
C45   H2    S    
H50   O32   S    
C79   C80   S    
C58   H27   S    
C49   C50   A    
Cr2   O12   S    
O40   S4    D    
C14   C15   S    
C92   O22   D    
Cr6   O2    S    
C57   C58   A    
C21   C22   S    
C67   H42   S    
C69   H41   S    
C21   H5    S    
C59   S5    S    
O47   S6    D    
C93   O25   D    
