data_mof_unit_36765.cif
_audit_creation_date              2012-10-26T18:28:22-0400
_audit_creation_method            fapswitch 2.2
_symmetry_space_group_name_H-M    P1
_symmetry_Int_Tables_number       1
_space_group_crystal_system       triclinic
_cell_length_a                    27.760135
_cell_length_b                    11.043604
_cell_length_c                    9.832072
_cell_angle_alpha                 111.498812
_cell_angle_beta                  98.059984
_cell_angle_gamma                 90.930827
_cell_volume                      2769.32605062

loop_
_atom_site_label
_atom_site_type_symbol
_atom_type_description
_atom_site_fract_x
_atom_site_fract_y
_atom_site_fract_z
_atom_type_partial_charge
C1    C     C_R   0.496464 0.253922 0.440169 0.550948
C2    C     C_R   0.869266 0.392341 0.409869 -0.007012
C3    C     C_R   0.354511 0.502582 0.505928 0.011220
C4    C     C_R   0.645651 0.500515 0.495254 0.009896
C5    C     C_R   0.972446 0.390522 0.455379 0.020785
C6    C     C_R   0.029516 0.628207 0.580242 0.020920
C7    C     C_R   0.979422 0.626397 0.596274 0.038922
C8    C     C_R   0.023925 0.389151 0.486179 0.034820
C9    C     C_R   0.950218 0.508200 0.517304 0.014305
C10   C     C_R   0.052197 0.509509 0.532639 0.016433
C11   C     C_R   0.943192 0.280987 0.353859 -0.051116
C12   C     C_R   0.503534 0.746078 0.559831 0.555867
C13   C     C_R   0.056580 0.744015 0.601534 -0.054541
C14   C     C_R   0.892247 0.280539 0.327852 0.019350
C15   C     C_R   0.106755 0.747859 0.597228 0.018115
C16   C     C_R   0.407443 0.500750 0.501770 0.555299
C17   C     C_R   0.592610 0.499939 0.498619 0.553890
C18   C     C_R   0.048507 0.273252 0.467476 -0.013146
C19   C     C_R   0.956787 0.737275 0.683110 -0.005145
C20   C     C_2   0.494511 0.114181 0.405646 0.372407
C21   C     C_2   0.505485 0.885818 0.594356 0.373656
C22   C     C_2   0.500813 0.069581 0.515512 -0.084253
C23   C     C_R   0.103006 0.510826 0.528627 -0.036329
C24   C     C_2   0.499189 0.930419 0.484489 -0.084970
C25   C     C_2   0.504091 0.510049 0.080934 0.144334
C26   C     C_2   0.495900 0.489982 0.919076 0.164405
C27   C     C_R   0.175953 0.393239 0.486649 0.417998
C28   C     C_R   0.825913 0.620169 0.561965 0.418646
C29   C     C_R   0.180944 0.623264 0.545613 0.397118
C30   C     C_R   0.818205 0.393668 0.409378 0.397217
C31   C     C_R   0.286318 0.547230 0.643263 -0.005516
C32   C     C_R   0.729240 0.519297 0.618501 -0.003833
C33   C     C_R   0.336450 0.545667 0.641760 0.381720
C34   C     C_R   0.898725 0.507543 0.500205 -0.037790
C35   C     C_R   0.679335 0.517629 0.623601 0.383380
C36   C     C_R   0.321296 0.461336 0.372878 -0.174968
C37   C     C_R   0.663244 0.484560 0.362658 -0.173203
C38   C     C_R   0.271182 0.462494 0.375244 -0.063331
C39   C     C_R   0.713274 0.486198 0.358364 -0.057448
C40   C     C_R   0.253637 0.505595 0.510423 0.181169
C41   C     C_R   0.746408 0.504064 0.486435 0.176449
C42   C     C_2   0.865127 0.165371 0.206809 0.296897
C43   C     C_2   0.132337 0.878836 0.640921 0.307392
C44   C     C_2   0.025409 0.151946 0.469823 0.253040
C45   C     C_R   0.125811 0.392339 0.491370 0.021203
C46   C     C_2   0.983589 0.849041 0.809237 0.234254
C47   C     C_R   0.876791 0.622429 0.574137 0.025031
C48   C     C_R   0.098666 0.275811 0.465050 -0.113385
C49   C     C_R   0.905938 0.735371 0.665587 -0.111410
C50   C     C_R   0.130790 0.629691 0.559860 -0.005577
Cu1   Cu    Cu3+1 0.508480 0.521810 0.644910 1.215264
Cu2   Cu    Cu3+1 0.491520 0.478190 0.355090 1.130634
F1    F     F_    0.513665 0.968937 0.738672 -0.565222
F2    F     F_    0.486321 0.031061 0.261330 -0.562882
F3    F     F_    0.556342 0.642886 0.954063 -0.488428
F4    F     F_    0.443686 0.357035 0.045913 -0.505535
F5    F     F_    0.664397 0.532764 0.754192 -0.563587
F6    F     F_    0.366956 0.587758 0.773177 -0.582458
H1    H     H_    0.333997 0.427481 0.266839 0.187442
H2    H     H_    0.272710 0.580705 0.747920 0.160970
H3    H     H_    0.960268 0.197082 0.286955 0.164975
H4    H     H_    0.038564 0.833581 0.621008 0.175824
H5    H     H_    0.492716 0.863193 0.369665 0.183906
H6    H     H_    0.507293 0.136807 0.630336 0.180719
H7    H     H_    0.831454 0.175743 0.142813 0.169174
H8    H     H_    0.168095 0.902665 0.708342 0.179436
H9    H     H_    0.040396 0.058975 0.417476 0.152435
H10   H     H_    0.968120 0.943232 0.845125 0.133797
H11   H     H_    0.638392 0.471252 0.262175 0.173552
H12   H     H_    0.467469 0.418037 0.845372 0.158251
H13   H     H_    0.532510 0.582027 0.154647 0.142141
H14   H     H_    0.245952 0.430260 0.272188 0.162083
H15   H     H_    0.726335 0.474328 0.255806 0.170303
H16   H     H_    0.116849 0.186304 0.447097 0.186416
H17   H     H_    0.889103 0.821063 0.730481 0.173015
H18   H     H_    0.754801 0.532344 0.717574 0.166034
N1    N     N_R   0.202195 0.507254 0.513534 -0.392529
N2    N     N_R   0.797938 0.506566 0.483283 -0.392290
N3    N     N_2   0.478780 0.445430 0.137360 0.033523
N4    N     N_2   0.521220 0.554570 0.862640 0.040272
O1    O     O_R   0.504520 0.332330 0.577400 -0.590702
O2    O     O_2   0.804431 0.730314 0.630192 -0.458821
O3    O     O_2   0.789091 0.282643 0.342548 -0.478085
O4    O     O_2   0.208376 0.730169 0.559646 -0.485630
O5    O     O_2   0.880986 0.057506 0.174100 -0.469684
O6    O     O_2   0.112743 0.963778 0.606163 -0.504231
O7    O     O_2   0.991347 0.155323 0.537082 -0.463518
O8    O     O_2   0.021586 0.835364 0.879619 -0.476328
O9    O     O_R   0.495480 0.667670 0.422600 -0.584404
O10   O     O_R   0.490210 0.295500 0.332650 -0.405734
O11   O     O_R   0.509790 0.704500 0.667350 -0.399981
O12   O     O_R   0.437420 0.518430 0.622370 -0.464850
O13   O     O_R   0.562580 0.481570 0.377630 -0.552606
O14   O     O_R   0.423110 0.481600 0.377610 -0.482028
O15   O     O_R   0.576890 0.518400 0.622390 -0.395267
O16   O     O_2   0.198489 0.280972 0.455387 -0.459478

loop_
_geom_bond_atom_site_label_1
_geom_bond_atom_site_label_2
_ccdc_geom_bond_type
C38   C40   A    
C28   C47   A    
C1    O10   A    
C23   C45   A    
C37   H11   S    
C12   O11   A    
Cu2   O10   S    
C36   H1    S    
Cu2   O9    S    
C19   C46   S    
C47   C49   A    
C46   H10   S    
C33   F6    S    
F4    N3    S    
C5    C11   A    
C11   C14   A    
C3    C33   A    
C1    O1    A    
C31   C40   A    
C15   C50   A    
C30   O3    S    
Cu1   N4    S    
Cu1   O11   S    
C13   H4    S    
C42   H7    S    
C32   C41   A    
C49   H17   S    
Cu2   O14   S    
C25   H13   S    
C44   O7    D    
C28   N2    A    
Cu1   O1    S    
C14   C42   S    
C2    C34   A    
C4    C35   A    
C27   O16   S    
C46   O8    D    
C29   C50   A    
C38   H14   S    
C28   O2    S    
Cu1   Cu2   S    
C32   C35   A    
C48   H16   S    
C12   O9    A    
C29   O4    S    
C20   F2    S    
C41   N2    S    
C23   C50   A    
C27   N1    A    
C25   C26   S    
C12   C21   S    
C8    C18   A    
C31   H2    S    
C5    C9    A    
C18   C44   S    
Cu1   O12   S    
C19   C49   A    
C31   C33   A    
Cu2   O13   S    
C42   O5    D    
C17   O15   A    
C4    C17   S    
C20   C22   D    
C16   O12   A    
C24   H5    S    
C7    C19   A    
C13   C15   A    
C9    C34   A    
C26   H12   S    
C22   C24   S    
C17   O13   A    
Cu2   N3    S    
C45   C48   A    
C7    C9    A    
C1    C20   S    
C25   N3    D    
C43   O6    D    
C11   H3    S    
C18   C48   A    
C32   H18   S    
C5    C8    A    
C6    C7    A    
C10   C23   A    
C16   O14   A    
C35   F5    S    
C2    C30   A    
C36   C38   A    
C15   C43   S    
C37   C39   A    
C6    C13   A    
C21   F1    S    
F3    N4    S    
C27   C45   A    
C3    C36   A    
C43   H8    S    
C39   H15   S    
C2    C14   A    
C26   N4    D    
C6    C10   A    
C22   H6    S    
C30   N2    A    
C29   N1    A    
C4    C37   A    
C39   C41   A    
C8    C10   A    
C21   C24   D    
C40   N1    S    
C44   H9    S    
C34   C47   A    
C3    C16   S    
Cu1   O15   S    
