data_mof_unit_12311.cif
_audit_creation_date              2012-12-10T20:10:26-0500
_audit_creation_method            fapswitch 2.2
_symmetry_space_group_name_H-M    P1
_symmetry_Int_Tables_number       1
_space_group_crystal_system       triclinic
_cell_length_a                    19.139041
_cell_length_b                    18.419553
_cell_length_c                    11.514578
_cell_angle_alpha                 90.320189
_cell_angle_beta                  90.382229
_cell_angle_gamma                 89.591625
_cell_volume                      4059.0081454

loop_
_atom_site_label
_atom_site_type_symbol
_atom_type_description
_atom_site_fract_x
_atom_site_fract_y
_atom_site_fract_z
_atom_type_partial_charge
C1    C     C_R   0.365642 0.500247 0.502112 0.872033
C2    C     C_R   0.635208 0.499772 0.498137 0.845795
C3    C     C_R   0.073843 0.515711 0.570206 -0.025786
C4    C     C_R   0.928990 0.508346 0.575208 -0.025844
C5    C     C_R   0.530676 0.726114 0.589517 -0.046094
C6    C     C_R   0.483614 0.273559 0.400929 -0.078617
C7    C     C_R   0.469720 0.725925 0.410076 -0.061279
C8    C     C_R   0.515438 0.274097 0.599587 -0.049781
C9    C     C_R   0.531346 0.802345 0.591604 0.261866
C10   C     C_R   0.482988 0.197322 0.398759 0.269582
C11   C     C_R   0.469579 0.802143 0.407474 0.267021
C12   C     C_R   0.514784 0.197890 0.602542 0.239504
C13   C     C_R   0.500516 0.841524 0.499498 -0.106301
C14   C     C_R   0.498918 0.158070 0.500683 -0.104154
C15   C     C_R   0.546235 0.961183 0.428807 -0.101512
C16   C     C_R   0.453378 0.037890 0.571357 -0.092747
C17   C     C_R   0.453977 0.961632 0.571326 -0.093683
C18   C     C_R   0.545994 0.037465 0.429440 -0.109094
C19   C     C_R   0.499428 0.076734 0.500510 0.202259
C20   C     C_R   0.500261 0.922574 0.499828 0.215261
C21   C     C_R   0.500275 0.499841 0.281628 0.911241
C22   C     C_R   0.500310 0.500176 0.718381 0.923240
C23   C     C_1   0.501361 0.499612 0.161390 -0.196088
C24   C     C_1   0.501391 0.500531 0.838651 -0.179586
C25   C     C_1   0.502030 0.499903 0.059268 -0.020923
C26   C     C_1   0.502043 0.500415 0.940796 -0.010616
C27   C     C_R   0.748903 0.437038 0.545158 -0.010577
C28   C     C_R   0.249493 0.547964 0.446245 -0.005704
C29   C     C_R   0.260547 0.465805 0.612773 -0.029476
C30   C     C_R   0.748880 0.566724 0.495681 -0.009087
C31   C     C_R   0.818075 0.443061 0.581054 -0.204937
C32   C     C_R   0.179231 0.557639 0.471948 -0.203801
C33   C     C_R   0.189885 0.475490 0.635223 -0.199921
C34   C     C_R   0.818758 0.570083 0.529171 -0.210719
C35   C     C_R   0.852950 0.508572 0.570616 0.117994
C36   C     C_R   0.149514 0.519956 0.563750 0.112116
C37   C     C_R   0.712044 0.500247 0.508088 -0.151647
C38   C     C_R   0.290593 0.502009 0.517354 -0.122458
C39   C     C_R   0.964369 0.545753 0.664870 -0.053931
C40   C     C_R   0.038422 0.476291 0.482698 -0.054579
C41   C     C_R   0.037727 0.549435 0.662491 -0.054340
C42   C     C_R   0.965574 0.473460 0.484299 -0.055714
H1    H     H_    0.847102 0.394964 0.607201 0.134933
H2    H     H_    0.146277 0.590322 0.415444 0.132871
H3    H     H_    0.165475 0.445705 0.704928 0.139450
H4    H     H_    0.848130 0.619432 0.515426 0.134672
H5    H     H_    0.555064 0.695977 0.659411 0.173225
H6    H     H_    0.470562 0.303302 0.322993 0.177363
H7    H     H_    0.445537 0.695656 0.339985 0.182808
H8    H     H_    0.528693 0.304191 0.677415 0.181005
H9    H     H_    0.582522 0.932179 0.373308 0.138000
H10   H     H_    0.416739 0.066714 0.626457 0.157421
H11   H     H_    0.418030 0.932969 0.626669 0.151822
H12   H     H_    0.582329 0.065984 0.374603 0.151424
N1    N     N_R   0.500000 0.689440 0.500000 -0.132815
N2    N     N_R   0.500000 0.310560 0.500000 -0.130318
O1    O     O_R   0.398180 0.560840 0.499970 -0.601687
O2    O     O_R   0.601820 0.439160 0.500030 -0.602908
O3    O     O_R   0.601820 0.560840 0.500030 -0.596884
O4    O     O_R   0.398180 0.439160 0.499970 -0.614089
O5    O     O_R   0.500010 0.560810 0.334440 -0.608944
O6    O     O_R   0.499990 0.439190 0.665560 -0.611815
O7    O     O_R   0.499990 0.560810 0.665560 -0.619099
O8    O     O_R   0.500010 0.439190 0.334440 -0.625132
Zn1   Zn    Zn3+2 0.500000 0.581210 0.500000 0.967941
Zn2   Zn    Zn3+2 0.500000 0.418790 0.500000 0.956067
C43   C     C_R   0.720787 0.362488 0.535941 0.158497
C44   C     C_R   0.717090 0.318155 0.634518 -0.188456
C45   C     C_R   0.696378 0.245788 0.623543 -0.104148
C46   C     C_R   0.679431 0.217195 0.514309 -0.105496
C47   C     C_R   0.682718 0.261029 0.415900 -0.161528
C48   C     C_R   0.703859 0.333269 0.426343 -0.081459
H13   H     H_    0.730918 0.339464 0.719399 0.130805
H14   H     H_    0.693739 0.211763 0.699676 0.179622
H15   H     H_    0.663489 0.161138 0.506026 0.148009
H16   H     H_    0.669475 0.238841 0.331418 0.146405
H17   H     H_    0.707672 0.366314 0.349148 0.120289
C49   C     C_R   0.277124 0.581847 0.339666 0.127806
C50   C     C_R   0.273315 0.657419 0.324937 -0.155828
C51   C     C_R   0.297502 0.688933 0.222701 -0.131460
C52   C     C_R   0.324950 0.645250 0.134208 -0.108270
C53   C     C_R   0.328279 0.569972 0.147791 -0.144587
C54   C     C_R   0.304724 0.538268 0.250244 -0.154963
H18   H     H_    0.251876 0.691805 0.392687 0.136066
H19   H     H_    0.294718 0.747209 0.211891 0.180926
H20   H     H_    0.343305 0.669691 0.054890 0.148042
H21   H     H_    0.348841 0.536168 0.078705 0.131593
H22   H     H_    0.307071 0.479789 0.259284 0.123319
C55   C     C_R   0.301044 0.417610 0.690735 0.119602
C56   C     C_R   0.318735 0.346870 0.654939 -0.100618
C57   C     C_R   0.355303 0.300638 0.730043 -0.133386
C58   C     C_R   0.373586 0.324405 0.841595 -0.077613
C59   C     C_R   0.354865 0.394272 0.878507 -0.149046
C60   C     C_R   0.318719 0.440887 0.803370 -0.179364
H23   H     H_    0.304275 0.327730 0.569004 0.128623
H24   H     H_    0.369234 0.246298 0.701914 0.148362
H25   H     H_    0.401868 0.288538 0.899655 0.167447
H26   H     H_    0.368412 0.412299 0.965340 0.136560
H27   H     H_    0.304452 0.494919 0.832831 0.137708
C61   C     C_R   0.718095 0.632107 0.439769 0.142093
C62   C     C_R   0.689684 0.627662 0.327008 -0.127161
C63   C     C_R   0.659115 0.688834 0.275645 -0.109931
C64   C     C_R   0.657580 0.755013 0.335565 -0.117938
C65   C     C_R   0.686898 0.760224 0.446754 -0.143069
C66   C     C_R   0.717086 0.699076 0.498865 -0.141630
H28   H     H_    0.690555 0.576672 0.279670 0.101566
H29   H     H_    0.636528 0.684897 0.189436 0.143455
H30   H     H_    0.633656 0.802247 0.295880 0.148648
H31   H     H_    0.685673 0.811541 0.492976 0.166661
H32   H     H_    0.738807 0.703630 0.585689 0.144422
C67   C     C_R   0.924275 0.582194 0.758922 0.133651
C68   C     C_R   0.884776 0.540976 0.836622 -0.148869
C69   C     C_R   0.846305 0.575389 0.924082 -0.139055
C70   C     C_R   0.847173 0.650990 0.934772 -0.104118
C71   C     C_R   0.886369 0.692338 0.857749 -0.126787
C72   C     C_R   0.924727 0.658164 0.769895 -0.145484
H33   H     H_    0.883848 0.482338 0.829334 0.122541
H34   H     H_    0.815694 0.543491 0.983406 0.120219
H35   H     H_    0.817370 0.677524 0.002585 0.131751
H36   H     H_    0.886860 0.750895 0.865908 0.138266
H37   H     H_    0.954476 0.690770 0.710142 0.126429
C73   C     C_R   0.077970 0.438087 0.389288 0.144834
C74   C     C_R   0.119467 0.377134 0.415903 -0.146047
C75   C     C_R   0.159057 0.343142 0.329453 -0.137180
C76   C     C_R   0.156938 0.369260 0.215767 -0.107521
C77   C     C_R   0.115155 0.429363 0.188334 -0.136040
C78   C     C_R   0.075919 0.463947 0.274755 -0.144049
H38   H     H_    0.121512 0.356416 0.503700 0.124527
H39   H     H_    0.191412 0.296575 0.350622 0.138564
H40   H     H_    0.187594 0.342870 0.148878 0.134468
H41   H     H_    0.113393 0.449160 0.100105 0.123946
H42   H     H_    0.044525 0.511136 0.252883 0.119734
C79   C     C_R   0.076897 0.587811 0.756199 0.134738
C80   C     C_R   0.115671 0.650185 0.730924 -0.149998
C81   C     C_R   0.153522 0.685417 0.818600 -0.135649
C82   C     C_R   0.152622 0.658961 0.932085 -0.104370
C83   C     C_R   0.113811 0.597257 0.958106 -0.138361
C84   C     C_R   0.076203 0.561546 0.870540 -0.149522
H43   H     H_    0.116555 0.671391 0.643410 0.124997
H44   H     H_    0.183491 0.733300 0.798580 0.138121
H45   H     H_    0.181881 0.686343 0.999912 0.135692
H46   H     H_    0.112966 0.577205 0.046196 0.128305
H47   H     H_    0.046817 0.513390 0.891573 0.123683
C85   C     C_R   0.927397 0.434046 0.390571 0.139583
C86   C     C_R   0.889055 0.472632 0.306453 -0.138704
C87   C     C_R   0.850522 0.435327 0.221937 -0.151262
C88   C     C_R   0.850515 0.359454 0.220238 -0.124537
C89   C     C_R   0.889071 0.320742 0.303085 -0.119058
C90   C     C_R   0.927484 0.357832 0.388043 -0.144452
H48   H     H_    0.888546 0.531427 0.307158 0.124176
H49   H     H_    0.820383 0.465207 0.158145 0.119558
H50   H     H_    0.820462 0.330663 0.154957 0.128002
H51   H     H_    0.888833 0.261992 0.301904 0.134495
H52   H     H_    0.956514 0.327367 0.452721 0.123307
Cl1   Cl    Cl    0.572581 0.846799 0.708794 -0.603579
Cl2   Cl    Cl    0.459402 0.153358 0.268259 -0.590190
Cl3   Cl    Cl    0.429407 0.846333 0.289252 -0.612063
Cl4   Cl    Cl    0.537153 0.154676 0.733761 -0.621495

loop_
_geom_bond_atom_site_label_1
_geom_bond_atom_site_label_2
_ccdc_geom_bond_type
C15   C18   A    
C66   H32   S    
O7    Zn1   S    
C62   C63   A    
C29   C33   A    
C17   H11   S    
C33   H3    S    
C88   C89   A    
C7    N1    A    
C83   H46   S    
C8    N2    A    
C29   C55   S    
C70   C71   A    
C56   C57   A    
C81   C82   A    
C39   C41   A    
C7    C11   A    
C5    H5    S    
C61   C66   A    
C85   C90   A    
C31   H1    S    
C77   C78   A    
C32   C36   A    
C24   C26   T    
C18   C19   A    
C84   H47   S    
C50   H18   S    
C53   H21   S    
C30   C61   S    
C73   C78   A    
C17   C20   A    
C34   C35   A    
C55   C60   A    
C9    C13   A    
C78   H42   S    
C65   C66   A    
C21   O8    A    
C48   H17   S    
C57   H24   S    
C69   C70   A    
C76   H40   S    
O2    Zn2   S    
C67   C68   A    
C16   C17   A    
C29   C38   A    
C33   C36   A    
C64   H30   S    
C34   H4    S    
C15   H9    S    
C28   C49   S    
C21   O5    A    
C70   H35   S    
C40   C42   A    
C54   H22   S    
C22   O7    A    
C4    C35   S    
O4    Zn2   S    
C79   C84   A    
C15   C20   A    
C49   C54   A    
C28   C32   A    
C41   C79   S    
C68   C69   A    
N1    Zn1   S    
C58   H25   S    
C86   C87   A    
C45   H14   S    
C81   H44   S    
C72   H37   S    
C30   C34   A    
C27   C31   A    
C43   C44   A    
C16   H10   S    
C74   C75   A    
C89   C90   A    
C7    H7    S    
C10   C14   A    
C1    O4    A    
C10   Cl2   S    
C80   H43   S    
O6    Zn2   S    
C49   C50   A    
C44   C45   A    
C25   C26   S    
C52   C53   A    
C50   C51   A    
C30   C37   A    
C87   H49   S    
O8    Zn2   S    
C90   H52   S    
C5    C9    A    
C51   H19   S    
C1    O1    A    
C22   O6    A    
C79   C80   A    
C4    C39   A    
C28   C38   A    
C8    C12   A    
O1    Zn1   S    
C32   H2    S    
C52   H20   S    
C63   H29   S    
C59   C60   A    
C67   C72   A    
C6    H6    S    
C1    C38   S    
C3    C36   S    
C12   C14   A    
C3    C40   A    
C53   C54   A    
C21   C23   S    
C42   C85   S    
C76   C77   A    
C22   C24   S    
C89   H51   S    
C55   C56   A    
C8    H8    S    
C47   H16   S    
C57   C58   A    
C43   C48   A    
C11   Cl3   S    
C87   C88   A    
C62   H28   S    
C3    C41   A    
C13   C20   S    
C2    O3    A    
C14   C19   S    
C5    N1    A    
C86   H48   S    
C6    N2    A    
C51   C52   A    
C56   H23   S    
C6    C10   A    
C2    O2    A    
C80   C81   A    
C40   C73   S    
C83   C84   A    
C85   C86   A    
C60   H27   S    
C88   H50   S    
C44   H13   S    
C47   C48   A    
O3    Zn1   S    
C11   C13   A    
C2    C37   S    
C74   H38   S    
C68   H33   S    
C4    C42   A    
C77   H41   S    
C27   C37   A    
C16   C19   A    
N2    Zn2   S    
C39   C67   S    
C58   C59   A    
C82   H45   S    
C75   H39   S    
C31   C35   A    
C23   C25   T    
C63   C64   A    
C45   C46   A    
C46   C47   A    
C27   C43   S    
C18   H12   S    
C69   H34   S    
O5    Zn1   S    
C9    Cl1   S    
C71   H36   S    
C64   C65   A    
C65   H31   S    
C82   C83   A    
C46   H15   S    
C61   C62   A    
C12   Cl4   S    
C73   C74   A    
C59   H26   S    
C71   C72   A    
C75   C76   A    
