data_mof_unit_18842.cif
_audit_creation_date              2012-12-11T19:41:51-0500
_audit_creation_method            fapswitch 2.2
_symmetry_space_group_name_H-M    P1
_symmetry_Int_Tables_number       1
_space_group_crystal_system       triclinic
_cell_length_a                    8.307699
_cell_length_b                    15.1842
_cell_length_c                    26.909876
_cell_angle_alpha                 98.999725
_cell_angle_beta                  92.922153
_cell_angle_gamma                 81.087964
_cell_volume                      3311.0552493

loop_
_atom_site_label
_atom_site_type_symbol
_atom_type_description
_atom_site_fract_x
_atom_site_fract_y
_atom_site_fract_z
_atom_type_partial_charge
Ba1   Ba    Ba6+2 0.860050 0.456430 0.522530 1.641535
Ba2   Ba    Ba6+2 0.329780 0.543490 0.477460 1.634466
C1    C     C_3   0.752370 0.132891 0.644331 -0.373620
C2    C     C_R   0.837631 0.551013 0.173640 0.604152
C3    C     C_2   0.728204 0.504895 0.271355 -0.093667
C4    C     C_3   0.168962 0.267464 0.658694 0.400459
C5    C     C_3   0.693507 0.511290 0.326971 -0.042625
C6    C     C_1   0.985506 0.482644 0.342457 0.052090
C7    C     C_2   0.020139 0.480979 0.294447 -0.106124
C8    C     C_2   0.884266 0.490822 0.255035 0.173560
C9    C     C_R   0.008754 0.489840 0.101180 -0.151284
C10   C     C_R   0.082735 0.420019 0.127861 -0.021442
C11   C     C_R   0.200731 0.351853 0.103157 0.170840
C12   C     C_3   0.723618 0.225446 0.628165 0.351848
C13   C     C_R   0.886502 0.556642 0.124497 -0.014744
C14   C     C_2   0.843993 0.524088 0.359413 -0.269550
C15   C     C_2   0.342601 0.471271 0.642393 -0.304632
C16   C     C_3   0.103126 0.258031 0.709845 -0.057496
C17   C     C_R   0.201453 0.419825 0.973886 0.025131
C18   C     C_R   0.046333 0.572075 0.977248 0.026621
C19   C     C_R   0.145609 0.496993 0.950504 0.051142
C20   C     C_R   0.289468 0.344012 0.944331 -0.103391
C21   C     C_R   0.324891 0.345257 0.894285 -0.056451
C22   C     C_R   0.276919 0.422618 0.871540 -0.027981
C23   C     C_3   0.471838 0.728806 0.641076 0.587035
C24   C     C_R   0.189116 0.499136 0.899901 -0.081557
C25   C     C_R   0.145729 0.578044 0.877835 -0.034705
C26   C     C_R   0.192415 0.579748 0.828115 0.582851
C27   C     C_R   0.313036 0.424549 0.820815 0.576336
C28   C     C_3   0.199572 0.257037 0.405521 0.371844
C29   C     C_2   0.457571 0.480230 0.729985 -0.111595
C30   C     C_3   0.493444 0.481102 0.675438 -0.000620
C31   C     C_1   0.203048 0.517756 0.658757 0.113931
C32   C     C_2   0.167081 0.524381 0.707445 0.071081
C33   C     C_2   0.302196 0.502567 0.746171 0.187869
C34   C     C_3   0.566065 0.733437 0.691728 -0.288346
C35   C     C_R   0.166079 0.420654 0.025558 0.009623
C36   C     C_R   0.055405 0.492304 0.050802 0.046182
C37   C     C_R   0.990483 0.566318 0.025864 0.008763
C38   C     C_R   0.239023 0.352423 0.053069 -0.127703
C39   C     C_R   0.815714 0.627270 0.097865 0.174681
C40   C     C_3   0.194757 0.157579 0.383244 0.098369
C41   C     C_R   0.007445 0.650897 0.954410 -0.103603
C42   C     C_R   0.057487 0.653942 0.906087 -0.064332
C43   C     C_R   0.868762 0.631651 0.049962 -0.133438
C44   C     C_R   0.846285 0.831826 0.467133 -0.002130
C45   C     C_3   0.947012 0.762062 0.347863 0.345998
C46   C     C_R   0.780379 0.924925 0.471308 -0.030369
C47   C     C_R   0.645890 0.111983 0.482709 -0.047883
C48   C     C_R   0.789440 0.077798 0.455953 -0.039366
C49   C     C_R   0.857459 0.986955 0.451464 -0.097046
C50   C     C_R   0.578904 0.205314 0.488572 0.045872
C51   C     C_R   0.433117 0.233768 0.514260 -0.304710
C52   C     C_3   0.954328 0.739429 0.596968 0.331923
C53   C     C_R   0.613774 0.801934 0.508453 0.068598
C54   C     C_R   0.548770 0.894278 0.514661 -0.010235
C55   C     C_R   0.630657 0.956464 0.495909 0.027332
C56   C     C_3   0.948801 0.784962 0.293784 0.319037
C57   C     C_R   0.406003 0.925714 0.540691 -0.066657
C58   C     C_R   0.335639 0.014989 0.546431 0.121830
C59   C     C_R   0.414124 0.080214 0.528256 -0.004248
C60   C     C_R   0.564656 0.050030 0.502985 -0.030466
C61   C     C_R   0.348262 0.173234 0.533008 0.057799
C62   C     C_R   0.759659 0.771781 0.484372 -0.270409
C63   C     C_3   0.895234 0.833082 0.625615 -0.127422
C64   C     C_3   0.711623 0.326309 0.369063 0.319416
C65   C     C_3   0.701399 0.298009 0.312173 -0.395792
C66   C     C_3   0.426614 0.774502 0.346808 0.498038
C67   C     C_3   0.407816 0.844954 0.310716 -0.081677
C68   C     C_R   0.037806 0.420928 0.178518 0.606744
H1    H     H_    0.835990 0.236539 0.611548 0.111459
H2    H     H_    0.625918 0.225930 0.598672 -0.008170
H3    H     H_    0.635898 0.115127 0.655419 0.126645
H4    H     H_    0.129921 0.315163 0.738591 0.100457
H5    H     H_    0.287009 0.887917 0.315827 0.067809
H6    H     H_    0.411764 0.809599 0.271247 0.114113
H7    H     H_    0.557860 0.466413 0.756491 0.107844
H8    H     H_    0.328241 0.281180 0.958362 0.069936
H9    H     H_    0.331781 0.299267 0.037109 0.065091
H10   H     H_    0.942356 0.712739 0.973686 0.069073
H11   H     H_    0.024426 0.716199 0.890597 0.120501
H12   H     H_    0.849494 0.706145 0.581740 0.037151
H13   H     H_    0.807062 0.686202 0.031632 0.065864
H14   H     H_    0.968882 0.262696 0.707042 0.133029
H15   H     H_    0.325540 0.265917 0.418431 -0.046315
H16   H     H_    0.278207 0.138804 0.350791 0.077420
H17   H     H_    0.375829 0.093711 0.423387 0.142452
H18   H     H_    0.225689 0.034098 0.407694 0.190513
H19   H     H_    0.027178 0.077092 0.351911 0.159167
H20   H     H_    0.002586 0.177744 0.333634 0.190117
H21   H     H_    0.032138 0.744652 0.565494 0.016046
H22   H     H_    0.899009 0.922273 0.576635 0.162498
H23   H     H_    0.811126 0.826470 0.655149 0.129922
H24   H     H_    0.734160 0.943054 0.613124 0.186659
H25   H     H_    0.839829 0.331447 0.380704 0.024105
H26   H     H_    0.332827 0.851609 0.663698 0.146438
H27   H     H_    0.258333 0.792019 0.613387 0.169549
H28   H     H_    0.371326 0.628618 0.594132 0.192535
H29   H     H_    0.563699 0.596924 0.615247 0.175752
H30   H     H_    0.583838 0.803920 0.706423 0.085522
H31   H     H_    0.498238 0.708151 0.719781 0.101499
H32   H     H_    0.687986 0.691393 0.687300 0.096841
H33   H     H_    0.841399 0.131041 0.676424 0.135344
H34   H     H_    0.999058 0.863587 0.645146 0.097924
H35   H     H_    0.977793 0.687780 0.346598 -0.016858
H36   H     H_    0.821938 0.784343 0.362128 0.008011
H37   H     H_    0.108118 0.768642 0.235791 0.184338
H38   H     H_    0.133651 0.682971 0.269230 0.184124
H39   H     H_    0.711808 0.773158 0.270035 0.242814
H40   H     H_    0.835021 0.674960 0.269579 0.190847
H41   H     H_    0.000792 0.914715 0.314590 0.184979
H42   H     H_    0.903998 0.897741 0.258390 0.181085
H43   H     H_    0.432407 0.776236 0.422974 0.210498
H44   H     H_    0.572932 0.829399 0.402768 0.160747
H45   H     H_    0.633422 0.392193 0.379478 0.028753
H46   H     H_    0.311212 0.746973 0.344359 0.114748
H47   H     H_    0.531857 0.937827 0.288925 0.184513
H48   H     H_    0.505658 0.951375 0.350929 0.186269
H49   H     H_    0.113823 0.335135 0.650296 0.049736
H50   H     H_    0.145998 0.474689 0.283808 0.131661
H51   H     H_    0.261005 0.219137 0.108029 0.171772
H52   H     H_    0.408706 0.282545 0.128316 0.172068
H53   H     H_    0.391077 0.284843 0.873385 0.123905
H54   H     H_    0.625646 0.506590 0.244738 0.124127
H55   H     H_    0.587933 0.697060 0.095424 0.171785
H56   H     H_    0.802412 0.083083 0.612170 0.078369
H57   H     H_    0.732295 0.758953 0.121322 0.170910
H58   H     H_    0.376959 0.306505 0.693023 0.199535
H59   H     H_    0.381720 0.284464 0.630609 0.113613
H60   H     H_    0.978624 0.525296 0.753356 0.180177
H61   H     H_    0.988961 0.625237 0.733530 0.210736
H62   H     H_    0.835117 0.563323 0.396838 0.072397
H63   H     H_    0.351984 0.435497 0.604165 0.066967
H64   H     H_    0.852608 0.120526 0.438176 0.145209
H65   H     H_    0.970007 0.965895 0.431570 0.111305
H66   H     H_    0.099179 0.999043 0.548118 0.177173
H67   H     H_    0.734403 0.223833 0.302224 0.140028
H68   H     H_    0.193908 0.014547 0.605484 0.159698
H69   H     H_    0.341591 0.881313 0.556743 0.093066
H70   H     H_    0.380850 0.304220 0.517786 0.065456
H71   H     H_    0.810461 0.701139 0.481501 0.055319
H72   H     H_    0.297714 0.170577 0.732767 0.224046
H73   H     H_    0.151367 0.119107 0.699327 0.202767
H74   H     H_    0.116579 0.277148 0.437646 0.064702
H75   H     H_    0.787352 0.330095 0.293305 0.079448
H76   H     H_    0.575319 0.317816 0.297834 0.119686
N1    N     N_R   0.919708 0.487387 0.201506 -0.436048
N2    N     N_3   0.908286 0.882942 0.295165 -0.474453
N3    N     N_3   0.451622 0.819122 0.398060 -0.491845
N4    N     N_3   0.535288 0.902580 0.319470 -0.493514
N5    N     N_3   0.283432 0.280678 0.128487 -0.434201
N6    N     N_3   0.690912 0.696856 0.119459 -0.429071
N7    N     N_3   0.345915 0.261022 0.662071 -0.479727
N8    N     N_3   0.002429 0.555437 0.722720 -0.447415
N9    N     N_3   0.181334 0.035457 0.570049 -0.442540
N10   N     N_3   0.171788 0.172925 0.727072 -0.482395
N11   N     N_R   0.267904 0.502239 0.799086 -0.424796
N12   N     N_3   0.249099 0.099467 0.421090 -0.507545
N13   N     N_3   0.029099 0.145406 0.365246 -0.478019
N14   N     N_3   0.812114 0.892035 0.591862 -0.531500
N15   N     N_3   0.313871 0.786139 0.648485 -0.466749
N16   N     N_3   0.450823 0.634976 0.625111 -0.512707
N17   N     N_3   0.109853 0.753319 0.272411 -0.511900
N18   N     N_3   0.828768 0.740427 0.261570 -0.460845
O1    O     O_2   0.906480 0.548660 0.619050 -0.459880
O2    O     O_2   0.182062 0.825303 0.471103 -0.493543
O3    O     O_3   0.060120 0.805691 0.379391 -0.629480
O4    O     O_3   0.138490 0.548590 0.558870 -0.494614
O5    O     O_3   0.572560 0.389960 0.472890 -0.481941
O6    O     O_2   0.345660 0.723580 0.528500 -0.489604
O7    O     O_3   0.563237 0.761716 0.607168 -0.664048
O8    O     O_2   0.356552 0.582309 0.324910 -0.519527
O9    O     O_3   0.557325 0.705171 0.332445 -0.644068
O10   O     O_2   0.101695 0.361359 0.201891 -0.564805
O11   O     O_2   0.384320 0.356761 0.795985 -0.606823
O12   O     O_3   0.657140 0.260619 0.391842 -0.631229
O13   O     O_2   0.721051 0.603046 0.191531 -0.569295
O14   O     O_2   0.167054 0.650578 0.810877 -0.602035
O15   O     O_3   0.686300 0.382310 0.585700 -0.491666
O16   O     O_2   0.835120 0.428203 0.672105 -0.489128
O17   O     O_3   0.045320 0.691918 0.631721 -0.638482
O18   O     O_3   0.679857 0.292051 0.669674 -0.608634
O19   O     O_2   0.844040 0.276390 0.471470 -0.474045
O20   O     O_3   0.101510 0.335500 0.560330 -0.499598
O21   O     O_2   0.010053 0.178872 0.528988 -0.466002
O22   O     O_3   0.123336 0.198477 0.621845 -0.596094
O23   O     O_2   0.283210 0.451310 0.380920 -0.462753
O24   O     O_3   0.051220 0.451340 0.441120 -0.501038
O25   O     O_3   0.503410 0.617620 0.414290 -0.477650
O26   O     O_3   0.153084 0.307893 0.366802 -0.651311
O27   O     O_3   0.617150 0.609960 0.527100 -0.475932
O28   O     O_3   0.088210 0.664420 0.439670 -0.471502
P1    P     P_3+3 0.071950 0.575820 0.612140 1.009170
P2    P     P_3+3 0.664370 0.290050 0.457240 0.987140
P3    P     P_3+3 0.147281 0.220991 0.560590 0.971302
P4    P     P_3+3 0.117760 0.424110 0.387850 0.989987
P5    P     P_3+3 0.045076 0.781857 0.440309 0.934488
P6    P     P_3+3 0.672645 0.398248 0.651056 0.939289
P7    P     P_3+3 0.532711 0.723682 0.542358 0.923862
P8    P     P_3+3 0.523577 0.601581 0.349034 0.943761

loop_
_geom_bond_atom_site_label_1
_geom_bond_atom_site_label_2
_ccdc_geom_bond_type
H68   N9    S    
C53   C54   A    
O23   P4    D    
C51   H70   S    
Ba1   O15   S    
C12   H1    S    
C40   N13   S    
O18   P6    S    
Ba2   O25   S    
C2    O13   D    
C19   C24   A    
C56   N18   S    
Ba1   O19   S    
C1    H56   S    
C55   C60   A    
C39   N6    S    
C43   H13   S    
C54   C55   A    
C3    H54   S    
C24   C25   A    
C11   N5    S    
C58   C59   A    
C67   N4    S    
C17   C19   A    
C27   O11   D    
C32   C33   S    
C35   C38   A    
C36   C37   A    
C56   N2    S    
C62   H71   S    
C5    P8    S    
O19   P2    D    
C28   H74   S    
H26   N15   S    
C67   H6    S    
C34   H32   S    
Ba1   Ba2   S    
H20   N13   S    
C59   C61   A    
Ba2   O23   S    
C11   C38   A    
C30   P6    S    
C66   N3    S    
C17   C35   A    
C12   O18   S    
C22   C27   A    
C1    H3    S    
C9    C13   A    
C25   C42   A    
C46   C49   A    
C53   P7    S    
C23   N15   S    
C66   C67   S    
C45   H35   S    
C65   H75   S    
O7    P7    S    
C21   C22   A    
H19   N13   S    
H47   N4    S    
C40   H16   S    
H18   N12   S    
O17   P1    S    
C7    C8    S    
Ba2   P4    S    
O26   P4    S    
C8    N1    S    
C37   C43   A    
C23   O7    S    
C63   H23   S    
C64   C65   S    
C31   P1    S    
C57   C58   A    
C16   H4    S    
O9    P8    S    
C64   O12   S    
C40   N12   S    
C15   C31   D    
O21   P3    D    
C63   N14   S    
C14   H62   S    
C56   N17   S    
O6    P7    D    
H28   N16   S    
Ba1   O20   S    
H48   N4    S    
C29   H7    S    
C32   N8    S    
C4    C16   S    
H38   N17   S    
C44   C46   A    
C52   O17   S    
C64   H45   S    
H43   N3    S    
O22   P3    S    
C46   C55   A    
C17   C20   A    
C50   P2    S    
Ba2   O27   S    
C13   C39   A    
H60   N8    S    
C42   H11   S    
C48   H64   S    
C52   C63   S    
H66   N9    S    
H40   N18   S    
C6    C7    D    
C44   P5    S    
C21   H53   S    
C23   C34   S    
Ba1   O4    S    
C41   H10   S    
C2    N1    Am   
H51   N5    S    
C44   C62   A    
C34   H31   S    
C9    C36   A    
Ba1   P1    S    
C41   C42   A    
C33   N11   S    
C35   C36   A    
H55   N6    S    
H57   N6    S    
H29   N16   S    
C45   O3    S    
C6    P4    S    
C16   H14   S    
C29   C30   S    
C57   H69   S    
C23   N16   S    
C9    C10   A    
C45   H36   S    
C53   C62   A    
C65   H76   S    
C48   C49   A    
O3    P5    S    
C38   H9    S    
C34   H30   S    
O28   P5    S    
C18   C19   A    
C28   H15   S    
C68   O10   D    
C20   H8    S    
C1    C12   S    
H58   N7    S    
Ba2   O6    S    
Ba1   O27   S    
O25   P8    S    
C5    C14   S    
C66   H46   S    
H27   N15   S    
O4    P1    S    
C15   H63   S    
C15   C30   S    
C61   P3    S    
C67   H5    S    
Ba2   O4    S    
C4    H49   S    
C52   H12   S    
C18   C41   A    
C16   N10   S    
C50   C51   A    
C3    C5    S    
Ba1   O24   S    
C1    H33   S    
C18   C37   A    
C10   C68   A    
H24   N14   S    
C47   C60   A    
Ba1   O1    S    
C12   H2    S    
H61   N8    S    
C22   C24   A    
C47   C50   A    
Ba2   O28   S    
H39   N18   S    
O1    P1    D    
C27   N11   Am   
C66   O9    S    
C54   C57   A    
O5    P2    S    
C68   N1    Am   
O15   P6    S    
O20   P3    S    
C4    O22   S    
H44   N3    S    
H17   N12   S    
H22   N14   S    
O12   P2    S    
H52   N5    S    
C2    C13   A    
Ba1   P2    S    
C58   N9    S    
C3    C8    D    
H41   N2    S    
C45   C56   S    
H59   N7    S    
C51   C61   A    
H73   N10   S    
C49   H65   S    
Ba1   O5    S    
C26   N11   Am   
O27   P7    S    
C31   C32   D    
O8    P8    D    
C29   C33   D    
C28   O26   S    
C59   C60   A    
C65   H67   S    
Ba2   O24   S    
O2    P5    D    
C4    N7    S    
O16   P6    D    
Ba2   O5    S    
H42   N2    S    
C52   H21   S    
C10   C11   A    
O24   P4    S    
C6    C14   D    
C47   C48   A    
C25   C26   A    
C7    H50   S    
C39   C43   A    
C20   C21   A    
C28   C40   S    
H37   N17   S    
C63   H34   S    
H72   N10   S    
C26   O14   D    
C64   H25   S    
