data_mof_unit_33809.cif
_audit_creation_date              2012-12-10T16:34:45-0500
_audit_creation_method            fapswitch 2.2
_symmetry_space_group_name_H-M    P1
_symmetry_Int_Tables_number       1
_space_group_crystal_system       triclinic
_cell_length_a                    28.280477
_cell_length_b                    18.480797
_cell_length_c                    17.051379
_cell_angle_alpha                 90.231664
_cell_angle_beta                  60.763571
_cell_angle_gamma                 90.069373
_cell_volume                      7776.50146375

loop_
_atom_site_label
_atom_site_type_symbol
_atom_type_description
_atom_site_fract_x
_atom_site_fract_y
_atom_site_fract_z
_atom_type_partial_charge
C1    C     C_R   0.700863 0.266652 0.676214 0.866565
C2    C     C_R   0.297955 0.730961 0.324238 0.891580
C3    C     C_R   0.298081 0.268881 0.324139 0.864694
C4    C     C_R   0.702217 0.730599 0.675625 0.890189
C5    C     C_R   0.200862 0.766650 0.676214 0.866544
C6    C     C_R   0.797955 0.230960 0.324238 0.891574
C7    C     C_R   0.798081 0.768879 0.324139 0.864670
C8    C     C_R   0.202218 0.230599 0.675625 0.890188
C9    C     C_R   0.904082 0.504835 0.486950 -0.051317
C10   C     C_R   0.084256 0.502697 0.542400 -0.051067
C11   C     C_R   0.404078 0.004836 0.486953 -0.051306
C12   C     C_R   0.584249 0.002697 0.542412 -0.051030
C13   C     C_R   0.087327 0.372844 0.514948 0.442788
C14   C     C_R   0.924851 0.630369 0.437715 0.426591
C15   C     C_R   0.880797 0.384962 0.553127 0.457865
C16   C     C_R   0.074872 0.633213 0.566157 0.429527
C17   C     C_R   0.587301 0.872836 0.515007 0.442834
C18   C     C_R   0.424856 0.130366 0.437695 0.426592
C19   C     C_R   0.380779 0.884975 0.553161 0.457836
C20   C     C_R   0.574878 0.133215 0.566134 0.429511
C21   C     C_R   0.714679 0.253231 0.958207 0.086489
C22   C     C_R   0.276214 0.728916 0.047951 0.088940
C23   C     C_R   0.283106 0.258408 0.042616 0.089691
C24   C     C_R   0.723561 0.730451 0.950922 0.087234
C25   C     C_R   0.214679 0.753232 0.958206 0.086495
C26   C     C_R   0.776214 0.228915 0.047951 0.088939
C27   C     C_R   0.783109 0.758396 0.042615 0.089698
C28   C     C_R   0.223559 0.230451 0.950924 0.087229
C29   C     C_R   0.771319 0.261272 0.912961 -0.290624
C30   C     C_R   0.219527 0.720047 0.093087 -0.286171
C31   C     C_R   0.227394 0.273642 0.083273 -0.293259
C32   C     C_R   0.779338 0.715220 0.909948 -0.286989
C33   C     C_R   0.271320 0.761271 0.912960 -0.290602
C34   C     C_R   0.719527 0.220043 0.093087 -0.286172
C35   C     C_R   0.727396 0.773619 0.083280 -0.293246
C36   C     C_R   0.279335 0.215215 0.909955 -0.286995
C37   C     C_R   0.801953 0.250375 0.956824 0.119964
C38   C     C_R   0.188803 0.731989 0.049350 0.120632
C39   C     C_R   0.197763 0.260616 0.038087 0.120662
C40   C     C_R   0.809150 0.728907 0.954862 0.118012
C41   C     C_R   0.301954 0.750373 0.956823 0.119951
C42   C     C_R   0.688803 0.231985 0.049349 0.120638
C43   C     C_R   0.697766 0.760605 0.038090 0.120630
C44   C     C_R   0.309145 0.228906 0.954870 0.118024
C45   C     C_R   0.639835 0.320134 0.948954 -0.182405
C46   C     C_R   0.354230 0.669305 0.055463 -0.165717
C47   C     C_R   0.359180 0.322030 0.051252 -0.176323
C48   C     C_R   0.645831 0.669902 0.944266 -0.169240
C49   C     C_R   0.139835 0.820134 0.948953 -0.182415
C50   C     C_R   0.854230 0.169305 0.055463 -0.165718
C51   C     C_R   0.859182 0.822025 0.051251 -0.176345
C52   C     C_R   0.145830 0.169902 0.944267 -0.169236
C53   C     C_R   0.615115 0.344884 0.899251 -0.082710
C54   C     C_R   0.382497 0.651471 0.102073 -0.081713
C55   C     C_R   0.384290 0.346008 0.100794 -0.082427
C56   C     C_R   0.617709 0.651177 0.897652 -0.081741
C57   C     C_R   0.115113 0.844880 0.899252 -0.082718
C58   C     C_R   0.882497 0.151471 0.102073 -0.081712
C59   C     C_R   0.884289 0.846009 0.100795 -0.082436
C60   C     C_R   0.117708 0.151177 0.897652 -0.081743
C61   C     C_R   0.632655 0.321449 0.813050 -0.264863
C62   C     C_R   0.366486 0.678161 0.186373 -0.266427
C63   C     C_R   0.366057 0.323694 0.187455 -0.256953
C64   C     C_R   0.634003 0.676928 0.812944 -0.265203
C65   C     C_R   0.132648 0.821438 0.813054 -0.264894
C66   C     C_R   0.866486 0.178161 0.186373 -0.266431
C67   C     C_R   0.866055 0.823699 0.187458 -0.256932
C68   C     C_R   0.134003 0.176927 0.812944 -0.265204
C69   C     C_R   0.676396 0.276022 0.772684 -0.078227
C70   C     C_R   0.319610 0.717513 0.229255 -0.051608
C71   C     C_R   0.320811 0.281026 0.228704 -0.056462
C72   C     C_R   0.680817 0.716478 0.770126 -0.052955
C73   C     C_R   0.176394 0.776018 0.772685 -0.078253
C74   C     C_R   0.819610 0.217512 0.229255 -0.051607
C75   C     C_R   0.820813 0.781022 0.228703 -0.056450
C76   C     C_R   0.180818 0.216477 0.770125 -0.052954
C77   C     C_R   0.701040 0.248525 0.821739 -0.232644
C78   C     C_R   0.290466 0.736820 0.184027 -0.212708
C79   C     C_R   0.294335 0.256774 0.181019 -0.237248
C80   C     C_R   0.710087 0.735791 0.815020 -0.212809
C81   C     C_R   0.201040 0.748526 0.821738 -0.232612
C82   C     C_R   0.790466 0.236819 0.184028 -0.212709
C83   C     C_R   0.794342 0.756761 0.181015 -0.237284
C84   C     C_R   0.210087 0.235789 0.815020 -0.212815
C85   C     C_R   0.691265 0.129634 0.534663 0.892886
C86   C     C_R   0.304388 0.872479 0.479229 0.918522
C87   C     C_R   0.309044 0.129931 0.463713 0.904127
C88   C     C_R   0.693709 0.871915 0.525099 0.892130
C89   C     C_R   0.191265 0.629634 0.534665 0.892857
C90   C     C_R   0.804389 0.372479 0.479227 0.918485
C91   C     C_R   0.809044 0.629930 0.463715 0.904160
C92   C     C_R   0.193712 0.371916 0.525092 0.892202
C93   C     C_R   0.683473 0.271566 0.910500 0.104914
C94   C     C_R   0.307982 0.713225 0.095591 0.102203
C95   C     C_R   0.313570 0.277116 0.091206 0.113431
C96   C     C_R   0.692347 0.713061 0.903318 0.105266
C97   C     C_R   0.183473 0.771566 0.910499 0.104907
C98   C     C_R   0.807982 0.213225 0.095591 0.102202
C99   C     C_R   0.813575 0.777105 0.091203 0.113463
C100  C     C_R   0.192346 0.213060 0.903319 0.105261
C101  C     C_R   0.074423 0.099179 0.933690 0.912757
C102  C     C_R   0.926160 0.900098 0.065782 0.904876
C103  C     C_R   0.925603 0.099193 0.066386 0.914994
C104  C     C_R   0.074099 0.900341 0.933782 0.906902
C105  C     C_R   0.574423 0.599179 0.933690 0.912752
C106  C     C_R   0.426161 0.400097 0.065781 0.904878
C107  C     C_R   0.425603 0.599193 0.066386 0.914998
C108  C     C_R   0.574099 0.400343 0.933782 0.906889
C109  C     C_R   0.537835 0.135171 0.533497 0.022365
C110  C     C_R   0.431117 0.879260 0.549037 0.011265
C111  C     C_R   0.461199 0.133791 0.472021 0.018876
C112  C     C_R   0.532296 0.874085 0.540860 0.012226
C113  C     C_R   0.037827 0.635171 0.533524 0.022394
C114  C     C_R   0.931141 0.379249 0.548984 0.011176
C115  C     C_R   0.961191 0.633794 0.472047 0.018854
C116  C     C_R   0.032325 0.374081 0.540786 0.012046
C117  C     C_R   0.520533 0.200376 0.513254 -0.201312
C118  C     C_R   0.449759 0.813854 0.565765 -0.198699
C119  C     C_R   0.484968 0.199272 0.477727 -0.200714
C120  C     C_R   0.502014 0.810325 0.555072 -0.191874
C121  C     C_R   0.020518 0.700378 0.513297 -0.201314
C122  C     C_R   0.949796 0.313837 0.565676 -0.198713
C123  C     C_R   0.984954 0.699276 0.477769 -0.200718
C124  C     C_R   0.002054 0.310313 0.554969 -0.191920
C125  C     C_R   0.474814 0.069981 0.500338 0.001866
C126  C     C_R   0.510023 0.940199 0.537496 -0.001200
C127  C     C_R   0.516528 0.070028 0.522944 0.001359
C128  C     C_R   0.462793 0.941637 0.530574 -0.013209
C129  C     C_R   0.974812 0.569981 0.500348 0.001866
C130  C     C_R   0.010041 0.440194 0.537452 -0.001093
C131  C     C_R   0.016527 0.570028 0.522954 0.001353
C132  C     C_R   0.962808 0.441631 0.530539 -0.013205
C133  C     C_R   0.947295 0.505634 0.505599 -0.072615
C134  C     C_R   0.036685 0.504429 0.535151 -0.070796
C135  C     C_R   0.447290 0.005636 0.505607 -0.072618
C136  C     C_R   0.536677 0.004431 0.535165 -0.070813
C137  C     C_R   0.872098 0.441940 0.505538 -0.061799
C138  C     C_R   0.105399 0.568108 0.555608 -0.056964
C139  C     C_R   0.111862 0.436014 0.530239 -0.061553
C140  C     C_R   0.891098 0.567639 0.454674 -0.046454
C141  C     C_R   0.372091 0.941944 0.505549 -0.061784
C142  C     C_R   0.605398 0.068109 0.555602 -0.056939
C143  C     C_R   0.611849 0.936010 0.530270 -0.061659
C144  C     C_R   0.391100 0.067638 0.454665 -0.046465
C145  C     C_R   0.832101 0.439073 0.478095 -0.111358
C146  C     C_R   0.157062 0.565840 0.552218 -0.109813
C147  C     C_R   0.161644 0.436494 0.534075 -0.102394
C148  C     C_R   0.842588 0.565968 0.447716 -0.114026
C149  C     C_R   0.332098 0.939075 0.478097 -0.111350
C150  C     C_R   0.657062 0.065839 0.552214 -0.109813
C151  C     C_R   0.661636 0.936491 0.534090 -0.102438
C152  C     C_R   0.342589 0.065968 0.447710 -0.114040
C153  C     C_R   0.818333 0.500872 0.448799 -0.303681
C154  C     C_R   0.181825 0.500525 0.547570 -0.302005
C155  C     C_R   0.318333 0.000872 0.448794 -0.303679
C156  C     C_R   0.681822 0.000523 0.547571 -0.301987
H1    H     H_    0.018500 0.258425 0.558964 0.162818
H2    H     H_    0.974518 0.749906 0.458226 0.177351
H3    H     H_    0.926003 0.264825 0.579736 0.171491
H4    H     H_    0.036600 0.751731 0.520324 0.174220
H5    H     H_    0.518450 0.758436 0.559098 0.162769
H6    H     H_    0.474536 0.249900 0.458174 0.177357
H7    H     H_    0.425961 0.764846 0.579842 0.171471
H8    H     H_    0.536620 0.251730 0.520269 0.174213
H9    H     H_    0.784868 0.499651 0.434676 0.190017
H10   H     H_    0.219935 0.500082 0.548360 0.193485
H11   H     H_    0.284869 0.999650 0.434668 0.190014
H12   H     H_    0.719934 0.000081 0.548356 0.193483
H13   H     H_    0.791979 0.278090 0.843402 0.157660
H14   H     H_    0.198886 0.702495 0.162475 0.145363
H15   H     H_    0.207120 0.297783 0.149598 0.141359
H16   H     H_    0.799750 0.691484 0.843248 0.149021
H17   H     H_    0.291979 0.778086 0.843400 0.157655
H18   H     H_    0.698886 0.202490 0.162474 0.145363
H19   H     H_    0.707119 0.797742 0.149616 0.141352
H20   H     H_    0.299746 0.191471 0.843259 0.149024
H21   H     H_    0.627050 0.341583 0.015551 0.160978
H22   H     H_    0.366705 0.646285 0.989698 0.160126
H23   H     H_    0.373250 0.341302 0.983494 0.157489
H24   H     H_    0.632932 0.648634 0.010816 0.156077
H25   H     H_    0.127051 0.841586 0.015548 0.160983
H26   H     H_    0.866705 0.146286 0.989697 0.160126
H27   H     H_    0.873251 0.841297 0.983493 0.157488
H28   H     H_    0.132930 0.148635 0.010818 0.156085
H29   H     H_    0.614789 0.343440 0.774724 0.179073
H30   H     H_    0.388464 0.663635 0.221334 0.176875
H31   H     H_    0.384929 0.344101 0.225161 0.174166
H32   H     H_    0.612104 0.661974 0.777887 0.177770
H33   H     H_    0.114776 0.843419 0.774732 0.179094
H34   H     H_    0.888464 0.163635 0.221334 0.176875
H35   H     H_    0.884921 0.844115 0.225168 0.174149
H36   H     H_    0.112104 0.161974 0.777887 0.177768
H37   H     H_    0.735947 0.213148 0.789237 0.162748
H38   H     H_    0.253586 0.768414 0.218099 0.154099
H39   H     H_    0.258065 0.223972 0.214106 0.153677
H40   H     H_    0.747080 0.767088 0.781101 0.156080
H41   H     H_    0.235949 0.713152 0.789235 0.162749
H42   H     H_    0.753586 0.268413 0.218100 0.154100
H43   H     H_    0.758076 0.723951 0.214098 0.153653
H44   H     H_    0.247081 0.267085 0.781101 0.156083
O1    O     O_R   0.746490 0.236330 0.638080 -0.613716
O2    O     O_R   0.253510 0.763670 0.361920 -0.638993
O3    O     O_R   0.253510 0.236330 0.361920 -0.637178
O4    O     O_R   0.746490 0.763670 0.638080 -0.638937
O5    O     O_R   0.246490 0.736330 0.638080 -0.613701
O6    O     O_R   0.753510 0.263670 0.361920 -0.638994
O7    O     O_R   0.753510 0.736330 0.361920 -0.637274
O8    O     O_R   0.246490 0.263670 0.638080 -0.638936
O9    O     O_R   0.674170 0.186160 0.516270 -0.574205
O10   O     O_R   0.325830 0.813840 0.483730 -0.586321
O11   O     O_R   0.325830 0.186160 0.483730 -0.574038
O12   O     O_R   0.674170 0.813840 0.516270 -0.570486
O13   O     O_R   0.174170 0.686160 0.516270 -0.574216
O14   O     O_R   0.825830 0.313840 0.483730 -0.586315
O15   O     O_R   0.825830 0.686160 0.483730 -0.574033
O16   O     O_R   0.174170 0.313840 0.516270 -0.570445
O17   O     O_R   0.739960 0.127620 0.525000 -0.640864
O18   O     O_R   0.260040 0.872380 0.475000 -0.641765
O19   O     O_R   0.260040 0.127620 0.475000 -0.637505
O20   O     O_R   0.739960 0.872380 0.525000 -0.638490
O21   O     O_R   0.239960 0.627620 0.525000 -0.640863
O22   O     O_R   0.760040 0.372380 0.475000 -0.641759
O23   O     O_R   0.760040 0.627620 0.475000 -0.637500
O24   O     O_R   0.239960 0.372380 0.525000 -0.638512
O25   O     O_R   0.680700 0.294870 0.629350 -0.625144
O26   O     O_R   0.319300 0.705130 0.370650 -0.629902
O27   O     O_R   0.319300 0.294870 0.370650 -0.624387
O28   O     O_R   0.680700 0.705130 0.629350 -0.628571
O29   O     O_R   0.180700 0.794870 0.629350 -0.625134
O30   O     O_R   0.819300 0.205130 0.370650 -0.629904
O31   O     O_R   0.819300 0.794870 0.370650 -0.624386
O32   O     O_R   0.180700 0.205130 0.629350 -0.628587
O33   O     O_R   0.062020 0.072840 0.007170 -0.628442
O34   O     O_R   0.937980 0.927160 0.992830 -0.630489
O35   O     O_R   0.937980 0.072840 0.992830 -0.628665
O36   O     O_R   0.062020 0.927160 0.007170 -0.629830
O37   O     O_R   0.562020 0.572840 0.007170 -0.628441
O38   O     O_R   0.437980 0.427160 0.992830 -0.630498
O39   O     O_R   0.437980 0.572840 0.992830 -0.628663
O40   O     O_R   0.562020 0.427160 0.007170 -0.629827
O41   O     O_R   0.947860 0.073950 0.109290 -0.621585
O42   O     O_R   0.052140 0.926050 0.890710 -0.623783
O43   O     O_R   0.052140 0.073950 0.890710 -0.622160
O44   O     O_R   0.947860 0.926050 0.109290 -0.622869
O45   O     O_R   0.447860 0.573950 0.109290 -0.621583
O46   O     O_R   0.552140 0.426050 0.890710 -0.623792
O47   O     O_R   0.552140 0.573950 0.890710 -0.622158
O48   O     O_R   0.447860 0.426050 0.109290 -0.622862
Zn1   Zn    Zn3+2 0.792340 0.208750 0.507670 0.974784
Zn2   Zn    Zn3+2 0.207660 0.791250 0.492330 0.974905
Zn3   Zn    Zn3+2 0.207660 0.208750 0.492330 0.981749
Zn4   Zn    Zn3+2 0.792340 0.791250 0.507670 0.976506
Zn5   Zn    Zn3+2 0.292340 0.708750 0.507670 0.974778
Zn6   Zn    Zn3+2 0.707660 0.291250 0.492330 0.974903
Zn7   Zn    Zn3+2 0.707660 0.708750 0.492330 0.981746
Zn8   Zn    Zn3+2 0.292340 0.291250 0.507670 0.976510
Zn9   Zn    Zn3+2 0.505960 0.500000 0.080520 0.930953
Zn10  Zn    Zn3+2 0.494040 0.500000 0.919480 0.929925
Zn11  Zn    Zn3+2 0.005960 0.000000 0.080520 0.930944
Zn12  Zn    Zn3+2 0.994040 0.000000 0.919480 0.929930
O49   O     O_3   0.116993 0.318754 0.454144 -0.594726
C157  C     C_3   0.139185 0.344374 0.364752 0.134694
H45   H     H_    0.178903 0.317336 0.323449 0.160093
H46   H     H_    0.147856 0.403619 0.357858 0.075395
C158  C     C_3   0.102082 0.325765 0.325464 -0.398898
H47   H     H_    0.062362 0.353235 0.364422 0.227289
H48   H     H_    0.120589 0.346527 0.255724 0.165503
C159  C     C_3   0.093243 0.244250 0.324731 -0.808759
H49   H     H_    0.132326 0.216481 0.281045 0.238617
H50   H     H_    0.064879 0.233241 0.298585 0.228706
H51   H     H_    0.075265 0.221827 0.393653 0.279077
O50   O     O_3   0.924968 0.687615 0.385351 -0.631351
C160  C     C_3   0.946095 0.664820 0.295095 0.080880
H52   H     H_    0.912501 0.643701 0.285285 0.142567
H53   H     H_    0.977878 0.622041 0.275149 0.118375
C161  C     C_3   0.971869 0.730005 0.233884 -0.323579
H54   H     H_    0.942430 0.775365 0.256683 0.234179
H55   H     H_    0.007812 0.747855 0.239004 0.210515
C162  C     C_3   0.989322 0.712308 0.135942 -0.942327
H56   H     H_    0.019515 0.667698 0.111331 0.268032
H57   H     H_    0.008082 0.760841 0.093786 0.269118
H58   H     H_    0.953687 0.696205 0.128974 0.267091
O51   O     O_3   0.838692 0.343451 0.616580 -0.630694
C163  C     C_3   0.801320 0.388477 0.687617 0.078543
H59   H     H_    0.766806 0.354330 0.732708 0.182589
H60   H     H_    0.784116 0.431424 0.663366 0.129027
C164  C     C_3   0.825378 0.421722 0.743403 -0.404221
H61   H     H_    0.846251 0.379134 0.760957 0.227473
H62   H     H_    0.855580 0.463881 0.703554 0.220087
C165  C     C_3   0.781412 0.456831 0.829411 -0.931919
H63   H     H_    0.760772 0.500508 0.812924 0.267147
H64   H     H_    0.800000 0.480710 0.867801 0.264531
H65   H     H_    0.750984 0.415968 0.872263 0.270445
O52   O     O_3   0.076511 0.692999 0.614153 -0.628676
C166  C     C_3   0.057131 0.674369 0.705269 0.093094
H66   H     H_    0.092260 0.661476 0.715152 0.142813
H67   H     H_    0.028909 0.627050 0.727693 0.117546
C167  C     C_3   0.026365 0.739068 0.764273 -0.328020
H68   H     H_    0.052664 0.787700 0.741537 0.231209
H69   H     H_    0.990178 0.750121 0.756714 0.211104
C168  C     C_3   0.008142 0.725278 0.863239 -0.945356
H70   H     H_    0.979993 0.678461 0.888075 0.268983
H71   H     H_    0.986740 0.773790 0.903630 0.269608
H72   H     H_    0.043658 0.714130 0.872573 0.269483
O53   O     O_3   0.616945 0.818720 0.454229 -0.594758
C169  C     C_3   0.639231 0.844354 0.364826 0.134794
H73   H     H_    0.678874 0.817128 0.323557 0.160168
H74   H     H_    0.648077 0.903550 0.357933 0.075436
C170  C     C_3   0.602106 0.826065 0.325482 -0.399033
H75   H     H_    0.562462 0.853728 0.364397 0.227235
H76   H     H_    0.620700 0.846832 0.255734 0.165556
C171  C     C_3   0.593034 0.744611 0.324745 -0.808790
H77   H     H_    0.574948 0.722179 0.393674 0.279114
H78   H     H_    0.632046 0.716660 0.281125 0.238576
H79   H     H_    0.564680 0.733841 0.298522 0.228757
O54   O     O_3   0.424969 0.187612 0.385333 -0.631362
C172  C     C_3   0.446064 0.164812 0.295085 0.080937
H80   H     H_    0.412445 0.143753 0.285302 0.142562
H81   H     H_    0.477814 0.121985 0.275131 0.118360
C173  C     C_3   0.471880 0.229975 0.233853 -0.323608
H82   H     H_    0.442475 0.275375 0.256649 0.234159
H83   H     H_    0.507842 0.247764 0.238951 0.210527
C174  C     C_3   0.489306 0.212278 0.135921 -0.942317
H84   H     H_    0.519464 0.167627 0.111311 0.268016
H85   H     H_    0.508097 0.260793 0.093749 0.269119
H86   H     H_    0.453652 0.196234 0.128975 0.267094
O55   O     O_3   0.338665 0.843473 0.616611 -0.630707
C175  C     C_3   0.301296 0.888508 0.687639 0.078513
H87   H     H_    0.266774 0.854372 0.732726 0.182596
H88   H     H_    0.284105 0.931464 0.663377 0.129036
C176  C     C_3   0.325351 0.921743 0.743434 -0.404204
H89   H     H_    0.346213 0.879147 0.761001 0.227468
H90   H     H_    0.355563 0.963893 0.703589 0.220076
C177  C     C_3   0.281386 0.956863 0.829434 -0.931909
H91   H     H_    0.260763 0.000554 0.812934 0.267144
H92   H     H_    0.299972 0.980725 0.867836 0.264529
H93   H     H_    0.250946 0.916010 0.872278 0.270446
O56   O     O_3   0.576512 0.193001 0.614134 -0.628664
C178  C     C_3   0.557086 0.174377 0.705263 0.093040
H94   H     H_    0.592187 0.161392 0.715186 0.142816
H95   H     H_    0.528807 0.127119 0.727683 0.117558
C179  C     C_3   0.526383 0.239124 0.764228 -0.327967
H96   H     H_    0.552731 0.287708 0.741469 0.231244
H97   H     H_    0.490211 0.250252 0.756655 0.211073
C180  C     C_3   0.508140 0.225347 0.863205 -0.945393
H98   H     H_    0.479944 0.178579 0.888062 0.269006
H99   H     H_    0.486784 0.273892 0.903567 0.269611
H100  H     H_    0.543641 0.214128 0.872553 0.269479
N1    N     N_3   0.631413 0.220580 0.097256 -0.471458
H101  H     H_    0.614874 0.254495 0.153662 0.174060
H102  H     H_    0.624257 0.167107 0.119922 0.186286
N2    N     N_3   0.359106 0.763761 0.909113 -0.470862
H103  H     H_    0.365162 0.817481 0.887327 0.190062
H104  H     H_    0.376323 0.730472 0.852130 0.177056
N3    N     N_3   0.365624 0.211222 0.911891 -0.471071
H105  H     H_    0.385174 0.239895 0.851558 0.177659
H106  H     H_    0.369818 0.156039 0.896150 0.187049
N4    N     N_3   0.641728 0.780352 0.079631 -0.469397
H107  H     H_    0.638323 0.835321 0.096253 0.184062
H108  H     H_    0.620946 0.750838 0.138945 0.186974
N5    N     N_3   0.131413 0.720585 0.097258 -0.471469
H109  H     H_    0.114874 0.754501 0.153663 0.174079
H110  H     H_    0.124256 0.667112 0.119925 0.186273
N6    N     N_3   0.859106 0.263765 0.909116 -0.470861
H111  H     H_    0.865160 0.317485 0.887332 0.190068
H112  H     H_    0.876324 0.230478 0.852131 0.177061
N7    N     N_3   0.865630 0.711231 0.911876 -0.471050
H113  H     H_    0.885176 0.739911 0.851548 0.177637
H114  H     H_    0.869828 0.656049 0.896125 0.187065
N8    N     N_3   0.141725 0.280363 0.079624 -0.469422
H115  H     H_    0.138323 0.335340 0.096211 0.184003
H116  H     H_    0.120944 0.250872 0.138958 0.187007

loop_
_geom_bond_atom_site_label_1
_geom_bond_atom_site_label_2
_ccdc_geom_bond_type
C165  H65   S    
C34   C42   A    
C16   C113  A    
C110  C118  A    
O33   Zn11  S    
C168  H70   S    
O34   Zn12  S    
C27   C99   S    
C54   C107  S    
C13   C139  A    
C163  H59   S    
C82   H42   S    
C51   H27   S    
C117  C119  A    
C29   C37   A    
C108  O46   A    
C160  C161  S    
C30   C38   A    
C77   H37   S    
C91   O15   A    
C109  C127  A    
C155  H11   S    
O50   C160  S    
C2    O2    A    
C111  C125  A    
C164  H62   S    
O40   Zn9   S    
C125  C135  A    
C38   N5    S    
C143  C151  A    
C32   H16   S    
C126  C136  A    
C19   C141  A    
C92   C147  S    
C82   C98   A    
C130  C134  A    
C73   C81   A    
O22   Zn6   S    
C80   H40   S    
C115  C123  A    
C174  H84   S    
C84   C100  A    
C173  C174  S    
C92   O24   A    
C127  C136  A    
C128  C135  A    
C112  C120  A    
C179  H96   S    
C27   C35   A    
C21   C29   A    
O54   C172  S    
C23   C31   A    
C172  C173  S    
C24   C32   A    
C34   H18   S    
C20   C142  A    
N3    H105  S    
C146  C154  A    
N2    H103  S    
C169  H73   S    
C180  H100  S    
C129  C133  A    
C159  H50   S    
C102  O34   A    
O20   Zn4   S    
C36   C44   A    
C102  O44   A    
C167  H68   S    
O18   Zn2   S    
C90   O14   A    
C2    O26   A    
C168  H72   S    
C57   C104  S    
C48   C96   A    
C59   C102  S    
C163  C164  S    
C16   C138  A    
C52   H28   S    
C179  C180  S    
C85   O9    A    
C157  H46   S    
C35   H19   S    
C24   C96   S    
C149  C155  A    
C177  H93   S    
C21   C93   S    
C78   C94   A    
C23   C95   S    
C14   O50   S    
O43   Zn12  S    
C162  H57   S    
C118  C120  A    
C121  C123  A    
C49   C97   A    
C21   C42   A    
C116  C130  A    
C88   O12   A    
C125  C127  A    
C24   C43   A    
C105  O37   A    
C10   C138  A    
C29   H13   S    
C110  C128  A    
C15   C137  A    
C9    C133  A    
N1    H101  S    
C69   C77   A    
C53   C108  S    
O11   Zn8   S    
C45   C93   A    
C71   C79   A    
N8    H115  S    
C166  H67   S    
C62   C70   A    
C18   O54   S    
C89   O21   A    
O49   C157  S    
C9    C140  A    
C156  H12   S    
C66   C74   A    
C8    C76   S    
C49   C57   A    
N6    H111  S    
C111  C119  A    
C86   O18   A    
C52   C60   A    
C59   C67   A    
C53   C61   A    
C30   H14   S    
C12   C142  A    
O35   Zn12  S    
C55   C63   A    
C56   C64   A    
C35   C43   A    
C62   H30   S    
C45   C53   A    
C22   C94   S    
C50   H26   S    
O17   Zn1   S    
C170  H76   S    
O21   Zn5   S    
C50   C98   A    
C7    O7    A    
C177  H91   S    
C52   C100  A    
C16   O52   S    
C174  H85   S    
C173  H83   S    
O10   Zn5   S    
C25   C38   A    
C158  H48   S    
C46   C94   A    
C27   C40   A    
C162  H56   S    
O14   Zn1   S    
C61   H29   S    
N4    H108  S    
C11   C141  A    
C60   C68   A    
C64   H32   S    
O3    Zn3   S    
C25   C97   S    
N3    H106  S    
C14   C140  A    
C63   H31   S    
C87   C152  S    
C6    O30   A    
C88   C151  S    
C49   H25   S    
C67   C75   A    
C122  C124  A    
N6    H112  S    
C48   H24   S    
O5    Zn5   S    
C115  C129  A    
C103  O35   A    
C22   C30   A    
C153  H9    S    
C87   O11   A    
C175  H87   S    
C157  H45   S    
C68   C76   A    
O1    Zn1   S    
C12   C143  A    
O12   Zn7   S    
C163  H60   S    
C144  C152  A    
C39   N8    S    
C31   H15   S    
C138  C146  A    
O16   Zn3   S    
C66   H34   S    
C44   N3    S    
C40   N7    S    
C5    C73   S    
C176  C177  S    
C6    O6    A    
C104  O36   A    
C178  C179  S    
C113  C121  A    
C161  H54   S    
C12   C136  A    
O51   C163  S    
C83   C99   A    
C25   C33   A    
O41   Zn11  S    
C3    O3    A    
C131  C134  A    
C1    O1    A    
C76   C84   A    
C157  C158  S    
C109  C117  A    
C7    O31   A    
N5    H110  S    
C65   H33   S    
C137  C145  A    
C90   C145  S    
C81   H41   S    
O52   C166  S    
C179  H97   S    
C19   C110  A    
C22   C41   A    
C14   C115  A    
C165  H63   S    
C78   H38   S    
C172  H81   S    
C85   C150  S    
C105  O47   A    
C9    C137  A    
O26   Zn5   S    
C114  C132  A    
C121  H4    S    
N2    H104  S    
C169  H74   S    
C122  H3    S    
C130  C132  A    
C180  H99   S    
O30   Zn1   S    
O45   Zn9   S    
C112  C126  A    
O19   Zn3   S    
C167  H69   S    
C74   C82   A    
C175  C176  S    
C119  H6    S    
C6    C74   S    
C168  H71   S    
C117  H8    S    
C85   O17   A    
C118  H7    S    
C169  C170  S    
C55   C106  S    
C141  C149  A    
C50   C58   A    
C166  H66   S    
C54   C62   A    
C28   C39   A    
C107  O39   A    
O24   Zn8   S    
C1    C69   S    
C23   C44   A    
C88   O20   A    
C167  C168  S    
C3    C71   S    
C176  H89   S    
C79   C95   A    
C11   C135  A    
O9    Zn6   S    
C42   N1    S    
C19   O55   S    
C178  H94   S    
C152  C155  A    
C124  H1    S    
C46   C54   A    
C171  H77   S    
C164  C165  S    
N7    H114  S    
O32   Zn3   S    
C151  C156  A    
C18   C111  A    
O27   Zn8   S    
C36   H20   S    
C101  O33   A    
O15   Zn4   S    
C10   C139  A    
C91   O23   A    
C3    O27   A    
C4    C72   S    
O47   Zn10  S    
C89   O13   A    
C1    O25   A    
C116  C124  A    
C86   O10   A    
C57   C65   A    
N8    H116  S    
C171  H79   S    
C26   C37   A    
C17   C143  A    
C33   C41   A    
C142  C150  A    
C18   C144  A    
O55   C175  S    
C75   C83   A    
C104  O42   A    
C77   C93   A    
C171  H78   S    
C92   O16   A    
C67   H35   S    
C4    O28   A    
C56   C105  S    
C13   C116  A    
C159  H49   S    
C28   C36   A    
C37   N6    S    
C72   C80   A    
O53   C169  S    
C106  O38   A    
C17   O53   S    
C154  H10   S    
C106  O48   A    
C2    C70   S    
C70   C78   A    
C46   H22   S    
O39   Zn10  S    
C15   O51   S    
N7    H113  S    
C140  C148  A    
C79   H39   S    
C170  H75   S    
C84   H44   S    
C139  C147  A    
C90   O22   A    
C177  H92   S    
C4    O4    A    
C68   H36   S    
O28   Zn7   S    
C65   C73   A    
C162  H58   S    
C8    O8    A    
C147  C154  A    
O7    Zn7   S    
C47   H23   S    
C160  H53   S    
C26   C34   A    
C164  H61   S    
O25   Zn6   S    
C161  C162  S    
C87   O19   A    
C80   C96   A    
C33   H17   S    
C11   C144  A    
O29   Zn2   S    
C45   H21   S    
C145  C153  A    
C28   C100  S    
C32   C40   A    
C43   N4    S    
N1    H102  S    
C150  C156  A    
N4    H107  S    
O44   Zn11  S    
O31   Zn4   S    
C91   C148  S    
C58   C66   A    
C166  C167  S    
C51   C99   A    
C89   C146  S    
C108  O40   A    
C175  H88   S    
C86   C149  S    
C132  C133  A    
C7    C75   S    
O48   Zn9   S    
O4    Zn4   S    
O46   Zn10  S    
C20   O56   S    
C159  H51   S    
C160  H52   S    
C15   C114  A    
O13   Zn2   S    
C126  C128  A    
C176  H90   S    
C120  H5    S    
C26   C98   S    
C178  H95   S    
C161  H55   S    
C5    O29   A    
C41   N2    S    
C51   C59   A    
C83   H43   S    
C60   C101  S    
O6    Zn6   S    
C17   C112  A    
C47   C55   A    
C158  H47   S    
C170  C171  S    
C61   C69   A    
C48   C56   A    
O36   Zn11  S    
C113  C131  A    
O42   Zn12  S    
C107  O45   A    
C10   C134  A    
C63   C71   A    
C123  H2    S    
N5    H109  S    
C174  H86   S    
C173  H82   S    
O37   Zn9   S    
C8    O32   A    
C81   C97   A    
C103  O41   A    
C31   C39   A    
O38   Zn10  S    
C165  H64   S    
C64   C72   A    
C172  H80   S    
C101  O43   A    
C158  C159  S    
C5    O5    A    
C20   C109  A    
C114  C122  A    
O23   Zn7   S    
O56   C178  S    
C148  C153  A    
O2    Zn2   S    
C47   C95   A    
C58   C103  S    
O8    Zn8   S    
C180  H98   S    
C13   O49   S    
C129  C131  A    
