data_mof_unit_52601.cif
_audit_creation_date              2013-03-05T15:50:42-0500
_audit_creation_method            fapswitch 2.2
_symmetry_space_group_name_H-M    P1
_symmetry_Int_Tables_number       1
_space_group_crystal_system       triclinic
_cell_length_a                    15.03484
_cell_length_b                    10.882773
_cell_length_c                    9.79317
_cell_angle_alpha                 89.051724
_cell_angle_beta                  90.178101
_cell_angle_gamma                 90.578395
_cell_volume                      1602.0578058

loop_
_atom_site_label
_atom_site_type_symbol
_atom_site_description
_atom_site_fract_x
_atom_site_fract_y
_atom_site_fract_z
_atom_type_partial_charge
O1    O     O_R   0.499990 0.319640 0.618810 -0.547284
O2    O     O_R   0.500000 0.319660 0.381240 -0.531154
C1    C     C_R   0.505685 0.262334 0.500746 0.895634
O3    O     O_R   0.370250 0.499960 0.618800 -0.518107
O4    O     O_R   0.370260 0.499980 0.381230 -0.574345
C2    C     C_R   0.329362 0.498755 0.499586 0.930190
Cu1   Cu    Cu3+1 0.499990 0.499990 0.640660 1.133341
Cu2   Cu    Cu3+1 0.500010 0.500010 0.359340 1.133338
O5    O     O_R   0.500000 0.680340 0.618760 -0.539454
O6    O     O_R   0.500010 0.680360 0.381190 -0.518972
O7    O     O_R   0.629740 0.500020 0.618770 -0.561239
O8    O     O_R   0.629750 0.500040 0.381200 -0.585317
C3    C     C_R   0.490794 0.736518 0.498615 0.955863
C4    C     C_R   0.670474 0.502031 0.499747 0.932647
C5    C     C_R   0.816968 0.607267 0.531421 0.279097
C6    C     C_R   0.767481 0.500600 0.499180 -0.216205
C7    C     C_R   0.809909 0.389237 0.470251 0.342073
C8    C     C_R   0.903370 0.378875 0.487382 -0.041368
C9    C     C_R   0.952600 0.484862 0.524210 -0.024493
C10   C     C_R   0.908719 0.595264 0.558251 -0.094994
C11   C     C_R   0.949617 0.266997 0.469454 0.246792
C12   C     C_R   0.043319 0.265334 0.468746 0.248211
C13   C     C_R   0.093267 0.373988 0.493837 -0.069875
C14   C     C_R   0.046478 0.483086 0.522608 -0.060407
C15   C     C_R   0.093660 0.593418 0.545283 -0.095726
C16   C     C_R   0.051127 0.691437 0.609021 0.376007
C17   C     C_R   0.958515 0.691314 0.618898 0.280599
C18   C     C_R   0.188142 0.378677 0.497084 0.351363
C19   C     C_R   0.232062 0.493788 0.498691 -0.216014
C20   C     C_R   0.182648 0.602648 0.505273 0.289946
C21   C     C_R   0.521989 0.101993 0.753751 0.413411
C22   C     C_R   0.472575 0.059938 0.864991 -0.179055
H1    H     H_    0.481088 0.104335 0.961684 0.256886
C23   C     C_R   0.411559 0.963004 0.851157 0.266141
C24   C     C_R   0.413766 0.893285 0.730656 0.357172
C25   C     C_R   0.465686 0.936355 0.617534 -0.106104
C26   C     C_R   0.502724 0.055557 0.623285 -0.065601
C27   C     C_R   0.510177 0.125734 0.500109 -0.157851
C28   C     C_R   0.501597 0.064584 0.373610 0.293854
C29   C     C_R   0.484698 0.938198 0.370404 0.278924
C30   C     C_R   0.475669 0.871010 0.494816 -0.132071
H2    H     H_    0.366796 0.444963 0.129018 0.191014
C31   C     C_R   0.661914 0.549980 0.134239 0.291256
C32   C     C_R   0.735209 0.498358 0.070819 -0.238527
H3    H     H_    0.797665 0.487930 0.125066 0.225952
C33   C     C_R   0.734368 0.497728 0.929368 0.300732
C34   C     C_R   0.658801 0.544601 0.863360 0.331475
C35   C     C_R   0.576878 0.524902 0.926701 0.014836
C36   C     C_R   0.577178 0.527827 0.073224 0.094095
N1    N     N_R   0.500860 0.501210 0.147910 -0.208622
C37   C     C_R   0.426519 0.472010 0.074624 0.027305
C38   C     C_R   0.426487 0.468549 0.928523 0.424106
N2    N     N_R   0.500890 0.501290 0.852040 -0.231272
N3    N     N_R   0.779557 0.728889 0.510906 0.192026
O9    O     O_R   0.694237 0.746632 0.512676 -0.307595
O10   O     O_R   0.829019 0.816613 0.458910 -0.187501
Cl1   Cl    Cl    0.616989 0.194046 0.785945 -0.431669
N4    N     N_R   0.347105 0.940114 0.957556 0.213630
O11   O     O_R   0.318085 0.031034 0.028959 -0.198249
O12   O     O_R   0.315024 0.830614 0.982436 -0.184136
Cl2   Cl    Cl    0.337098 0.771072 0.712667 -0.432446
N5    N     N_R   0.467271 0.882360 0.240287 0.181378
O13   O     O_R   0.512234 0.915280 0.132222 -0.271358
O14   O     O_R   0.397677 0.812400 0.224696 -0.219830
N6    N     N_R   0.680354 0.662653 0.203906 0.168423
O15   O     O_R   0.620721 0.747164 0.207389 -0.239164
O16   O     O_R   0.762333 0.694187 0.229804 -0.272249
N7    N     N_R   0.811737 0.463701 0.855264 0.151899
O17   O     O_R   0.890447 0.492332 0.901150 -0.272261
O18   O     O_R   0.804343 0.376580 0.766869 -0.298312
Cl3   Cl    Cl    0.671271 0.695321 0.799656 -0.418832
Cl4   Cl    Cl    0.743371 0.270569 0.398280 -0.453592
N8    N     N_R   0.349310 0.417766 0.864775 0.146561
O19   O     O_R   0.354793 0.312128 0.805382 -0.299091
O20   O     O_R   0.271192 0.460405 0.893793 -0.274698
N9    N     N_R   0.903019 0.151592 0.463768 0.198443
O21   O     O_R   0.858588 0.111820 0.569703 -0.158115
O22   O     O_R   0.911159 0.081413 0.358301 -0.175756
N10   N     N_R   0.085874 0.152198 0.437573 0.195639
O23   O     O_R   0.112616 0.132860 0.313561 -0.190860
O24   O     O_R   0.084782 0.061818 0.526219 -0.168448
Cl5   Cl    Cl    0.255514 0.245434 0.501678 -0.448870
N11   N     N_R   0.215762 0.718206 0.449675 0.188349
O25   O     O_R   0.160439 0.797816 0.397975 -0.196617
O26   O     O_R   0.299603 0.735119 0.425347 -0.318746
Cl6   Cl    Cl    0.114377 0.802631 0.698273 -0.283551
N12   N     N_R   0.916065 0.781743 0.701113 0.192770
O27   O     O_R   0.934923 0.897944 0.684768 -0.152138
O28   O     O_R   0.866666 0.746791 0.803457 -0.218569
N13   N     N_R   0.504979 0.130833 0.246125 0.153240
O29   O     O_R   0.431730 0.170758 0.190897 -0.307896
O30   O     O_R   0.581307 0.161888 0.192865 -0.250013

loop_
_geom_bond_atom_site_label_1
_geom_bond_atom_site_label_2
_geom_bond_distance
_ccdc_geom_bond_type
N12   O27   1.300597 A    
C8    C11   1.421841 A    
N8    O19   1.300429 A    
C24   C25   1.427277 A    
C3    C30   1.483321 S    
Cu1   Cu2   2.755012 S    
C32   H3    1.083464 S    
Cu1   O7    1.963171 S    
C11   N9    1.433737 S    
C16   C17   1.396049 A    
N5    O13   1.300897 A    
N11   O25   1.302395 A    
C18   C19   1.410495 A    
C26   C27   1.421111 A    
N9    O22   1.301477 A    
C12   N10   1.431101 S    
C8    C9    1.415346 A    
O4    C2    1.313575 A    
O7    C4    1.318146 A    
C6    C7    1.408569 A    
N4    O12   1.300609 A    
C5    C6    1.412096 A    
C29   N5    1.442902 S    
C23   C24   1.414132 A    
C20   N11   1.446459 S    
O5    C3    1.324464 A    
N5    O14   1.297912 A    
C33   C34   1.401833 A    
C21   C22   1.389195 A    
C1    C27   1.488913 S    
N7    O17   1.301284 A    
N6    O16   1.301397 A    
C25   C26   1.408458 A    
C13   C14   1.418825 A    
C28   N13   1.432112 S    
C31   N6    1.437199 S    
H2    C37   1.081255 S    
C11   C12   1.409137 A    
N8    O20   1.301141 A    
C25   C30   1.415663 A    
C5    C10   1.410409 A    
O3    Cu1   1.961670 S    
C32   C33   1.385405 A    
N1    C37   1.364083 A    
C35   N2    1.378752 A    
N3    O10   1.302172 A    
C18   Cl5   1.777056 S    
C37   C38   1.431915 A    
C5    N3    1.454012 S    
C14   C15   1.408859 A    
O3    C2    1.317944 A    
C38   N8    1.426716 S    
C28   C29   1.397021 A    
N10   O24   1.301098 A    
C31   C36   1.425501 A    
C16   Cl6   1.771789 S    
N4    O11   1.300730 A    
C21   C26   1.409916 A    
O1    C1    1.326153 A    
C22   C23   1.398992 A    
C31   C32   1.394280 A    
C33   N7    1.428184 S    
C19   C20   1.407201 A    
N13   O30   1.301251 A    
C34   C35   1.393865 A    
Cu2   O8    1.961668 S    
C7    C8    1.420027 A    
C24   Cl2   1.761886 S    
C13   C18   1.427102 A    
N9    O21   1.301338 A    
C17   N12   1.437421 S    
C34   Cl3   1.753683 S    
N7    O18   1.298118 A    
C29   C30   1.416718 A    
N11   O26   1.294337 A    
O8    C4    1.311228 A    
C36   N1    1.388149 A    
N12   O28   1.298900 A    
C4    C6    1.458752 S    
Cu1   N2    2.070363 S    
Cu2   N1    2.070474 S    
C38   N2    1.388402 A    
C15   C20   1.397443 A    
Cu1   O5    1.970857 S    
N3    O9    1.299373 A    
C35   C36   1.435797 A    
O1    Cu1   1.977856 S    
O2    Cu2   1.970859 S    
O6    C3    1.319502 A    
O4    Cu2   1.963171 S    
C10   C17   1.416995 A    
C22   H1    1.076868 S    
C21   Cl1   1.766867 S    
C9    C10   1.421482 A    
C9    C14   1.411907 A    
C15   C16   1.405261 A    
N13   O29   1.300894 A    
C27   C28   1.420831 A    
O2    C1    1.320040 A    
N10   O23   1.301573 A    
C2    C19   1.463356 S    
C7    Cl4   1.779047 S    
Cu2   O6    1.977855 S    
N6    O15   1.291812 A    
C23   N4    1.442103 S    
C12   C13   1.418821 A    
