data_mof_unit_61060.cif
_audit_creation_date              2012-12-10T18:19:09-0500
_audit_creation_method            fapswitch 2.2
_symmetry_space_group_name_H-M    P1
_symmetry_Int_Tables_number       1
_space_group_crystal_system       triclinic
_cell_length_a                    32.268635
_cell_length_b                    32.269552
_cell_length_c                    35.626889
_cell_angle_alpha                 89.925691
_cell_angle_beta                  89.949136
_cell_angle_gamma                 90.007252
_cell_volume                      37098.0337094

loop_
_atom_site_label
_atom_site_type_symbol
_atom_type_description
_atom_site_fract_x
_atom_site_fract_y
_atom_site_fract_z
_atom_type_partial_charge
C1    C     C_R   0.920488 0.499998 0.999935 0.798687
C2    C     C_R   0.489017 0.228211 0.967287 0.173850
C3    C     C_R   0.522515 0.968977 0.633628 0.330778
C4    C     C_R   0.973694 0.527225 0.366413 0.327389
C5    C     C_R   0.474654 0.971782 0.366400 0.329537
C6    C     C_R   0.026445 0.473011 0.366405 0.327126
C7    C     C_R   0.524164 0.028999 0.366258 0.329572
C8    C     C_R   0.470724 0.976106 0.133749 0.329663
C9    C     C_R   0.972267 0.525768 0.133533 0.327066
C10   C     C_R   0.528579 0.024871 0.133647 0.329710
C11   C     C_R   0.027436 0.474016 0.133581 0.327557
C12   C     C_R   0.469005 0.020861 0.866016 0.327501
C13   C     C_R   0.228009 0.506562 0.966258 0.155402
C14   C     C_R   0.978982 0.468922 0.866160 0.328279
C15   C     C_R   0.531043 0.977524 0.866392 0.330799
C16   C     C_R   0.022241 0.531034 0.866274 0.327878
C17   C     C_R   0.000024 0.500162 0.613897 -0.380460
C18   C     C_R   0.500587 0.999961 0.613858 -0.379266
C19   C     C_R   0.000056 0.500090 0.386262 -0.375033
C20   C     C_R   0.499625 0.000214 0.386218 -0.377058
C21   C     C_R   0.499815 0.000300 0.113800 -0.377376
C22   C     C_R   0.999890 0.499916 0.113715 -0.374438
C23   C     C_R   0.500039 0.999426 0.886143 -0.379302
C24   C     C_R   0.487536 0.772076 0.967652 0.155896
C25   C     C_R   0.000419 0.500020 0.886156 -0.380166
C26   C     C_R   0.000228 0.500386 0.692844 -0.245323
C27   C     C_R   0.500894 0.999588 0.692794 -0.245333
C28   C     C_R   0.000006 0.500097 0.307308 -0.241870
C29   C     C_R   0.499335 0.000441 0.307279 -0.244177
C30   C     C_R   0.499555 0.000563 0.192747 -0.244047
C31   C     C_R   0.999854 0.499941 0.192659 -0.241983
C32   C     C_R   0.500435 0.999155 0.807208 -0.245265
C33   C     C_R   0.000582 0.500245 0.807233 -0.245754
C34   C     C_1   0.000382 0.500431 0.733178 0.127511
C35   C     C_R   0.772041 0.504025 0.034123 0.155315
C36   C     C_1   0.500853 0.999317 0.733137 0.126702
C37   C     C_1   0.999941 0.500053 0.266875 0.120359
C38   C     C_1   0.499382 0.000473 0.266891 0.123578
C39   C     C_1   0.499478 0.000539 0.233135 0.123619
C40   C     C_1   0.999893 0.500003 0.233092 0.120311
C41   C     C_1   0.500714 0.999191 0.766865 0.126614
C42   C     C_1   0.000505 0.500402 0.766900 0.127138
C43   C     C_R   0.728175 0.505853 0.034062 0.151620
C44   C     C_R   0.507333 0.271715 0.034126 0.188751
C45   C     C_R   0.271832 0.493463 0.033951 0.153911
C46   C     C_R   0.514414 0.771869 0.031872 0.155256
C47   C     C_R   0.515780 0.728014 0.031347 0.151865
C48   C     C_R   0.728010 0.497992 0.965761 0.150478
C49   C     C_R   0.487998 0.728179 0.967430 0.152917
C50   C     C_R   0.271898 0.506425 0.966218 0.153348
C51   C     C_R   0.489887 0.272085 0.967255 0.147804
C52   C     C_R   0.227916 0.007134 0.533384 0.148015
C53   C     C_R   0.005471 0.771912 0.533952 0.151639
C54   C     C_R   0.771834 0.015105 0.531533 0.150450
C55   C     C_R   0.990179 0.228051 0.533483 0.189758
C56   C     C_R   0.228286 0.995536 0.465476 0.188696
C57   C     C_R   0.227937 0.493510 0.033965 0.158183
C58   C     C_R   0.005368 0.228177 0.466124 0.148461
C59   C     C_R   0.771986 0.983989 0.468920 0.150990
C60   C     C_R   0.993986 0.771867 0.466046 0.150787
C61   C     C_R   0.706412 0.502239 0.999931 -0.006663
C62   C     C_R   0.498831 0.293608 0.000686 -0.022424
C63   C     C_R   0.293533 0.499977 0.000081 -0.019960
C64   C     C_R   0.501968 0.706421 0.999354 -0.014186
C65   C     C_R   0.206393 0.001150 0.499408 -0.022720
C66   C     C_R   0.999543 0.793568 0.499986 -0.014029
C67   C     C_R   0.793595 0.999612 0.500222 -0.005302
C68   C     C_R   0.507745 0.227912 0.033842 0.144422
C69   C     C_R   0.998074 0.206402 0.499833 -0.022940
C70   C     C_3   0.903145 0.489260 0.697540 -0.230533
C71   C     C_3   0.486748 0.096174 0.697673 -0.229603
C72   C     C_3   0.097342 0.511493 0.696875 -0.232008
C73   C     C_3   0.515926 0.902898 0.696656 -0.229224
C74   C     C_3   0.908132 0.533174 0.302729 -0.223721
C75   C     C_3   0.474183 0.905946 0.302943 -0.222934
C76   C     C_3   0.091898 0.467146 0.302510 -0.224322
C77   C     C_3   0.523712 0.095001 0.302677 -0.223790
C78   C     C_3   0.404684 0.977378 0.197255 -0.223895
C79   C     C_R   0.272091 0.995014 0.465759 0.144173
C80   C     C_3   0.965085 0.591189 0.197202 -0.223768
C81   C     C_3   0.594375 0.024428 0.197171 -0.222691
C82   C     C_3   0.034472 0.408667 0.197493 -0.224047
C83   C     C_3   0.403853 0.013330 0.802266 -0.229813
C84   C     C_3   0.986557 0.403592 0.802624 -0.230979
C85   C     C_3   0.597129 0.984173 0.803393 -0.228864
C86   C     C_3   0.015441 0.596936 0.803100 -0.229582
C87   C     C_3   0.948718 0.417614 0.610121 -0.235339
C88   C     C_3   0.416929 0.049298 0.609662 -0.224938
C89   C     C_3   0.051335 0.582597 0.609117 -0.225471
C90   C     C_R   0.995280 0.727993 0.465940 0.157438
C91   C     C_3   0.585262 0.952872 0.609094 -0.238229
C92   C     C_3   0.968730 0.591821 0.390878 -0.229517
C93   C     C_3   0.410652 0.961919 0.391075 -0.237709
C94   C     C_3   0.031686 0.408384 0.390888 -0.228810
C95   C     C_3   0.588070 0.040378 0.390425 -0.243623
C96   C     C_3   0.458616 0.912330 0.109620 -0.242696
C97   C     C_3   0.907613 0.529555 0.108985 -0.230199
C98   C     C_3   0.539385 0.088762 0.109055 -0.236935
C99   C     C_3   0.092150 0.469910 0.109118 -0.232827
C100  C     C_3   0.450750 0.083050 0.890434 -0.221633
C101  C     C_R   0.728110 0.984830 0.468538 0.154179
C102  C     C_3   0.916662 0.450742 0.890448 -0.227568
C103  C     C_3   0.547286 0.914777 0.890883 -0.238062
C104  C     C_3   0.084761 0.547121 0.891208 -0.218798
C105  C     C_3   0.808111 0.469434 0.084691 -0.718418
C106  C     C_3   0.483495 0.190633 0.088573 -0.693087
C107  C     C_3   0.193486 0.525732 0.086638 -0.691057
C108  C     C_3   0.495267 0.807197 0.089061 -0.717683
C109  C     C_3   0.806609 0.450058 0.922680 -0.716437
C110  C     C_3   0.507833 0.807026 0.910478 -0.688613
C111  C     C_3   0.188410 0.476419 0.914600 -0.678792
C112  C     C_R   0.499998 0.079504 0.999892 0.797478
C113  C     C_R   0.004586 0.272065 0.465987 0.175810
C114  C     C_3   0.437008 0.193002 0.930570 -0.709574
C115  C     C_3   0.306977 0.056631 0.573776 -0.710773
C116  C     C_3   0.054890 0.694324 0.575217 -0.686727
C117  C     C_3   0.691508 0.997536 0.589166 -0.715941
C118  C     C_3   0.942765 0.308283 0.573895 -0.690975
C119  C     C_3   0.309515 0.023464 0.412779 -0.691642
C120  C     C_3   0.974415 0.308473 0.413399 -0.715826
C121  C     C_3   0.692499 0.001393 0.410826 -0.716959
C122  C     C_3   0.027619 0.691810 0.414282 -0.719584
C123  C     C_3   0.692297 0.551716 0.076686 -0.689103
C124  C     C_R   0.271789 0.008005 0.533427 0.173647
C125  C     C_3   0.483355 0.311962 0.087467 -0.656910
C126  C     C_3   0.312240 0.523610 0.085129 -0.657884
C127  C     C_3   0.572388 0.691867 0.061322 -0.693762
C128  C     C_3   0.692091 0.533335 0.915571 -0.689302
C129  C     C_3   0.506885 0.687688 0.912026 -0.660917
C130  C     C_3   0.306724 0.474075 0.913800 -0.656339
C131  C     C_3   0.516861 0.308068 0.912919 -0.682062
C132  C     C_3   0.191929 0.975460 0.585596 -0.684713
C133  C     C_3   0.051606 0.812786 0.573824 -0.661693
C134  C     C_3   0.807763 0.072851 0.559849 -0.691074
C135  C     C_R   0.990688 0.271847 0.533533 0.142718
C136  C     C_3   0.943757 0.187192 0.572530 -0.660995
C137  C     C_3   0.188075 0.024173 0.414008 -0.658879
C138  C     C_3   0.054859 0.192544 0.426725 -0.685732
C139  C     C_3   0.808097 0.926116 0.440975 -0.690276
C140  C     C_3   0.946279 0.807760 0.425084 -0.687216
C141  C     C_R   0.727947 0.014274 0.531807 0.154450
C142  C     C_R   0.006002 0.728022 0.533945 0.156433
C143  C     C_R   0.793632 0.499487 0.999955 -0.000246
C144  C     C_R   0.498702 0.206312 0.000389 -0.025425
C145  C     C_R   0.206327 0.500004 0.000110 -0.015146
C146  C     C_R   0.500586 0.793632 0.999925 -0.008945
C147  C     C_R   0.293688 0.001202 0.499750 -0.025675
C148  C     C_R   0.079503 0.500001 0.000016 0.795913
C149  C     C_R   0.000853 0.706344 0.499949 -0.006296
C150  C     C_R   0.706348 0.999635 0.500112 -0.003343
C151  C     C_R   0.998124 0.293697 0.499829 -0.025116
C152  C     C_1   0.661486 0.501290 0.000057 0.076360
C153  C     C_1   0.499547 0.338527 0.000448 0.069694
C154  C     C_1   0.338483 0.499992 0.000065 0.081318
C155  C     C_1   0.501032 0.661491 0.999667 0.082532
C156  C     C_1   0.161473 0.000454 0.499586 0.069464
C157  C     C_1   0.999604 0.838506 0.499960 0.082842
C158  C     C_1   0.838521 0.999763 0.500177 0.076916
C159  C     C_R   0.500005 0.920489 0.000033 0.795935
C160  C     C_1   0.999041 0.161482 0.499870 0.070710
C161  C     C_1   0.838557 0.499849 0.999812 0.073428
C162  C     C_1   0.499555 0.161411 0.999941 0.031317
C163  C     C_1   0.161409 0.499996 0.000101 0.079681
C164  C     C_1   0.500261 0.838561 0.000043 0.076208
C165  C     C_1   0.338590 0.000371 0.500144 0.031535
C166  C     C_1   0.000277 0.661426 0.500101 0.072956
C167  C     C_1   0.661426 0.999815 0.500000 0.076508
C168  C     C_1   0.999306 0.338596 0.499909 0.029744
C169  C     C_1   0.875965 0.499981 0.999836 -0.186816
C170  C     C_R   0.420496 0.999998 0.500114 0.797749
C171  C     C_1   0.499926 0.124012 0.999833 -0.193114
C172  C     C_1   0.124010 0.499999 0.000065 -0.186656
C173  C     C_1   0.500069 0.875968 0.000058 -0.181899
C174  C     C_1   0.375990 0.000044 0.500210 -0.192986
C175  C     C_1   0.000048 0.624023 0.500109 -0.186046
C176  C     C_1   0.624022 0.999946 0.499968 -0.182237
C177  C     C_1   0.999857 0.375992 0.499953 -0.193599
C178  C     C_1   0.624077 0.500631 0.000024 -0.172852
C179  C     C_1   0.499883 0.375937 0.000184 -0.174765
C180  C     C_1   0.375904 0.500000 0.000047 -0.174743
C181  C     C_R   0.000004 0.579508 0.500049 0.797624
C182  C     C_1   0.500464 0.624080 0.999865 -0.175720
C183  C     C_1   0.124062 0.000119 0.499831 -0.175675
C184  C     C_1   0.999753 0.875920 0.500007 -0.175245
C185  C     C_1   0.875932 0.999879 0.500092 -0.173187
C186  C     C_1   0.999617 0.124070 0.499910 -0.174919
C187  C     C_R   0.500050 0.420464 0.000035 0.818195
C188  C     C_R   0.420453 0.500001 0.000015 0.815660
C189  C     C_R   0.500039 0.579542 0.999971 0.812832
C190  C     C_R   0.579541 0.500085 0.999996 0.814215
C191  C     C_R   0.999938 0.920459 0.500013 0.812354
C192  C     C_R   0.579507 0.999995 0.499974 0.796318
C193  C     C_R   0.920463 0.999983 0.500021 0.813016
C194  C     C_R   0.000006 0.079539 0.499975 0.813825
C195  C     C_R   0.079536 0.999951 0.499970 0.815109
C196  C     C_R   0.000132 0.500014 0.927582 0.903500
C197  C     C_R   0.500010 0.999792 0.927577 0.905068
C198  C     C_R   0.999967 0.499974 0.072372 0.921030
C199  C     C_R   0.499965 0.000095 0.072403 0.911662
C200  C     C_R   0.499882 0.000044 0.427604 0.912593
C201  C     C_R   0.000017 0.500030 0.427620 0.919793
C202  C     C_R   0.500204 0.999986 0.572423 0.905124
C203  C     C_R   0.999988 0.420497 0.499997 0.799844
C204  C     C_R   0.999992 0.500018 0.572438 0.901734
C205  C     C_R   0.967594 0.481262 0.673436 0.359913
C206  C     C_R   0.480732 0.031645 0.673386 0.361140
C207  C     C_R   0.032757 0.519399 0.673123 0.360821
C208  C     C_R   0.521148 0.967871 0.673057 0.359471
C209  C     C_R   0.972603 0.526079 0.326947 0.358911
C210  C     C_R   0.475848 0.970860 0.326941 0.358356
C211  C     C_R   0.027471 0.474152 0.326932 0.358920
C212  C     C_R   0.522758 0.030061 0.326823 0.358539
C213  C     C_R   0.469655 0.977522 0.173183 0.358425
C214  C     C_R   0.771853 0.496083 0.965817 0.154381
C215  C     C_R   0.973375 0.526867 0.173000 0.359186
C216  C     C_R   0.529461 0.023651 0.173107 0.358104
C217  C     C_R   0.026305 0.472958 0.173053 0.358914
C218  C     C_R   0.468377 0.019318 0.826597 0.361437
C219  C     C_R   0.980497 0.468197 0.826743 0.361036
C220  C     C_R   0.532155 0.978904 0.826964 0.359295
C221  C     C_R   0.020806 0.532051 0.826855 0.360711
C222  C     C_R   0.968320 0.479627 0.634015 0.330658
C223  C     C_R   0.479169 0.031005 0.633968 0.328003
C224  C     C_R   0.031832 0.520807 0.633704 0.328319
Cu1   Cu    Cu3+1 0.000000 0.540940 0.000000 0.997406
Cu2   Cu    Cu3+1 0.500000 0.500000 0.037330 0.963597
Cu3   Cu    Cu3+1 0.000000 0.000000 0.462670 0.967421
Cu4   Cu    Cu3+1 0.000000 1.000000 0.537330 0.964563
Cu5   Cu    Cu3+1 0.540940 0.000000 0.000000 0.999181
Cu6   Cu    Cu3+1 0.000000 0.459060 0.000000 0.993180
Cu7   Cu    Cu3+1 0.459060 0.000000 0.000000 0.995613
Cu8   Cu    Cu3+1 0.500000 0.040940 0.500000 0.995900
Cu9   Cu    Cu3+1 0.040940 0.500000 0.500000 0.993810
Cu10  Cu    Cu3+1 0.500000 0.959060 0.500000 0.999217
Cu11  Cu    Cu3+1 0.959060 0.500000 0.500000 0.995566
Cu12  Cu    Cu3+1 0.500000 0.500000 0.962670 0.960616
H1    H     H_    0.889950 0.498683 0.669964 0.176480
H2    H     H_    0.507043 0.889579 0.669005 0.176298
H3    H     H_    0.827414 0.451607 0.064571 0.241693
H4    H     H_    0.540702 0.183433 0.063056 0.249869
H5    H     H_    0.494609 0.177984 0.115750 0.218558
H6    H     H_    0.467377 0.165539 0.073055 0.221088
H7    H     H_    0.461193 0.215939 0.094460 0.237799
H8    H     H_    0.216333 0.465460 0.085815 0.246992
H9    H     H_    0.221545 0.542784 0.095899 0.234552
H10   H     H_    0.174322 0.518372 0.111662 0.211119
H11   H     H_    0.174970 0.545807 0.067657 0.235448
H12   H     H_    0.553082 0.781758 0.077788 0.259673
H13   H     H_    0.487736 0.911102 0.713089 0.133872
H14   H     H_    0.480233 0.779682 0.101978 0.222161
H15   H     H_    0.471575 0.825559 0.073766 0.233467
H16   H     H_    0.508363 0.826844 0.111696 0.222093
H17   H     H_    0.781707 0.507459 0.908970 0.259273
H18   H     H_    0.778874 0.429992 0.919385 0.224043
H19   H     H_    0.826741 0.437217 0.945125 0.239710
H20   H     H_    0.824249 0.449885 0.895928 0.218126
H21   H     H_    0.448988 0.783729 0.921730 0.247504
H22   H     H_    0.522149 0.779179 0.897596 0.232611
H23   H     H_    0.531923 0.824753 0.925874 0.227292
H24   H     H_    0.532718 0.878515 0.712488 0.183564
H25   H     H_    0.495345 0.827105 0.887826 0.215069
H26   H     H_    0.215781 0.535506 0.914264 0.244851
H27   H     H_    0.205493 0.469966 0.888179 0.214113
H28   H     H_    0.155355 0.481907 0.907699 0.218683
H29   H     H_    0.190410 0.448689 0.933097 0.231486
H30   H     H_    0.491186 0.218856 0.909505 0.257211
H31   H     H_    0.416208 0.220437 0.930392 0.221203
H32   H     H_    0.428337 0.172293 0.954227 0.244360
H33   H     H_    0.432655 0.175806 0.903909 0.216949
H34   H     H_    0.281162 0.000762 0.590876 0.257343
H35   H     H_    0.893006 0.526656 0.330200 0.174554
H36   H     H_    0.279524 0.077313 0.575561 0.221966
H37   H     H_    0.327569 0.067415 0.550759 0.243195
H38   H     H_    0.324294 0.058596 0.600611 0.216842
H39   H     H_    0.996874 0.716361 0.591029 0.246623
H40   H     H_    0.074015 0.722668 0.578603 0.234402
H41   H     H_    0.067618 0.675317 0.551932 0.233339
H42   H     H_    0.056655 0.675931 0.601510 0.211151
H43   H     H_    0.718081 0.054545 0.576618 0.259825
H44   H     H_    0.718593 0.982412 0.602680 0.221811
H45   H     H_    0.672829 0.973718 0.574379 0.233068
H46   H     H_    0.911205 0.504110 0.286148 0.143221
H47   H     H_    0.671843 0.011687 0.611294 0.222997
H48   H     H_    0.006398 0.316342 0.572742 0.251112
H49   H     H_    0.939939 0.320658 0.602840 0.218739
H50   H     H_    0.920119 0.282723 0.570562 0.238284
H51   H     H_    0.935155 0.333390 0.553691 0.221969
H52   H     H_    0.316506 0.964358 0.434519 0.248851
H53   H     H_    0.322463 0.014456 0.385085 0.218488
H54   H     H_    0.334426 0.038401 0.429465 0.222115
H55   H     H_    0.284212 0.046111 0.408073 0.237584
H56   H     H_    0.032979 0.281781 0.414146 0.257839
H57   H     H_    0.887519 0.554340 0.286809 0.184889
H58   H     H_    0.955718 0.281394 0.404268 0.222489
H59   H     H_    0.982839 0.327037 0.388277 0.216911
H60   H     H_    0.955466 0.328231 0.432277 0.243759
H61   H     H_    0.718332 0.944245 0.423989 0.259906
H62   H     H_    0.719880 0.015937 0.397236 0.222089
H63   H     H_    0.674190 0.025676 0.425377 0.232987
H64   H     H_    0.672718 0.987297 0.388786 0.222564
H65   H     H_    0.968903 0.718185 0.413318 0.259440
H66   H     H_    0.046401 0.718997 0.405474 0.224012
H67   H     H_    0.020201 0.673038 0.389078 0.218344
H68   H     H_    0.481750 0.891492 0.330481 0.174881
H69   H     H_    0.046077 0.672303 0.433777 0.241350
H70   H     H_    0.718462 0.495059 0.091079 0.260156
H71   H     H_    0.719586 0.572098 0.081210 0.214269
H72   H     H_    0.673138 0.551569 0.102587 0.229145
H73   H     H_    0.673220 0.564422 0.053432 0.236238
H74   H     H_    0.538320 0.278769 0.085021 0.279775
H75   H     H_    0.463136 0.287345 0.099169 0.216589
H76   H     H_    0.464670 0.332207 0.068835 0.231898
H77   H     H_    0.495182 0.331138 0.110988 0.224384
H78   H     H_    0.283693 0.465105 0.086309 0.246509
H79   H     H_    0.503001 0.911348 0.286434 0.137103
H80   H     H_    0.295601 0.530643 0.111663 0.210286
H81   H     H_    0.310429 0.551181 0.066422 0.225670
H82   H     H_    0.345307 0.517622 0.091711 0.236409
H83   H     H_    0.522050 0.718043 0.088876 0.259452
H84   H     H_    0.593449 0.719104 0.060913 0.214802
H85   H     H_    0.577784 0.672920 0.035778 0.235565
H86   H     H_    0.579773 0.672548 0.086244 0.228537
H87   H     H_    0.717909 0.474493 0.912061 0.259909
H88   H     H_    0.719439 0.552089 0.907129 0.213572
H89   H     H_    0.673218 0.551168 0.936025 0.237263
H90   H     H_    0.454873 0.883608 0.287042 0.184989
H91   H     H_    0.672770 0.527394 0.890375 0.228779
H92   H     H_    0.449290 0.716437 0.920836 0.246795
H93   H     H_    0.508582 0.704478 0.884841 0.210495
H94   H     H_    0.499366 0.654717 0.906418 0.236442
H95   H     H_    0.537787 0.689144 0.925783 0.224043
H96   H     H_    0.283216 0.534068 0.914142 0.247064
H97   H     H_    0.278867 0.456937 0.904182 0.224065
H98   H     H_    0.324918 0.454062 0.933090 0.232999
H99   H     H_    0.326351 0.481415 0.889057 0.221604
H100  H     H_    0.458082 0.282235 0.917215 0.258569
H101  H     H_    0.107072 0.473721 0.329909 0.174415
H102  H     H_    0.534047 0.280739 0.902114 0.212016
H103  H     H_    0.537833 0.326889 0.930773 0.241696
H104  H     H_    0.506945 0.327435 0.888763 0.228110
H105  H     H_    0.217767 0.034419 0.585558 0.259199
H106  H     H_    0.219258 0.957371 0.595136 0.211811
H107  H     H_    0.173102 0.956137 0.566281 0.239834
H108  H     H_    0.172565 0.983214 0.610386 0.228632
H109  H     H_    0.996786 0.783690 0.591737 0.247040
H110  H     H_    0.067614 0.796519 0.597158 0.210972
H111  H     H_    0.047911 0.845897 0.581499 0.235404
H112  H     H_    0.912699 0.517088 0.713830 0.133850
H113  H     H_    0.088737 0.496185 0.285845 0.143093
H114  H     H_    0.071348 0.810899 0.548267 0.225032
H115  H     H_    0.781458 0.023506 0.588828 0.259314
H116  H     H_    0.780509 0.093849 0.558732 0.214716
H117  H     H_    0.826846 0.077354 0.534210 0.237716
H118  H     H_    0.826933 0.081168 0.584583 0.227885
H119  H     H_    0.994459 0.220656 0.591490 0.279262
H120  H     H_    0.919805 0.211581 0.575570 0.217096
H121  H     H_    0.943658 0.167762 0.598271 0.224120
H122  H     H_    0.935618 0.167118 0.548383 0.229160
H123  H     H_    0.221209 0.969135 0.412508 0.279695
H124  H     H_    0.112514 0.445997 0.286590 0.184801
H125  H     H_    0.212717 0.045398 0.403924 0.216450
H126  H     H_    0.167738 0.041103 0.433880 0.231285
H127  H     H_    0.169000 0.014496 0.389625 0.224226
H128  H     H_    0.999440 0.218467 0.408599 0.258963
H129  H     H_    0.075431 0.219924 0.423486 0.213393
H130  H     H_    0.056950 0.173380 0.400933 0.228152
H131  H     H_    0.065728 0.173546 0.450791 0.238859
H132  H     H_    0.781879 0.975226 0.411678 0.259484
H133  H     H_    0.780859 0.905091 0.442141 0.214730
H134  H     H_    0.827066 0.921804 0.466680 0.237789
H135  H     H_    0.515963 0.109347 0.330198 0.174625
H136  H     H_    0.827392 0.917667 0.416327 0.228068
H137  H     H_    0.002290 0.781649 0.408720 0.259765
H138  H     H_    0.925739 0.780462 0.421246 0.213997
H139  H     H_    0.945299 0.826957 0.399215 0.228758
H140  H     H_    0.934549 0.826786 0.448772 0.237817
H141  H     H_    0.494968 0.089304 0.286204 0.136956
H142  H     H_    0.542790 0.117563 0.286722 0.185396
H143  H     H_    0.390458 0.985294 0.169713 0.174627
H144  H     H_    0.410722 0.006056 0.213714 0.137023
H145  H     H_    0.381873 0.958587 0.213197 0.185390
H146  H     H_    0.971329 0.606439 0.169732 0.174613
H147  H     H_    0.994196 0.588649 0.213800 0.143123
H148  H     H_    0.878221 0.473526 0.713601 0.183311
H149  H     H_    0.943536 0.611403 0.213106 0.184889
H150  H     H_    0.608745 0.016665 0.169650 0.174885
H151  H     H_    0.588567 0.995687 0.213685 0.137071
H152  H     H_    0.616963 0.043430 0.213087 0.185111
H153  H     H_    0.028176 0.393381 0.170095 0.174497
H154  H     H_    0.005378 0.411299 0.214145 0.143280
H155  H     H_    0.055989 0.388435 0.213427 0.184818
H156  H     H_    0.390241 0.004140 0.829762 0.176425
H157  H     H_    0.412665 0.985327 0.785870 0.134208
H158  H     H_    0.379489 0.029877 0.786216 0.183545
H159  H     H_    0.495924 0.109774 0.670167 0.176437
H160  H     H_    0.995713 0.390081 0.830156 0.176280
H161  H     H_    0.014581 0.412374 0.786180 0.133484
H162  H     H_    0.970050 0.379159 0.786662 0.183911
H163  H     H_    0.610439 0.993062 0.831048 0.176374
H164  H     H_    0.588908 0.012359 0.786948 0.134035
H165  H     H_    0.621526 0.967400 0.787577 0.183803
H166  H     H_    0.006509 0.610309 0.830731 0.176585
H167  H     H_    0.987279 0.588614 0.786718 0.133571
H168  H     H_    0.032184 0.621320 0.787194 0.183235
H169  H     H_    0.953200 0.401523 0.637472 0.173371
H170  H     H_    0.514760 0.087363 0.714072 0.134241
H171  H     H_    0.977264 0.415158 0.592690 0.123742
H172  H     H_    0.923535 0.401352 0.594940 0.177671
H173  H     H_    0.400574 0.044778 0.636879 0.172097
H174  H     H_    0.415279 0.020528 0.592508 0.131976
H175  H     H_    0.400420 0.073980 0.593987 0.178400
H176  H     H_    0.047250 0.599005 0.636332 0.171117
H177  H     H_    0.022544 0.584879 0.592037 0.131680
H178  H     H_    0.076304 0.598648 0.593382 0.177367
H179  H     H_    0.601326 0.957939 0.636342 0.173450
H180  H     H_    0.586035 0.981703 0.591905 0.127120
H181  H     H_    0.470215 0.120547 0.713710 0.183497
H182  H     H_    0.602766 0.928798 0.593539 0.178728
H183  H     H_    0.976290 0.606848 0.363580 0.171307
H184  H     H_    0.997380 0.587561 0.407842 0.125386
H185  H     H_    0.948159 0.613175 0.406624 0.193768
H186  H     H_    0.395088 0.968650 0.363874 0.174092
H187  H     H_    0.412808 0.990622 0.408271 0.121551
H188  H     H_    0.390882 0.939660 0.406681 0.178062
H189  H     H_    0.024291 0.393369 0.363595 0.171106
H190  H     H_    0.002962 0.412471 0.407821 0.126342
H191  H     H_    0.052318 0.387109 0.406673 0.194524
H192  H     H_    0.110386 0.501942 0.669278 0.176446
H193  H     H_    0.603560 0.034084 0.363092 0.175186
H194  H     H_    0.586787 0.011617 0.407683 0.129098
H195  H     H_    0.607368 0.063157 0.405807 0.178779
H196  H     H_    0.464705 0.896782 0.136972 0.174675
H197  H     H_    0.487406 0.913270 0.092393 0.129428
H198  H     H_    0.435629 0.893287 0.094228 0.178713
H199  H     H_    0.892694 0.521702 0.136261 0.171826
H200  H     H_    0.912416 0.501000 0.092022 0.125692
H201  H     H_    0.885903 0.549740 0.093213 0.194044
H202  H     H_    0.532920 0.104369 0.136281 0.173532
H203  H     H_    0.087872 0.483741 0.713390 0.133687
H204  H     H_    0.510631 0.087064 0.091874 0.121275
H205  H     H_    0.561916 0.108232 0.093460 0.179141
H206  H     H_    0.107034 0.477559 0.136414 0.171861
H207  H     H_    0.087568 0.498562 0.092178 0.125957
H208  H     H_    0.113780 0.449653 0.093344 0.193581
H209  H     H_    0.455068 0.099561 0.863265 0.172398
H210  H     H_    0.479639 0.084618 0.907443 0.130838
H211  H     H_    0.426176 0.099438 0.906328 0.178395
H212  H     H_    0.900488 0.455398 0.863185 0.172181
H213  H     H_    0.914965 0.479452 0.907680 0.132112
H214  H     H_    0.122356 0.527293 0.712688 0.183387
H215  H     H_    0.899972 0.426031 0.905969 0.178127
H216  H     H_    0.542316 0.898744 0.863610 0.172509
H217  H     H_    0.518428 0.913894 0.908020 0.128239
H218  H     H_    0.571385 0.897318 0.906463 0.178322
H219  H     H_    0.101018 0.541110 0.864183 0.168795
H220  H     H_    0.085084 0.518816 0.909090 0.118418
H221  H     H_    0.102354 0.571479 0.906288 0.184663
H222  H     H_    0.782072 0.528231 0.087558 0.259400
H223  H     H_    0.780835 0.450506 0.092995 0.224489
H224  H     H_    0.827045 0.475758 0.110048 0.218529
N1    N     N_2   0.794813 0.508215 0.068215 -0.428552
N2    N     N_2   0.012213 0.705234 0.567791 -0.419028
N3    N     N_2   0.705170 0.029340 0.563294 -0.416732
N4    N     N_2   0.984598 0.293594 0.567893 -0.427320
N5    N     N_2   0.294100 0.986957 0.431830 -0.427163
N6    N     N_2   0.011710 0.294786 0.432215 -0.424248
N7    N     N_2   0.705504 0.969684 0.437029 -0.417037
N8    N     N_2   0.989583 0.705287 0.432001 -0.427329
N9    N     N_2   0.705576 0.509916 0.068284 -0.416799
N10   N     N_2   0.517958 0.293894 0.067419 -0.408424
N11   N     N_2   0.294574 0.487078 0.067791 -0.419227
N12   N     N_2   0.518442 0.205911 0.067176 -0.426478
N13   N     N_2   0.529648 0.705247 0.063298 -0.416842
N14   N     N_2   0.705242 0.494289 0.931625 -0.418079
N15   N     N_2   0.474651 0.705502 0.935282 -0.418499
N16   N     N_2   0.294748 0.512104 0.932315 -0.414420
N17   N     N_2   0.480788 0.294929 0.933958 -0.419573
N18   N     N_2   0.205072 0.013270 0.567225 -0.417638
N19   N     N_2   0.011051 0.794698 0.567870 -0.417612
N20   N     N_2   0.794432 0.030179 0.563080 -0.417657
N21   N     N_2   0.984332 0.205630 0.567677 -0.407127
N22   N     N_2   0.206100 0.987894 0.431513 -0.408355
N23   N     N_2   0.205049 0.487749 0.067839 -0.424071
N24   N     N_2   0.012398 0.205586 0.432327 -0.417207
N25   N     N_2   0.794733 0.968748 0.437491 -0.417740
N26   N     N_2   0.988428 0.794522 0.432019 -0.417509
N27   N     N_2   0.528105 0.794465 0.063926 -0.417065
N28   N     N_2   0.794376 0.492044 0.931561 -0.422260
N29   N     N_2   0.474603 0.795062 0.935517 -0.413673
N30   N     N_2   0.205233 0.513039 0.932454 -0.423363
N31   N     N_2   0.479813 0.205812 0.933835 -0.421277
N32   N     N_2   0.294190 0.014250 0.567440 -0.420281
O1    O     O_R   0.940210 0.534560 0.999910 -0.573357
O2    O     O_R   0.034560 0.559790 0.499910 -0.587964
O3    O     O_R   0.559790 0.965440 0.499910 -0.580846
O4    O     O_R   0.965440 0.440210 0.499910 -0.587401
O5    O     O_R   0.440210 0.965440 0.500090 -0.577561
O6    O     O_R   0.034560 0.440210 0.500090 -0.574811
O7    O     O_R   0.559790 0.034560 0.500090 -0.577531
O8    O     O_R   0.965440 0.559790 0.500090 -0.573490
O9    O     O_R   0.000060 0.534560 0.945550 -0.551393
O10   O     O_R   0.534560 0.999940 0.945550 -0.551655
O11   O     O_R   0.999940 0.465440 0.945550 -0.551726
O12   O     O_R   0.534560 0.059790 0.999910 -0.578112
O13   O     O_R   0.465440 0.000060 0.945550 -0.550536
O14   O     O_R   0.000060 0.465440 0.054450 -0.559550
O15   O     O_R   0.534560 0.000060 0.054450 -0.554261
O16   O     O_R   0.999940 0.534560 0.054450 -0.559797
O17   O     O_R   0.465440 0.999940 0.054450 -0.555194
O18   O     O_R   0.500060 0.034560 0.445550 -0.555692
O19   O     O_R   0.034560 0.499940 0.445550 -0.558729
O20   O     O_R   0.499940 0.965440 0.445550 -0.554875
O21   O     O_R   0.965440 0.500060 0.445550 -0.558809
O22   O     O_R   0.500060 0.965440 0.554450 -0.551782
O23   O     O_R   0.059790 0.465440 0.999910 -0.576186
O24   O     O_R   0.034560 0.500060 0.554450 -0.550892
O25   O     O_R   0.499940 0.034560 0.554450 -0.550452
O26   O     O_R   0.965440 0.499940 0.554450 -0.550068
O27   O     O_R   0.500080 0.440090 0.968430 -0.577049
O28   O     O_R   0.440090 0.499920 0.968430 -0.575724
O29   O     O_R   0.499920 0.559910 0.968430 -0.582117
O30   O     O_R   0.559910 0.500080 0.968430 -0.578842
O31   O     O_R   0.500080 0.559910 0.031570 -0.575840
O32   O     O_R   0.440090 0.500080 0.031570 -0.581356
O33   O     O_R   0.499920 0.440090 0.031570 -0.578171
O34   O     O_R   0.465440 0.940210 0.999910 -0.578296
O35   O     O_R   0.559910 0.499920 0.031570 -0.575116
O36   O     O_R   0.000080 0.940090 0.468430 -0.574722
O37   O     O_R   0.940090 0.999920 0.468430 -0.576198
O38   O     O_R   0.999920 0.059910 0.468430 -0.576792
O39   O     O_R   0.059910 0.000080 0.468430 -0.578502
O40   O     O_R   0.000080 0.059910 0.531570 -0.576270
O41   O     O_R   0.940090 0.000080 0.531570 -0.576626
O42   O     O_R   0.999920 0.940090 0.531570 -0.580619
O43   O     O_R   0.059910 0.999920 0.531570 -0.577116
O44   O     O_3   0.936368 0.461345 0.693018 -0.543119
O45   O     O_R   0.940210 0.465440 0.000090 -0.587743
O46   O     O_3   0.459832 0.062172 0.692958 -0.543892
O47   O     O_3   0.064101 0.539396 0.692385 -0.543443
O48   O     O_3   0.542405 0.937320 0.692314 -0.543450
O49   O     O_3   0.946790 0.552778 0.307569 -0.552960
O50   O     O_3   0.451450 0.942882 0.307597 -0.547023
O51   O     O_3   0.053285 0.447479 0.307546 -0.552957
O52   O     O_3   0.546843 0.058310 0.307370 -0.547461
O53   O     O_3   0.441091 0.953794 0.192618 -0.547554
O54   O     O_3   0.946198 0.552177 0.192357 -0.552899
O55   O     O_3   0.557755 0.047662 0.192472 -0.547119
O56   O     O_R   0.534560 0.940210 0.000090 -0.580625
O57   O     O_3   0.053439 0.447629 0.192457 -0.553153
O58   O     O_3   0.437860 0.040235 0.807008 -0.543883
O59   O     O_3   0.959622 0.437591 0.807277 -0.543305
O60   O     O_3   0.562723 0.957671 0.807725 -0.543833
O61   O     O_3   0.041997 0.562595 0.807489 -0.542556
O62   O     O_3   0.936818 0.459255 0.615300 -0.536319
O63   O     O_3   0.458214 0.062140 0.615228 -0.539661
O64   O     O_3   0.063282 0.541022 0.614682 -0.538689
O65   O     O_3   0.544345 0.938712 0.614558 -0.536144
O66   O     O_3   0.947694 0.553980 0.385518 -0.543839
O67   O     O_R   0.059790 0.534560 0.000090 -0.584254
O68   O     O_3   0.449936 0.943767 0.385485 -0.538437
O69   O     O_3   0.052545 0.446336 0.385508 -0.544056
O70   O     O_3   0.548311 0.057522 0.385200 -0.538099
O71   O     O_3   0.441931 0.952287 0.114798 -0.537995
O72   O     O_3   0.945058 0.551279 0.114395 -0.544346
O73   O     O_3   0.556952 0.049204 0.114591 -0.538212
O74   O     O_3   0.054562 0.448396 0.114483 -0.544073
O75   O     O_3   0.437863 0.041803 0.884740 -0.540404
O76   O     O_3   0.957968 0.437873 0.885007 -0.539163
O77   O     O_3   0.561340 0.955740 0.885484 -0.536254
O78   O     O_R   0.465440 0.059790 0.000090 -0.585390
O79   O     O_3   0.044011 0.561443 0.885192 -0.538873
O80   O     O_R   0.440210 0.034560 0.499910 -0.585788

loop_
_geom_bond_atom_site_label_1
_geom_bond_atom_site_label_2
_ccdc_geom_bond_type
Cu9   O2    S    
C134  H117  S    
C57   C145  A    
C94   H191  S    
C204  O24   A    
C125  N10   S    
C198  O14   A    
C34   C42   T    
C106  H7    S    
H34   N32   S    
C7    C212  A    
C155  C182  T    
C29   C210  A    
C131  N17   S    
C4    O66   S    
C190  O30   A    
C5    C210  A    
Cu7   O78   S    
C12   C23   A    
C45   C57   A    
C83   H156  S    
Cu5   O15   S    
C56   C79   A    
Cu1   O16   S    
C87   H172  S    
C139  H133  S    
C102  H213  S    
C82   H155  S    
C69   C160  S    
C127  N13   S    
C127  H86   S    
C119  H55   S    
Cu10  O22   S    
C113  C151  A    
C80   H149  S    
C136  H122  S    
Cu5   O56   S    
C70   H112  S    
C162  C171  T    
C117  N3    S    
C58   C113  A    
C114  N31   S    
C70   H1    S    
C197  O13   A    
C104  H221  S    
C55   N21   S    
C1    O45   A    
C15   O77   S    
C84   H161  S    
C12   C218  A    
C133  N19   S    
C156  C183  T    
H87   N14   S    
C10   C21   A    
C98   H204  S    
C68   N12   S    
C5    O68   S    
C201  O21   A    
C132  H106  S    
C207  O47   S    
C57   N23   S    
Cu6   O23   S    
C138  H129  S    
C47   C64   A    
C99   O74   S    
C28   C209  A    
C128  H88   S    
C108  H14   S    
C136  N21   S    
Cu1   O67   S    
C114  H32   S    
C196  O9    A    
C115  H37   S    
C170  O5    A    
C100  H209  S    
C190  O35   A    
Cu8   Cu10  S    
C121  H62   S    
C166  C175  T    
C184  C191  S    
C164  C173  T    
C203  O6    A    
C48   N14   S    
C126  H80   S    
C18   C223  A    
C8    O71   S    
C84   H160  S    
C118  H51   S    
C11   O74   S    
C125  H77   S    
C95   H194  S    
C94   H189  S    
C83   O58   S    
C105  H223  S    
C106  H5    S    
C114  H33   S    
C197  O10   A    
C78   H144  S    
C43   C61   A    
C29   C212  A    
C170  C174  S    
C16   C25   A    
H92   N15   S    
Cu3   O39   S    
C77   H135  S    
C24   N29   S    
C122  H66   S    
C35   N1    S    
C7    O70   S    
C130  H99   S    
C60   C90   A    
C96   H197  S    
C65   C156  S    
C140  H139  S    
H128  N24   S    
C95   O70   S    
C91   H179  S    
Cu1   Cu6   S    
C92   H184  S    
C116  H42   S    
C120  H58   S    
C222  O62   S    
C30   C213  A    
C52   C124  A    
C189  O29   A    
C133  H111  S    
H96   N16   S    
C99   H208  S    
C109  H19   S    
C208  O48   S    
C6    O69   S    
Cu1   O9    S    
Cu8   O80   S    
C12   O75   S    
C4    C209  A    
C195  O43   A    
H61   N7    S    
C54   C141  A    
C100  O75   S    
C128  H89   S    
C89   H176  S    
C74   O49   S    
C223  O63   S    
C143  C161  S    
C75   H79   S    
C52   C65   A    
C98   H202  S    
C118  N4    S    
C191  O42   A    
C117  H47   S    
C132  H108  S    
Cu10  O20   S    
Cu2   O35   S    
C2    C144  A    
C205  C222  A    
C54   N20   S    
C13   C145  A    
C5    C20   A    
C46   C146  A    
C9    C215  A    
H123  N22   S    
C138  N24   S    
C6    C19   A    
C81   O55   S    
C217  O57   S    
C108  H16   S    
C33   C42   S    
C142  C149  A    
C199  O15   A    
C110  H22   S    
C37   C40   T    
C123  N9    S    
C196  O11   A    
Cu12  O29   S    
C100  H211  S    
C31   C215  A    
C77   O52   S    
C170  O80   A    
C43   N9    S    
C109  H18   S    
C19   C201  S    
C121  H64   S    
C58   N24   S    
C116  H40   S    
C53   C142  A    
C70   H148  S    
C79   N5    S    
C20   C200  S    
C118  H49   S    
C96   H196  S    
C59   C67   A    
H100  N17   S    
C71   O46   S    
C72   H203  S    
C76   H101  S    
C32   C41   S    
C105  N1    S    
C157  C184  T    
C125  H75   S    
C35   C43   A    
C188  O28   A    
C103  O77   S    
C175  C181  S    
C161  C169  T    
C82   H153  S    
C133  H114  S    
Cu3   O37   S    
C129  N15   S    
C49   C64   A    
C90   N8    S    
C50   C63   A    
C80   O54   S    
C81   H150  S    
C51   C62   A    
C21   C199  S    
C129  H94   S    
C141  C150  A    
C73   H13   S    
Cu10  O3    S    
C33   C219  A    
C212  O52   S    
Cu11  O8    S    
C118  H50   S    
C126  N11   S    
Cu9   O19   S    
Cu10  O5    S    
C137  H125  S    
C2    N31   S    
C120  H60   S    
Cu12  O27   S    
C224  O64   S    
C104  O79   S    
C189  O31   A    
C6    C211  A    
C145  C163  S    
C165  C174  T    
Cu6   O14   S    
C146  C164  S    
C99   H206  S    
H132  N25   S    
Cu2   O32   S    
C123  H72   S    
C181  O2    A    
C52   N18   S    
C122  H69   S    
Cu1   O1    S    
C86   H167  S    
C105  H3    S    
C128  H91   S    
C89   H178  S    
C55   C69   A    
C148  C172  S    
C221  O61   S    
C32   C220  A    
C25   C196  S    
C188  O32   A    
C44   N10   S    
Cu2   O33   S    
C60   N26   S    
C97   H199  S    
C70   O44   S    
C103  H217  S    
H74   N10   S    
C95   H195  S    
C159  O56   A    
C77   H142  S    
H43   N3    S    
C186  C194  S    
C126  H81   S    
C109  H20   S    
H115  N20   S    
C181  O8    A    
H17   N28   S    
H83   N13   S    
C120  H59   S    
C73   H2    S    
C87   H171  S    
H78   N11   S    
H52   N5    S    
C10   C216  A    
C28   C37   S    
C140  H138  S    
C85   H164  S    
C30   C39   S    
C68   C144  A    
C119  H54   S    
C127  H85   S    
H39   N2    S    
H26   N30   S    
C32   C218  A    
C111  H28   S    
C209  O49   S    
C30   C216  A    
C13   C50   A    
C71   H170  S    
C192  O3    A    
C71   H159  S    
C201  O19   A    
C66   C157  S    
C218  O58   S    
H56   N6    S    
C33   C221  A    
C81   H151  S    
C14   O76   S    
C153  C179  T    
C137  N22   S    
C154  C180  T    
C137  H127  S    
C213  O53   S    
C220  O60   S    
C107  H10   S    
C26   C207  A    
C84   H162  S    
Cu11  O21   S    
C102  O76   S    
C136  H120  S    
C130  H97   S    
C130  N16   S    
C64   C155  S    
C203  O4    A    
Cu5   O10   S    
C51   N17   S    
C138  H130  S    
C117  H44   S    
C195  O39   A    
C178  C190  S    
C104  H219  S    
C179  C187  S    
C103  H216  S    
C148  O23   A    
C168  C177  T    
C128  N14   S    
C101  C150  A    
C31   C40   S    
C78   O53   S    
C27   C208  A    
C50   N16   S    
C131  H104  S    
C112  O12   A    
C110  H25   S    
C180  C188  S    
C100  H210  S    
H21   N29   S    
C183  C195  S    
C177  C203  S    
C97   H201  S    
C80   H147  S    
Cu4   O41   S    
C53   N19   S    
C86   O61   S    
H105  N18   S    
C11   C217  A    
C194  O40   A    
C56   N22   S    
C88   H173  S    
C95   H193  S    
C60   C66   A    
C83   H157  S    
C94   H190  S    
C16   C221  A    
C106  H6    S    
Cu7   O17   S    
C134  H118  S    
C75   O50   S    
C187  O27   A    
C45   N11   S    
C121  N7    S    
C48   C214  A    
H65   N8    S    
C122  H67   S    
C59   C101  A    
Cu3   O36   S    
C91   O65   S    
C8    C213  A    
C87   H169  S    
C158  C185  T    
C72   O47   S    
C139  H134  S    
C206  O46   S    
C79   C147  A    
C96   H198  S    
C140  H140  S    
C78   H145  S    
C200  O18   A    
C135  N4    S    
C28   C211  A    
C16   O79   S    
Cu8   O7    S    
C46   N27   S    
C133  H110  S    
C99   H207  S    
C123  H73   S    
C84   O59   S    
C47   N13   S    
C76   H113  S    
C119  H53   S    
C72   H192  S    
C85   H165  S    
C113  N6    S    
C93   H187  S    
H4    N12   S    
C96   O71   S    
C72   H214  S    
H48   N4    S    
C109  N28   S    
C14   C219  A    
C26   C205  A    
C111  N30   S    
C73   O48   S    
C107  H11   S    
C46   C47   A    
Cu5   O12   S    
C22   C198  S    
C74   H57   S    
C63   C154  S    
C94   O69   S    
H109  N19   S    
C74   H35   S    
C62   C153  S    
C58   C69   A    
C27   C36   S    
C110  N29   S    
C27   C206  A    
C131  H102  S    
C110  H23   S    
Cu5   Cu7   S    
C24   C146  A    
C114  H31   S    
Cu12  O30   S    
C115  H38   S    
C38   C39   T    
C45   C63   A    
C76   O51   S    
C135  C151  A    
C150  C167  S    
C115  N32   S    
C121  H63   S    
Cu4   O43   S    
C112  O78   A    
C194  O38   A    
Cu8   O25   S    
C112  C171  S    
C88   H175  S    
C74   H46   S    
C7    C20   A    
C75   H90   S    
C192  O7    A    
C127  H84   S    
C199  O17   A    
C105  H224  S    
H8    N23   S    
C1    O1    A    
C75   H68   S    
C108  N27   S    
C124  C147  A    
C56   C65   A    
C35   C143  A    
C31   C217  A    
Cu7   O13   S    
C82   H154  S    
C139  H136  S    
C160  C186  T    
C129  H93   S    
C98   O73   S    
C73   H24   S    
Cu2   Cu12  S    
C139  N25   S    
C88   O63   S    
C78   H143  S    
C91   H180  S    
C200  O20   A    
C3    C208  A    
C92   H183  S    
C219  O59   S    
C116  H41   S    
C93   H186  S    
Cu12  O28   S    
Cu11  O26   S    
C134  N20   S    
C210  O50   S    
C122  N8    S    
C9    C22   A    
C176  C192  S    
C151  C168  S    
C59   N25   S    
C202  O25   A    
C92   H185  S    
C3    C18   A    
C123  H71   S    
C136  H121  S    
H12   N27   S    
C10   O73   S    
C97   O72   S    
C17   C222  A    
C71   H181  S    
C92   O66   S    
C87   O62   S    
C26   C34   S    
Cu3   Cu4   S    
C82   O57   S    
C86   H168  S    
C89   H177  S    
C182  C189  S    
Cu9   O24   S    
C216  O55   S    
C147  C165  S    
C15   C23   A    
C207  C224  A    
C132  H107  S    
C120  N6    S    
C4    C19   A    
C9    O72   S    
C80   H146  S    
Cu4   O40   S    
C90   C149  A    
C205  O44   S    
C142  N2    S    
C77   H141  S    
C108  H15   S    
C124  N32   S    
C131  H103  S    
C198  O16   A    
Cu9   O6    S    
C215  O54   S    
C18   C202  S    
C126  H82   S    
C193  O41   A    
C115  H36   S    
C54   C67   A    
H70   N9    S    
C44   C62   A    
C3    O65   S    
C83   H158  S    
C116  N2    S    
Cu6   O11   S    
C89   O64   S    
C111  H29   S    
C76   H124  S    
C17   C204  S    
C140  N26   S    
C163  C172  T    
H137  N26   S    
Cu11  O4    S    
C93   O68   S    
Cu6   O45   S    
C206  C223  A    
C214  N28   S    
C102  H215  S    
C85   H163  S    
C8    C21   A    
C211  O51   S    
C101  N7    S    
C125  H76   S    
C53   C66   A    
Cu9   Cu11  S    
C111  H27   S    
H119  N21   S    
C49   N15   S    
C143  C214  A    
C132  N18   S    
Cu3   O38   S    
C98   H205  S    
C202  O22   A    
C117  H45   S    
C44   C68   A    
C148  O67   A    
C193  O37   A    
C129  H95   S    
Cu7   O34   S    
C106  N12   S    
C141  N3    S    
C24   C49   A    
C144  C162  S    
C137  H126  S    
C29   C38   S    
C107  H9    S    
C149  C166  S    
C93   H188  S    
C185  C193  S    
C81   H152  S    
C107  N23   S    
C187  O33   A    
C102  H212  S    
C191  O36   A    
C91   H182  S    
H30   N31   S    
C130  H98   S    
C23   C197  S    
C11   C22   A    
C2    C51   A    
Cu2   O31   S    
C159  O34   A    
C138  H131  S    
C17   C224  A    
C14   C25   A    
C104  H220  S    
C48   C61   A    
C13   N30   S    
C55   C135  A    
C86   H166  S    
C1    C169  S    
H222  N1    S    
C67   C158  S    
C134  H116  S    
C152  C178  T    
C61   C152  S    
C119  N5    S    
Cu8   O18   S    
C159  C173  S    
C36   C41   T    
C204  O26   A    
C97   H200  S    
Cu4   O42   S    
C15   C220  A    
C85   O60   S    
C167  C176  T    
C103  H218  S    
C88   H174  S    
