data_mof_unit_42090.cif
_audit_creation_date              2012-12-10T17:56:47-0500
_audit_creation_method            fapswitch 2.2
_symmetry_space_group_name_H-M    P1
_symmetry_Int_Tables_number       1
_space_group_crystal_system       triclinic
_cell_length_a                    10.8638
_cell_length_b                    9.533945
_cell_length_c                    10.780377
_cell_angle_alpha                 90.285145
_cell_angle_beta                  92.044171
_cell_angle_gamma                 89.345772
_cell_volume                      1115.78119552

loop_
_atom_site_label
_atom_site_type_symbol
_atom_type_description
_atom_site_fract_x
_atom_site_fract_y
_atom_site_fract_z
_atom_type_partial_charge
C1    C     C_R   0.262006 0.500582 0.495560 0.866011
C2    C     C_R   0.738041 0.498905 0.503885 0.785894
C3    C     C_R   0.936335 0.620163 0.533663 -0.176329
C4    C     C_R   0.063799 0.621403 0.530544 -0.177511
C5    C     C_R   0.441496 0.074042 0.406430 0.650541
C6    C     C_R   0.557425 0.073606 0.594409 0.594058
C7    C     C_R   0.440923 0.925637 0.406877 -0.120205
C8    C     C_R   0.558482 0.925112 0.593576 -0.132711
C9    C     C_R   0.504196 0.499638 0.262633 0.881194
C10   C     C_R   0.504952 0.500258 0.737391 0.891939
C11   C     C_R   0.713618 0.617827 0.137853 -0.311904
C12   C     C_R   0.713412 0.619665 0.878730 -0.318119
C13   C     C_R   0.812747 0.674159 0.076997 0.584935
C14   C     C_R   0.812665 0.675036 0.947764 0.582220
C15   C     C_R   0.612025 0.562020 0.938538 -0.057249
C16   C     C_R   0.612119 0.561178 0.069793 -0.064697
C17   C     C_R   0.512606 0.498528 0.128983 -0.250100
C18   C     C_R   0.512299 0.500270 0.871155 -0.244453
C19   C     C_R   0.419265 0.431762 0.059719 0.539776
C20   C     C_R   0.418495 0.433198 0.931953 0.544385
C21   C     C_R   0.062264 0.380796 0.455106 0.364378
C22   C     C_R   0.937806 0.372210 0.478823 0.362594
C23   C     C_R   0.872236 0.496129 0.507280 -0.194048
C24   C     C_R   0.127863 0.501389 0.492248 -0.195528
Cu1   Cu    Cu3+1 0.500000 0.640660 0.500000 0.964434
Cu2   Cu    Cu3+1 0.500000 0.359340 0.500000 1.103440
H1    H     H_    0.718605 0.616398 0.238182 0.183776
H2    H     H_    0.718151 0.619871 0.778673 0.167368
H3    H     H_    0.888073 0.715615 0.558540 0.182787
H4    H     H_    0.111910 0.716436 0.557095 0.186847
H5    H     H_    0.393210 0.869907 0.332297 0.183540
H6    H     H_    0.606122 0.868912 0.668191 0.174823
N1    N     N_R   0.500000 0.852070 0.500000 -0.226406
N2    N     N_R   0.500000 0.147940 0.500000 -0.262791
O1    O     O_R   0.319640 0.618740 0.499990 -0.590545
O2    O     O_R   0.680360 0.618740 0.500010 -0.602479
O3    O     O_R   0.319620 0.381170 0.499990 -0.512235
O4    O     O_R   0.680380 0.381170 0.500010 -0.544912
O5    O     O_R   0.500000 0.618810 0.319650 -0.598544
O6    O     O_R   0.500000 0.618810 0.680350 -0.600187
O7    O     O_R   0.499970 0.381240 0.319640 -0.497820
O8    O     O_R   0.500030 0.381240 0.680360 -0.489905
F1    F     F_    0.326753 0.367097 0.116267 -0.654919
F2    F     F_    0.324085 0.371443 0.866909 -0.625073
F3    F     F_    0.910028 0.726390 0.143946 -0.633695
F4    F     F_    0.910047 0.727765 0.888858 -0.648914
O9    O     O_3   0.118098 0.268984 0.396168 -0.591470
C25   C     C_3   0.116644 0.294662 0.266681 0.183675
H7    H     H_    0.184629 0.221760 0.226533 0.280980
H8    H     H_    0.145508 0.403593 0.245438 0.170541
C26   C     C_3   0.991310 0.263704 0.202090 -0.403292
H9    H     H_    0.960526 0.157582 0.228732 0.274349
H10   H     H_    0.921575 0.342515 0.230362 0.228517
C27   C     C_3   0.999081 0.270158 0.061072 -0.770942
H11   H     H_    0.028891 0.375882 0.032302 0.286977
H12   H     H_    0.907049 0.249288 0.017115 0.250260
H13   H     H_    0.065361 0.189988 0.027835 0.286275
O10   O     O_3   0.879667 0.245459 0.457567 -0.598873
C28   C     C_3   0.876586 0.169743 0.570124 0.139286
H14   H     H_    0.801801 0.092380 0.558327 0.185409
H15   H     H_    0.853536 0.237799 0.650826 0.163133
C29   C     C_3   0.996507 0.087130 0.597485 -0.422949
H16   H     H_    0.018423 0.021115 0.515711 0.255357
H17   H     H_    0.073625 0.160355 0.616730 0.256633
C30   C     C_3   0.984931 0.993248 0.710642 -0.759070
H18   H     H_    0.968699 0.058007 0.794582 0.272544
H19   H     H_    0.071346 0.931533 0.726262 0.275778
H20   H     H_    0.907344 0.919515 0.696020 0.266060
F5    F     F_    0.383243 0.142522 0.311570 -0.625411
F6    F     F_    0.615569 0.141596 0.689843 -0.667429

loop_
_geom_bond_atom_site_label_1
_geom_bond_atom_site_label_2
_ccdc_geom_bond_type
C22   O10   S    
C15   C18   A    
C6    C8    A    
Cu2   O3    S    
C29   H16   S    
C11   H1    S    
C9    O7    A    
C10   O8    A    
C11   C13   A    
C11   C16   A    
C2    O4    A    
C3    C23   A    
C19   C20   A    
C30   H19   S    
C12   C15   A    
C1    O3    A    
C26   C27   S    
C5    N2    A    
C30   H20   S    
Cu1   N1    S    
C25   H8    S    
O10   C28   S    
C28   H14   S    
C14   F4    S    
C13   C14   A    
Cu1   O5    S    
C13   F3    S    
C7    N1    A    
C3    H3    S    
Cu1   O1    S    
C4    C24   A    
C9    C17   S    
C25   H7    S    
C20   F2    S    
C19   F1    S    
C21   C22   A    
C30   H18   S    
C18   C20   A    
C8    N1    A    
Cu1   O6    S    
C10   C18   S    
C27   H12   S    
C28   H15   S    
C7    H5    S    
Cu1   O2    S    
C26   H9    S    
C8    H6    S    
O9    C25   S    
C6    N2    A    
C9    O5    A    
Cu2   O8    S    
C1    C24   S    
C5    C7    A    
C12   H2    S    
C21   C24   A    
C2    O2    A    
C2    C23   S    
C6    F6    S    
C1    O1    A    
C21   O9    S    
C22   C23   A    
Cu2   O4    S    
C10   O6    A    
C29   H17   S    
C28   C29   S    
C29   C30   S    
C17   C19   A    
Cu1   Cu2   S    
C27   H11   S    
C5    F5    S    
Cu2   N2    S    
C25   C26   S    
C4    H4    S    
C3    C4    A    
C15   C16   A    
Cu2   O7    S    
C12   C14   A    
C16   C17   A    
C26   H10   S    
C27   H13   S    
