data_mof_unit_66133.cif
_audit_creation_date              2012-12-10T17:43:39-0500
_audit_creation_method            fapswitch 2.2
_symmetry_space_group_name_H-M    P1
_symmetry_Int_Tables_number       1
_space_group_crystal_system       triclinic
_cell_length_a                    44.088929
_cell_length_b                    30.391754
_cell_length_c                    30.418632
_cell_angle_alpha                 89.999578
_cell_angle_beta                  133.427542
_cell_angle_gamma                 90.000177
_cell_volume                      29601.0920262

loop_
_atom_site_label
_atom_site_type_symbol
_atom_type_description
_atom_site_fract_x
_atom_site_fract_y
_atom_site_fract_z
_atom_type_partial_charge
C1    C     C_R   0.499847 0.000023 0.584811 0.876431
C2    C     C_R   0.500153 0.000023 0.415190 0.876448
C3    C     C_R   0.999847 0.500023 0.584811 0.876411
C4    C     C_R   0.000155 0.500023 0.415192 0.876597
C5    C     C_3   0.226406 0.989951 0.179849 -0.420765
C6    C     C_3   0.773595 0.989918 0.820143 -0.420774
C7    C     C_3   0.726405 0.489999 0.179839 -0.420766
C8    C     C_3   0.273596 0.489548 0.820056 -0.420884
C9    C     C_3   0.275021 0.988741 0.228803 -0.585141
C10   C     C_3   0.724979 0.988710 0.771190 -0.585135
C11   C     C_3   0.775021 0.488788 0.228790 -0.585173
C12   C     C_3   0.224981 0.488344 0.771094 -0.585230
C13   C     C_1   0.162393 0.999962 0.162412 -0.010987
C14   C     C_1   0.837607 0.999962 0.837588 -0.010985
C15   C     C_1   0.662393 0.499962 0.162411 -0.010989
C16   C     C_1   0.337606 0.499964 0.837584 -0.010961
C17   C     C_1   0.337653 0.999939 0.337772 0.012415
C18   C     C_1   0.662347 0.999938 0.662228 0.012411
C19   C     C_1   0.837653 0.499939 0.337771 0.012413
C20   C     C_1   0.162347 0.499938 0.662228 0.012374
C21   C     C_1   0.375294 0.999986 0.375265 -0.173509
C22   C     C_1   0.624706 0.999986 0.624735 -0.173511
C23   C     C_1   0.875294 0.499986 0.375264 -0.173510
C24   C     C_1   0.124707 0.499986 0.624735 -0.173572
C25   C     C_R   0.522620 0.032675 0.724684 0.412830
C26   C     C_R   0.477374 0.032671 0.275310 0.412834
C27   C     C_R   0.022610 0.532683 0.724674 0.412828
C28   C     C_R   0.977320 0.532622 0.275257 0.412847
C29   C     C_R   0.524454 0.030886 0.680503 0.338531
C30   C     C_R   0.475540 0.030881 0.319491 0.338532
C31   C     C_R   0.024445 0.530894 0.680495 0.338542
C32   C     C_R   0.975491 0.530832 0.319444 0.338513
C33   C     C_R   0.499573 0.000312 0.632691 -0.309528
C34   C     C_R   0.500427 0.000313 0.367310 -0.309521
C35   C     C_R   0.999573 0.500312 0.632691 -0.309543
C36   C     C_R   0.000430 0.500313 0.367315 -0.309439
C37   C     C_R   0.473915 0.970721 0.630395 0.441194
C38   C     C_R   0.526092 0.970728 0.369613 0.441187
C39   C     C_R   0.973923 0.470713 0.630404 0.441208
C40   C     C_R   0.026148 0.470779 0.369674 0.441070
C41   C     C_R   0.474296 0.970922 0.676671 -0.324343
C42   C     C_R   0.525711 0.970928 0.323337 -0.324345
C43   C     C_R   0.974305 0.470914 0.676680 -0.324357
C44   C     C_R   0.025767 0.470976 0.323398 -0.324317
C45   C     C_R   0.420063 0.999998 0.420032 0.793392
C46   C     C_R   0.579937 0.999998 0.579968 0.793394
C47   C     C_R   0.920063 0.499998 0.420032 0.793437
C48   C     C_R   0.079938 0.499998 0.579968 0.793415
C49   C     C_R   0.498580 0.001506 0.723938 -0.128280
C50   C     C_R   0.501420 0.001507 0.276063 -0.128280
C51   C     C_R   0.998580 0.501506 0.723938 -0.128279
C52   C     C_R   0.001421 0.501504 0.276066 -0.128276
C53   C     C_R   0.461624 0.000297 0.759180 -0.196092
C54   C     C_R   0.538376 0.000308 0.240820 -0.196093
C55   C     C_R   0.961624 0.500286 0.759180 -0.196096
C56   C     C_R   0.038377 0.500378 0.240822 -0.196083
C57   C     C_R   0.462285 0.999993 0.805612 -0.266249
C58   C     C_R   0.537715 0.000003 0.194388 -0.266248
C59   C     C_R   0.962285 0.499982 0.805613 -0.266252
C60   C     C_R   0.037715 0.500072 0.194389 -0.266240
C61   C     C_R   0.500428 0.000129 0.866539 -0.138330
C62   C     C_R   0.499572 0.000128 0.133461 -0.138329
C63   C     C_R   0.000428 0.500130 0.866539 -0.138328
C64   C     C_R   0.999572 0.500120 0.133463 -0.138317
C65   C     C_R   0.538301 0.000807 0.880264 0.463184
C66   C     C_R   0.461699 0.000795 0.119737 0.463186
C67   C     C_R   0.038300 0.500819 0.880264 0.463185
C68   C     C_R   0.961699 0.500707 0.119738 0.463183
C69   C     C_R   0.537183 0.999781 0.833212 -0.172049
C70   C     C_R   0.462817 0.999771 0.166790 -0.172053
C71   C     C_R   0.037183 0.499793 0.833212 -0.172053
C72   C     C_R   0.962820 0.499684 0.166795 -0.172055
C73   C     C_R   0.499069 0.000430 0.772768 0.119232
C74   C     C_R   0.500932 0.000431 0.227233 0.119233
C75   C     C_R   0.999068 0.500430 0.772768 0.119234
C76   C     C_R   0.000934 0.500424 0.227237 0.119236
C77   C     C_R   1.000000 0.914979 0.000000 0.838518
C78   C     C_R   0.500000 0.414979 0.000000 0.838481
C79   C     C_R   0.079940 0.000243 0.079894 0.810846
C80   C     C_R   0.920060 0.000243 0.920106 0.810844
C81   C     C_R   0.579940 0.500243 0.079894 0.810850
C82   C     C_R   0.420060 0.500243 0.920106 0.810798
C83   C     C_R   1.000000 0.085095 1.000000 0.855387
C84   C     C_R   0.500000 0.585095 1.000000 0.855392
C85   C     C_3   0.273976 0.962220 0.305392 0.296542
C86   C     C_3   0.726024 0.962241 0.694583 0.296544
C87   C     C_3   0.773977 0.462189 0.305353 0.296547
C88   C     C_3   0.226023 0.462494 0.694287 0.296515
C89   C     C_R   0.500000 0.085306 1.000000 0.786176
C90   C     C_R   1.000000 0.585306 1.000000 0.786191
C91   C     C_R   0.500137 0.999989 0.914791 0.827472
C92   C     C_R   0.499863 0.999988 0.085209 0.827477
C93   C     C_R   0.000137 0.499989 0.914791 0.827463
C94   C     C_R   0.999863 0.499985 0.085209 0.827516
C95   C     C_R   0.500000 0.914684 0.000000 0.797316
C96   C     C_R   1.000000 0.414684 0.000000 0.797332
C97   C     C_R   0.990317 0.797168 0.951500 0.453142
C98   C     C_R   0.009682 0.797168 0.048499 0.453140
C99   C     C_R   0.490315 0.297169 0.951500 0.453160
C100  C     C_R   0.509683 0.297168 0.048500 0.453132
C101  C     C_R   0.991750 0.843319 0.952917 -0.279403
C102  C     C_R   0.008249 0.843318 0.047083 -0.279398
C103  C     C_R   0.491749 0.343319 0.952916 -0.279469
C104  C     C_R   0.508250 0.343318 0.047084 -0.279388
C105  C     C_R   1.000000 0.866555 0.000000 -0.161479
C106  C     C_R   0.500000 0.366555 0.000000 -0.161495
C107  C     C_R   0.999999 0.774224 1.000000 -0.123745
C108  C     C_R   0.499999 0.274224 1.000000 -0.123755
C109  C     C_R   0.537439 0.202875 0.043217 -0.111943
C110  C     C_R   0.462560 0.202875 0.956783 -0.111955
C111  C     C_R   0.037439 0.702875 0.043218 -0.111945
C112  C     C_R   0.962560 0.702875 0.956781 -0.111944
C113  C     C_R   0.537493 0.157022 0.043133 -0.204865
C114  C     C_R   0.462506 0.157022 0.956867 -0.204867
C115  C     C_R   0.037493 0.657022 0.043134 -0.204861
C116  C     C_R   0.962507 0.657022 0.956865 -0.204846
C117  C     C_R   0.500000 0.133695 1.000000 -0.034474
C118  C     C_R   1.000000 0.633695 1.000000 -0.034472
C119  C     C_3   0.273725 0.047025 0.284576 0.372006
C120  C     C_3   0.726274 0.047032 0.715453 0.372010
C121  C     C_3   0.773725 0.547014 0.284623 0.372009
C122  C     C_3   0.226272 0.547110 0.715823 0.372022
C123  C     C_R   0.499999 0.225918 1.000000 0.218513
C124  C     C_R   1.000000 0.725918 1.000000 0.218502
C125  C     C_R   0.025734 0.202381 0.996429 -0.252375
C126  C     C_R   0.974266 0.202381 0.003570 -0.252368
C127  C     C_R   0.525736 0.702381 0.996433 -0.252366
C128  C     C_R   0.474263 0.702381 0.003564 -0.252370
C129  C     C_R   0.026408 0.156430 0.997373 0.441183
C130  C     C_R   0.973592 0.156430 0.002625 0.441181
C131  C     C_R   0.526410 0.656430 0.997378 0.441187
C132  C     C_R   0.473589 0.656429 0.002619 0.441179
C133  C     C_R   1.000000 0.133245 0.999999 -0.241249
C134  C     C_R   0.499999 0.633245 0.999999 -0.241244
C135  C     C_R   1.000000 0.225554 0.999999 -0.047417
C136  C     C_R   0.499999 0.725554 0.999998 -0.047416
C137  C     C_R   0.462186 0.797214 0.964214 -0.164887
C138  C     C_R   0.537813 0.797213 0.035784 -0.164890
C139  C     C_R   0.962187 0.297214 0.964217 -0.164891
C140  C     C_R   0.037813 0.297214 0.035781 -0.164883
C141  C     C_R   0.462172 0.843037 0.964137 -0.184774
C142  C     C_R   0.537828 0.843036 0.035862 -0.184775
C143  C     C_R   0.962172 0.343037 0.964140 -0.184757
C144  C     C_R   0.037828 0.343037 0.035859 -0.184774
C145  C     C_R   0.500000 0.866335 1.000000 -0.032293
C146  C     C_R   0.000000 0.366335 1.000000 -0.032296
C147  C     C_R   0.499999 0.773977 0.999999 0.166041
C148  C     C_R   0.000000 0.273977 0.999999 0.166038
C149  C     C_3   0.225038 0.045574 0.238618 -0.533563
C150  C     C_3   0.774961 0.045583 0.761412 -0.533570
C151  C     C_3   0.725038 0.545559 0.238663 -0.533573
C152  C     C_3   0.274959 0.545684 0.761774 -0.533657
C153  C     C_1   0.124737 0.000206 0.124610 -0.175702
C154  C     C_1   0.875263 0.000206 0.875390 -0.175702
C155  C     C_1   0.624737 0.500206 0.124610 -0.175701
C156  C     C_1   0.375263 0.500206 0.875389 -0.175691
C157  C     C_3   0.291616 0.999847 0.292245 0.083997
C158  C     C_3   0.708384 0.999846 0.707755 0.083996
C159  C     C_3   0.791616 0.499846 0.292243 0.084005
C160  C     C_3   0.208383 0.499850 0.707753 0.084051
C161  C     C_3   0.225581 0.966216 0.261443 0.317361
C162  C     C_3   0.774419 0.966241 0.738533 0.317368
C163  C     C_3   0.725581 0.466180 0.261408 0.317358
C164  C     C_3   0.274417 0.466531 0.738266 0.317463
C165  C     C_3   0.208439 0.999350 0.208839 0.103569
C166  C     C_3   0.791561 0.999349 0.791160 0.103569
C167  C     C_3   0.708439 0.499349 0.208837 0.103572
C168  C     C_3   0.291559 0.499352 0.791151 0.103584
Cu1   Cu    Cu3+1 0.500000 0.955930 0.500000 1.016507
Cu2   Cu    Cu3+1 0.000000 0.455930 0.500000 1.016430
Cu3   Cu    Cu3+1 0.500000 0.044060 0.500000 0.996989
Cu4   Cu    Cu3+1 0.000000 0.544060 0.500000 0.996994
Cu5   Cu    Cu3+1 0.000000 0.000140 0.044060 0.982233
Cu6   Cu    Cu3+1 1.000000 0.000140 0.955940 0.982233
Cu7   Cu    Cu3+1 0.500000 0.500140 0.044060 0.982227
Cu8   Cu    Cu3+1 0.500000 0.500140 0.955940 0.982303
Cu9   Cu    Cu3+1 0.458680 0.999980 0.958690 0.965647
Cu10  Cu    Cu3+1 0.541320 0.999980 0.041310 0.965665
Cu11  Cu    Cu3+1 0.958680 0.499980 0.958690 0.965623
Cu12  Cu    Cu3+1 0.041320 0.499980 0.041310 0.965693
H1    H     H_    0.432543 0.860167 0.935982 0.157388
H2    H     H_    0.567457 0.860166 0.064018 0.157388
H3    H     H_    0.932543 0.360167 0.935987 0.157394
H4    H     H_    0.067457 0.360166 0.064012 0.157393
H5    H     H_    0.282332 0.068027 0.264287 0.096557
H6    H     H_    0.717666 0.068015 0.735755 0.096553
H7    H     H_    0.782332 0.568045 0.264355 0.096577
H8    H     H_    0.217663 0.567863 0.736285 0.096543
H9    H     H_    0.214289 0.054236 0.261623 0.187413
H10   H     H_    0.785712 0.054268 0.738415 0.187407
H11   H     H_    0.714288 0.554187 0.261676 0.187415
H12   H     H_    0.285709 0.554640 0.738850 0.187385
H13   H     H_    0.286069 0.955744 0.228993 0.190358
H14   H     H_    0.713930 0.955706 0.770978 0.190364
H15   H     H_    0.786070 0.455803 0.228947 0.190349
H16   H     H_    0.213931 0.455262 0.770621 0.190432
O1    O     O_R   0.500000 0.962790 0.564270 -0.550843
O2    O     O_R   0.500000 0.962790 0.435730 -0.550851
O3    O     O_R   1.000000 0.462790 0.564270 -0.550837
O4    O     O_R   0.000000 0.462790 0.435730 -0.550938
O5    O     O_R   0.465110 0.999980 0.900850 -0.601201
O6    O     O_R   0.534890 0.999980 0.099150 -0.601196
O7    O     O_R   0.965110 0.499980 0.900850 -0.601204
O8    O     O_R   0.034890 0.499980 0.099150 -0.601186
O9    O     O_R   0.534890 0.999980 0.970630 -0.532181
O10   O     O_R   0.465110 0.999980 0.029370 -0.532185
O11   O     O_R   0.034890 0.499980 0.970630 -0.532174
O12   O     O_R   0.965110 0.499980 0.029370 -0.532218
O13   O     O_R   0.465110 0.935690 0.965100 -0.588316
O14   O     O_R   0.534890 0.935690 0.034900 -0.588317
O15   O     O_R   0.965110 0.435690 0.965100 -0.588299
O16   O     O_R   0.034890 0.435690 0.034900 -0.588316
O17   O     O_R   0.499990 0.037210 0.564290 -0.556581
O18   O     O_R   0.500010 0.037210 0.435710 -0.556591
O19   O     O_R   0.999990 0.537210 0.564290 -0.556569
O20   O     O_R   0.000010 0.537210 0.435710 -0.556669
O21   O     O_R   0.439720 0.962790 0.439720 -0.575330
O22   O     O_R   0.560280 0.962790 0.560280 -0.575330
O23   O     O_R   0.939720 0.462790 0.439720 -0.575353
O24   O     O_R   0.060280 0.462790 0.560280 -0.575357
O25   O     O_R   0.439710 0.037210 0.439740 -0.580726
O26   O     O_R   0.560290 0.037210 0.560260 -0.580730
O27   O     O_R   0.939710 0.537210 0.439740 -0.580687
O28   O     O_R   0.060290 0.537210 0.560260 -0.580710
O29   O     O_R   0.000000 0.935850 0.037210 -0.591354
O30   O     O_R   0.000000 0.935850 0.962790 -0.591354
O31   O     O_R   0.500000 0.435850 0.037210 -0.591356
O32   O     O_R   0.500000 0.435850 0.962790 -0.591346
O33   O     O_R   0.060280 0.000140 0.097490 -0.581312
O34   O     O_R   0.939720 0.000140 0.902510 -0.581309
O35   O     O_R   0.560280 0.500140 0.097490 -0.581323
O36   O     O_R   0.439720 0.500140 0.902510 -0.581246
O37   O     O_R   0.060280 0.000120 0.023100 -0.575618
O38   O     O_R   0.939720 0.000120 0.976900 -0.575617
O39   O     O_R   0.560280 0.500120 0.023100 -0.575612
O40   O     O_R   0.439720 0.500120 0.976900 -0.575615
O41   O     O_R   0.999990 0.064430 0.037200 -0.551894
O42   O     O_R   0.000010 0.064430 0.962800 -0.551897
O43   O     O_R   0.499990 0.564430 0.037200 -0.551901
O44   O     O_R   0.500010 0.564430 0.962800 -0.551890
O45   O     O_R   0.465110 0.064280 0.965140 -0.595001
O46   O     O_R   0.534890 0.064280 0.034860 -0.594995
O47   O     O_R   0.965110 0.564280 0.965140 -0.595009
O48   O     O_R   0.034890 0.564280 0.034860 -0.594994
H17   H     H_    0.219104 0.982107 0.287037 0.115532
H18   H     H_    0.780894 0.982155 0.712950 0.115533
H19   H     H_    0.719105 0.482038 0.287016 0.115533
H20   H     H_    0.280886 0.482700 0.712808 0.115570
H21   H     H_    0.279864 0.931494 0.292708 0.134416
H22   H     H_    0.720138 0.931502 0.707249 0.134413
H23   H     H_    0.779864 0.431481 0.292637 0.134415
H24   H     H_    0.220143 0.431610 0.706714 0.134425
O49   O     O_3   0.204906 0.924827 0.245311 -0.561116
C169  C     C_3   0.199995 0.900859 0.201028 -0.282710
H25   H     H_    0.228766 0.899104 0.209585 0.132095
H26   H     H_    0.173316 0.913743 0.155107 0.165362
H27   H     H_    0.191948 0.866464 0.201767 0.187132
O50   O     O_3   0.795095 0.924856 0.754637 -0.561114
C170  C     C_3   0.800007 0.900859 0.798905 -0.282718
H28   H     H_    0.771237 0.899089 0.790346 0.132096
H29   H     H_    0.826686 0.913731 0.844834 0.165359
H30   H     H_    0.808056 0.866471 0.798143 0.187127
O51   O     O_3   0.704906 0.424787 0.245234 -0.561129
C171  C     C_3   0.699996 0.400859 0.200927 -0.282717
H31   H     H_    0.728766 0.399125 0.209483 0.132096
H32   H     H_    0.673316 0.413763 0.155019 0.165373
H33   H     H_    0.691949 0.366456 0.201630 0.187136
O52   O     O_3   0.295097 0.425190 0.754039 -0.561093
C172  C     C_3   0.300015 0.400881 0.798115 -0.282788
H34   H     H_    0.271245 0.398946 0.789542 0.132105
H35   H     H_    0.326693 0.413599 0.844142 0.165334
H36   H     H_    0.308066 0.366568 0.797084 0.187096
H37   H     H_    0.216145 0.016558 0.146899 0.191768
H38   H     H_    0.783856 0.016507 0.853113 0.191776
H39   H     H_    0.716145 0.516628 0.146916 0.191771
H40   H     H_    0.283859 0.515950 0.853236 0.191856
O53   O     O_3   0.546190 0.063688 0.770322 -0.576112
C173  C     C_3   0.521290 0.101347 0.752165 -0.275959
H41   H     H_    0.493494 0.093769 0.745111 0.149689
H42   H     H_    0.511422 0.116135 0.710499 0.182643
H43   H     H_    0.540109 0.126289 0.788699 0.183313
O54   O     O_3   0.453797 0.063678 0.229664 -0.576110
C174  C     C_3   0.478689 0.101342 0.247810 -0.275959
H44   H     H_    0.506486 0.093769 0.254865 0.149692
H45   H     H_    0.488555 0.116133 0.289474 0.182640
H46   H     H_    0.459865 0.126279 0.211272 0.183312
O55   O     O_3   0.046171 0.563704 0.770304 -0.576111
C175  C     C_3   0.021259 0.601354 0.752136 -0.275968
H47   H     H_    0.993466 0.593766 0.745084 0.149692
H48   H     H_    0.011387 0.616139 0.710465 0.182637
H49   H     H_    0.040070 0.626302 0.788661 0.183312
O56   O     O_3   0.953686 0.563580 0.229554 -0.576121
C176  C     C_3   0.978511 0.601293 0.247629 -0.275949
H50   H     H_    0.006320 0.593774 0.254696 0.149697
H51   H     H_    0.988351 0.616106 0.289266 0.182650
H52   H     H_    0.959642 0.626192 0.211044 0.183308
O57   O     O_3   0.549458 0.060482 0.683032 -0.540104
C177  C     C_3   0.589220 0.041368 0.716906 -0.245662
H53   H     H_    0.587426 0.010580 0.695373 0.121708
H54   H     H_    0.604560 0.034802 0.764369 0.171749
H55   H     H_    0.609220 0.064850 0.718497 0.177397
O58   O     O_3   0.450532 0.060473 0.316957 -0.540110
C178  C     C_3   0.410774 0.041350 0.283088 -0.245669
H56   H     H_    0.412574 0.010563 0.304629 0.121709
H57   H     H_    0.395434 0.034780 0.235626 0.171751
H58   H     H_    0.390769 0.064828 0.281493 0.177396
O59   O     O_3   0.049440 0.560499 0.683016 -0.540094
C179  C     C_3   0.089208 0.541397 0.716896 -0.245678
H59   H     H_    0.087423 0.510609 0.695372 0.121701
H60   H     H_    0.104549 0.534836 0.764360 0.171735
H61   H     H_    0.109201 0.564886 0.718480 0.177392
O60   O     O_3   0.950435 0.560378 0.316863 -0.540154
C180  C     C_3   0.910708 0.541183 0.283029 -0.245786
H62   H     H_    0.912561 0.510399 0.304620 0.121736
H63   H     H_    0.895378 0.534587 0.235577 0.171797
H64   H     H_    0.890667 0.564625 0.281399 0.177391
O61   O     O_3   0.449519 0.940305 0.584129 -0.544692
C181  C     C_3   0.409387 0.958473 0.538201 -0.273697
H65   H     H_    0.389936 0.934504 0.500455 0.216476
H66   H     H_    0.410621 0.989252 0.519608 0.131736
H67   H     H_    0.393799 0.964742 0.554777 0.144017
O62   O     O_3   0.550493 0.940317 0.415885 -0.544706
C182  C     C_3   0.590622 0.958493 0.461808 -0.273675
H68   H     H_    0.610078 0.934529 0.499560 0.216492
H69   H     H_    0.589383 0.989273 0.480395 0.131729
H70   H     H_    0.606209 0.964764 0.445231 0.144025
O63   O     O_3   0.949537 0.440289 0.584148 -0.544679
C183  C     C_3   0.909399 0.458443 0.538215 -0.273751
H71   H     H_    0.889955 0.434468 0.500476 0.216447
H72   H     H_    0.910625 0.489222 0.519611 0.131751
H73   H     H_    0.893810 0.464708 0.554788 0.144005
O64   O     O_3   0.050606 0.440421 0.416006 -0.544856
C184  C     C_3   0.090701 0.458680 0.461894 -0.273253
H74   H     H_    0.110201 0.434759 0.499694 0.216661
H75   H     H_    0.089404 0.489460 0.480420 0.131624
H76   H     H_    0.106276 0.464980 0.445305 0.144120
H77   H     H_    0.455653 0.946958 0.675723 0.188122
H78   H     H_    0.544359 0.946968 0.324290 0.188122
H79   H     H_    0.955669 0.446943 0.675740 0.188119
H80   H     H_    0.044459 0.447053 0.324396 0.188133
H81   H     H_    0.431867 0.000858 0.712595 0.146186
H82   H     H_    0.568133 0.000877 0.287405 0.146188
H83   H     H_    0.931867 0.500838 0.712595 0.146186
H84   H     H_    0.068133 0.501009 0.287405 0.146197
H85   H     H_    0.432799 0.999840 0.793667 0.179399
H86   H     H_    0.567201 0.999859 0.206333 0.179401
H87   H     H_    0.932799 0.499820 0.793667 0.179399
H88   H     H_    0.067201 0.499989 0.206333 0.179407
O65   O     O_3   0.576507 0.999775 0.939490 -0.564649
C185  C     C_3   0.594259 0.042224 0.955491 -0.282767
H89   H     H_    0.573216 0.067240 0.949567 0.153163
H90   H     H_    0.602280 0.051728 0.929187 0.164065
H91   H     H_    0.623667 0.042019 0.004065 0.186615
O66   O     O_3   0.423493 0.999751 0.060511 -0.564653
C186  C     C_3   0.405725 0.042191 0.044498 -0.282782
H92   H     H_    0.426760 0.067219 0.050420 0.153167
H93   H     H_    0.397697 0.051686 0.070796 0.164064
H94   H     H_    0.376319 0.041978 0.995923 0.186609
O67   O     O_3   0.076507 0.499800 0.939490 -0.564649
C187  C     C_3   0.094247 0.542254 0.955479 -0.282772
H95   H     H_    0.073196 0.567264 0.949546 0.153158
H96   H     H_    0.102266 0.551759 0.929172 0.164067
H97   H     H_    0.123654 0.542059 0.004053 0.186619
O68   O     O_3   0.923496 0.499572 0.060514 -0.564666
C188  C     C_3   0.905621 0.541962 0.044423 -0.282749
H98   H     H_    0.926598 0.567060 0.050319 0.153187
H99   H     H_    0.897555 0.551404 0.070689 0.164049
H100  H     H_    0.876223 0.541683 0.995844 0.186598
O69   O     O_3   0.295071 0.952847 0.366637 -0.583981
C189  C     C_3   0.299414 0.988657 0.399930 -0.228507
H101  H     H_    0.270997 0.009199 0.374441 0.177075
H102  H     H_    0.327317 0.008331 0.418816 0.203678
H103  H     H_    0.305499 0.975349 0.439332 0.157435
O70   O     O_3   0.704929 0.952893 0.633332 -0.583996
C190  C     C_3   0.700583 0.988722 0.600061 -0.228524
H104  H     H_    0.729000 0.009266 0.625560 0.177084
H105  H     H_    0.672681 0.008390 0.581188 0.203684
H106  H     H_    0.694497 0.975437 0.560649 0.157432
O71   O     O_3   0.795071 0.452774 0.366587 -0.583966
C191  C     C_3   0.799414 0.488554 0.399916 -0.228492
H107  H     H_    0.770996 0.509093 0.374448 0.177069
H108  H     H_    0.827316 0.508238 0.418823 0.203670
H109  H     H_    0.805499 0.475213 0.439304 0.157434
O72   O     O_3   0.204927 0.453462 0.632968 -0.584226
C192  C     C_3   0.200571 0.489512 0.599974 -0.228625
H110  H     H_    0.228985 0.510079 0.625626 0.177181
H111  H     H_    0.172670 0.509104 0.581261 0.203778
H112  H     H_    0.194478 0.476494 0.560455 0.157412
H113  H     H_    0.566276 0.998524 0.844045 0.166305
H114  H     H_    0.433726 0.998505 0.155957 0.166295
H115  H     H_    0.066276 0.498545 0.844045 0.166301
H116  H     H_    0.933732 0.498355 0.155968 0.166264
O73   O     O_3   0.983331 0.773801 0.906078 -0.568461
C193  C     C_3   0.943290 0.783730 0.849499 -0.314170
H117  H     H_    0.943228 0.816111 0.832517 0.167849
H118  H     H_    0.918814 0.782814 0.851152 0.145993
H119  H     H_    0.934929 0.758468 0.816365 0.191737
O74   O     O_3   0.016667 0.773799 0.093922 -0.568460
C194  C     C_3   0.056709 0.783729 0.150501 -0.314142
H120  H     H_    0.056769 0.816109 0.167483 0.167846
H121  H     H_    0.081185 0.782814 0.148848 0.146001
H122  H     H_    0.065069 0.758466 0.183634 0.191742
O75   O     O_3   0.483328 0.273800 0.906076 -0.568430
C195  C     C_3   0.443286 0.283730 0.849498 -0.314255
H123  H     H_    0.443224 0.316112 0.832515 0.167863
H124  H     H_    0.418811 0.282814 0.851153 0.145889
H125  H     H_    0.434925 0.258468 0.816364 0.191752
O76   O     O_3   0.516669 0.273799 0.093923 -0.568469
C196  C     C_3   0.556711 0.283729 0.150502 -0.314141
H126  H     H_    0.556772 0.316109 0.167484 0.167846
H127  H     H_    0.581187 0.282814 0.148848 0.146016
H128  H     H_    0.565072 0.258466 0.183636 0.191734
H129  H     H_    0.986279 0.860980 0.917112 0.177019
H130  H     H_    0.013720 0.860979 0.082888 0.177017
H131  H     H_    0.486277 0.360980 0.917111 0.177033
H132  H     H_    0.513722 0.360979 0.082889 0.177018
H133  H     H_    0.566580 0.220426 0.076665 0.122238
H134  H     H_    0.433419 0.220426 0.923335 0.122201
H135  H     H_    0.066580 0.720426 0.076667 0.122236
H136  H     H_    0.933420 0.720426 0.923333 0.122231
H137  H     H_    0.566822 0.139882 0.076937 0.152900
H138  H     H_    0.433177 0.139882 0.923063 0.152887
H139  H     H_    0.066822 0.639882 0.076939 0.152900
H140  H     H_    0.933177 0.639882 0.923060 0.152895
H141  H     H_    0.045342 0.219887 0.992800 0.162807
H142  H     H_    0.954658 0.219887 0.007198 0.162812
H143  H     H_    0.545346 0.719887 0.992809 0.162810
H144  H     H_    0.454652 0.719886 0.007187 0.162806
O77   O     O_3   0.051987 0.134309 0.993675 -0.551412
C197  C     C_3   0.091542 0.128998 0.052764 -0.306557
H145  H     H_    0.089456 0.109562 0.081644 0.139025
H146  H     H_    0.106635 0.161373 0.074176 0.150651
H147  H     H_    0.111910 0.110482 0.050078 0.190122
O78   O     O_3   0.948012 0.134309 0.006323 -0.551408
C198  C     C_3   0.908457 0.129000 0.947235 -0.306558
H148  H     H_    0.888089 0.110484 0.949920 0.190123
H149  H     H_    0.910543 0.109564 0.918353 0.139025
H150  H     H_    0.893365 0.161375 0.925825 0.150649
O79   O     O_3   0.551992 0.634309 0.993685 -0.551407
C199  C     C_3   0.591545 0.628998 0.052776 -0.306565
H151  H     H_    0.589456 0.609562 0.081653 0.139020
H152  H     H_    0.606638 0.661373 0.074188 0.150651
H153  H     H_    0.611915 0.610482 0.050094 0.190126
O80   O     O_3   0.448006 0.634308 0.006311 -0.551414
C200  C     C_3   0.408453 0.629000 0.947220 -0.306551
H154  H     H_    0.388082 0.610483 0.949901 0.190118
H155  H     H_    0.410541 0.609564 0.918342 0.139045
H156  H     H_    0.393361 0.661375 0.925809 0.150649
H157  H     H_    0.432627 0.779911 0.935755 0.128188
H158  H     H_    0.567372 0.779910 0.064243 0.128186
H159  H     H_    0.932628 0.279910 0.935761 0.128186
H160  H     H_    0.067372 0.279910 0.064237 0.128190
O81   O     O_3   0.291026 0.064942 0.340749 -0.597320
C201  C     C_3   0.291314 0.111364 0.339448 -0.361919
H161  H     H_    0.259650 0.124907 0.301301 0.163160
H162  H     H_    0.313921 0.123283 0.336904 0.170018
H163  H     H_    0.301617 0.124023 0.382149 0.196221
O82   O     O_3   0.708974 0.064974 0.659293 -0.597316
C202  C     C_3   0.708690 0.111395 0.660624 -0.361916
H164  H     H_    0.740356 0.124932 0.698776 0.163156
H165  H     H_    0.686088 0.123301 0.663186 0.170009
H166  H     H_    0.698382 0.124075 0.617929 0.196220
O83   O     O_3   0.791026 0.564891 0.340813 -0.597326
C203  C     C_3   0.791311 0.611314 0.339558 -0.361940
H167  H     H_    0.759645 0.624862 0.301427 0.163167
H168  H     H_    0.813915 0.623261 0.337021 0.170028
H169  H     H_    0.801616 0.623940 0.382273 0.196217
O84   O     O_3   0.208973 0.565357 0.659808 -0.597322
C204  C     C_3   0.208686 0.611760 0.661504 -0.361902
H170  H     H_    0.240350 0.625245 0.699764 0.163129
H171  H     H_    0.186081 0.623465 0.664151 0.170022
H172  H     H_    0.198380 0.624695 0.618914 0.196272
H173  H     H_    0.211891 0.071112 0.203202 0.157731
H174  H     H_    0.788107 0.071105 0.796846 0.157733
H175  H     H_    0.711891 0.571120 0.203272 0.157734
H176  H     H_    0.288105 0.571027 0.797405 0.157758
H177  H     H_    0.287400 0.012586 0.216582 0.192013
H178  H     H_    0.712600 0.012539 0.783426 0.192014
H179  H     H_    0.787400 0.512658 0.216595 0.192014
H180  H     H_    0.212605 0.511976 0.783516 0.192047
H181  H     H_    0.213954 0.959271 0.152915 0.177873
H182  H     H_    0.786046 0.959227 0.847055 0.177873
H183  H     H_    0.713954 0.459334 0.152873 0.177877
H184  H     H_    0.286045 0.458744 0.846718 0.177890

loop_
_geom_bond_atom_site_label_1
_geom_bond_atom_site_label_2
_ccdc_geom_bond_type
C119  C149  S    
C99   C103  A    
C202  H164  S    
C144  H4    S    
C55   C59   A    
C163  H19   S    
C15   C167  S    
C83   O41   A    
C11   C159  S    
C86   O70   S    
C204  H170  S    
C58   H86   S    
O54   C174  S    
C46   O22   A    
C11   H15   S    
C112  C124  A    
C26   C50   A    
C9    H13   S    
C184  H76   S    
C3    O19   A    
Cu8   O36   S    
C29   C33   A    
C100  C104  A    
C109  H133  S    
C187  H95   S    
C169  H26   S    
C8    C168  S    
C29   O57   S    
C54   C74   A    
C30   O58   S    
C31   O59   S    
C203  H167  S    
C44   H80   S    
C70   C74   A    
Cu2   O24   S    
C179  H61   S    
C141  C145  A    
C88   H24   S    
C2    C34   S    
Cu12  O48   S    
Cu1   O22   S    
C77   O30   A    
C96   O15   A    
C120  C158  S    
C12   H16   S    
C107  C124  S    
C41   C49   A    
C55   H83   S    
C27   C31   A    
O83   C203  S    
C175  H49   S    
C80   O38   A    
C164  C168  S    
C94   O12   A    
C127  C136  A    
C28   O56   S    
C178  H57   S    
C62   C66   A    
C149  H173  S    
C98   C102  A    
C17   C21   T    
C19   C23   T    
C89   O46   A    
C110  C123  A    
C121  H7    S    
C122  H8    S    
C186  H92   S    
C42   H78   S    
C68   C72   A    
C115  C118  A    
C195  H123  S    
C8    H40   S    
C57   H85   S    
Cu9   Cu10  S    
C129  C133  A    
C25   O53   S    
C142  H2    S    
C2    O18   A    
C172  H35   S    
C113  H137  S    
C49   C73   S    
C5    H37   S    
C177  H53   S    
Cu5   O38   S    
C204  H172  S    
C194  H121  S    
C47   O27   A    
C12   H180  S    
C181  H67   S    
C111  C124  A    
C95   O14   A    
C149  H9    S    
C80   O34   A    
C170  H29   S    
C190  H104  S    
C57   C61   A    
C68   O68   S    
O73   C193  S    
C59   C63   A    
C46   O26   A    
C78   C106  S    
C60   C64   A    
C128  C136  A    
C64   C94   S    
C152  H12   S    
Cu4   O27   S    
Cu5   O29   S    
C188  H98   S    
C66   C70   A    
C104  H132  S    
C203  H169  S    
C151  C167  S    
C27   C51   A    
C116  C118  A    
Cu7   Cu8   S    
C141  H1    S    
C88   C160  S    
C185  H89   S    
C93   O7    A    
C197  H146  S    
C193  H117  S    
C97   C107  A    
C61   C65   A    
C111  H135  S    
C162  O50   S    
C132  C134  A    
C20   C160  S    
O67   C187  S    
C196  H126  S    
Cu4   O20   S    
C161  C165  S    
C122  C152  S    
C191  H107  S    
C192  H111  S    
Cu9   O45   S    
C85   H21   S    
O65   C185  S    
C4    O20   A    
C90   O48   A    
C41   H77   S    
C189  H101  S    
O77   C197  S    
C87   H23   S    
C99   C108  A    
C140  H160  S    
C64   C68   A    
C128  H144  S    
C50   C74   S    
O49   C169  S    
Cu5   O41   S    
C180  H63   S    
C121  O83   S    
C194  H120  S    
C150  C166  S    
Cu9   O10   S    
Cu10  O14   S    
Cu12  O16   S    
O70   C190  S    
C79   O33   A    
C181  H66   S    
Cu3   O18   S    
C139  C143  A    
C87   C159  S    
C171  H31   S    
C81   O39   A    
C201  H161  S    
C14   C166  S    
C17   C157  S    
C110  C114  A    
C15   C155  T    
C8    C12   S    
C55   C75   A    
C44   C52   A    
C119  O81   S    
O53   C173  S    
C14   C154  T    
C174  H46   S    
Cu1   Cu3   S    
C103  H131  S    
C200  H154  S    
C6    H182  S    
Cu2   O3    S    
Cu3   O25   S    
C179  H60   S    
C21   C45   S    
Cu8   O32   S    
C139  C148  A    
C100  C108  A    
C23   C47   S    
O82   C202  S    
C30   C34   A    
C24   C48   S    
C149  C165  S    
O64   C184  S    
C188  H100  S    
C109  C123  A    
C48   O28   A    
C169  H27   S    
C88   C164  S    
C32   O60   S    
C121  C151  S    
O80   C200  S    
C182  H69   S    
C175  H48   S    
C200  H156  S    
C126  H142  S    
C161  H17   S    
C176  H50   S    
C125  C129  A    
C79   C153  S    
C3    C35   S    
C119  C157  S    
C132  O80   S    
C201  H163  S    
O76   C196  S    
C196  H128  S    
Cu6   O34   S    
C42   C50   A    
C191  H109  S    
C113  C117  A    
C186  H93   S    
Cu11  O7    S    
C26   C30   A    
C71   H115  S    
Cu9   O5    S    
C72   H116  S    
C84   O43   A    
C94   O8    A    
C112  C116  A    
C92   O6    A    
Cu1   O1    S    
Cu2   O23   S    
C190  H106  S    
C78   O31   A    
C82   O36   A    
C18   C22   T    
C1    O1    A    
C38   O62   S    
C89   C117  S    
C183  H71   S    
C52   C76   S    
C125  H141  S    
C81   C155  S    
C45   O25   A    
O50   C170  S    
C66   O66   S    
C171  H33   S    
Cu7   O43   S    
C139  H159  S    
C114  H138  S    
C151  H175  S    
C173  H42   S    
C37   C41   A    
C6    H38   S    
Cu11  O47   S    
C26   O54   S    
C114  C117  A    
C27   O55   S    
C40   C44   A    
O84   C204  S    
C203  H168  S    
O66   C186  S    
C11   H179  S    
C174  H44   S    
C173  H41   S    
C198  H149  S    
C187  H97   S    
C58   C62   A    
C143  C146  A    
Cu1   O21   S    
C6    C166  S    
C77   O29   A    
C96   O16   A    
C82   O40   A    
C188  H99   S    
C85   C161  S    
C95   C145  S    
C195  H125  S    
C131  C134  A    
C202  H165  S    
C104  C106  A    
O78   C198  S    
C150  H174  S    
O71   C191  S    
C59   H87   S    
C164  O52   S    
C84   C134  S    
C5    C9    S    
C85   C157  S    
C184  H74   S    
C90   C118  S    
C176  H52   S    
C10   H14   S    
Cu8   O39   S    
C126  C130  A    
C115  H139  S    
Cu7   O31   S    
C199  H151  S    
C102  C105  A    
C7    C167  S    
C152  C168  S    
C162  C166  S    
C173  H43   S    
C16   C156  T    
C37   O61   S    
C69   C73   A    
Cu12  O11   S    
C184  H75   S    
O62   C182  S    
C83   O42   A    
C88   O72   S    
C2    O2    A    
C172  H34   S    
C25   C29   A    
C142  C145  A    
C177  H54   S    
O81   C201  S    
C183  H73   S    
C152  H176  S    
C161  O49   S    
C91   O9    A    
C178  H58   S    
C204  H171  S    
C10   H178  S    
O59   C179  S    
C95   O13   A    
C79   O37   A    
C144  C146  A    
C138  C142  A    
C70   H114  S    
C53   C57   A    
C53   H81   S    
C185  H91   S    
C33   C37   A    
C98   C107  A    
C182  H68   S    
C177  H55   S    
C143  H3    S    
C35   C39   A    
O79   C199  S    
C119  H5    S    
C169  H25   S    
C18   C158  S    
C9    H177  S    
C43   H79   S    
C13   C165  S    
O55   C175  S    
C87   O71   S    
C28   C32   A    
C102  H130  S    
O60   C180  S    
C8    H184  S    
C67   O67   S    
C12   C160  S    
C185  H90   S    
C197  H147  S    
C13   C153  T    
C193  H118  S    
C22   C46   S    
C126  C135  A    
C1    O17   A    
C31   C35   A    
C130  C133  A    
C108  C123  S    
C127  H143  S    
Cu6   O37   S    
C32   C36   A    
C96   C146  S    
C191  H108  S    
C192  H110  S    
C48   O24   A    
C137  C141  A    
Cu11  O12   S    
C137  C147  A    
C140  C144  A    
C195  H124  S    
Cu12  O8    S    
C193  H119  S    
C6    C10   S    
C189  H102  S    
C80   C154  S    
C63   C93   S    
C120  C150  S    
C199  H153  S    
C19   C159  S    
C127  C131  A    
C77   C105  S    
Cu6   O30   S    
O63   C183  S    
C129  O77   S    
C180  H62   S    
Cu2   Cu4   S    
C43   C51   A    
C65   C69   A    
C65   O65   S    
C67   C71   A    
C60   H88   S    
C112  H136  S    
C25   C49   A    
C189  H103  S    
C92   O10   A    
Cu11  Cu12  S    
Cu3   O17   S    
C56   C60   A    
O52   C172  S    
C171  H32   S    
Cu7   O40   S    
C172  H36   S    
C201  H162  S    
C40   O64   S    
Cu10  O46   S    
C86   H22   S    
C194  H122  S    
C87   C163  S    
C56   C76   A    
C174  H45   S    
C45   O21   A    
O57   C177  S    
O75   C195  S    
C72   C76   A    
C170  H30   S    
O72   C192  S    
C140  C148  A    
C187  H96   S    
C1    C33   S    
Cu5   Cu6   S    
O68   C188  S    
C7    C11   S    
Cu4   O28   S    
O56   C176  S    
C51   C75   S    
C38   C42   A    
C7    H39   S    
Cu6   O42   S    
C122  O84   S    
C150  H10   S    
Cu10  O9    S    
Cu11  O15   S    
C120  O82   S    
Cu9   O13   S    
C200  H155  S    
C99   O75   S    
C197  H145  S    
C178  H56   S    
C62   C92   S    
C69   H113  S    
C86   C162  S    
C9    C157  S    
C196  H127  S    
Cu4   O19   S    
C109  C113  A    
C198  H150  S    
C82   C156  S    
C85   O69   S    
C90   O47   A    
C84   O44   A    
C7    H183  S    
C128  C132  A    
C5    H181  S    
C137  H157  S    
C190  H105  S    
C101  C105  A    
C202  H166  S    
C63   C67   A    
Cu7   O35   S    
C81   O35   A    
C20   C24   T    
C36   C40   A    
C4    C36   S    
C183  H72   S    
C39   O63   S    
C116  H140  S    
C180  H64   S    
C39   C43   A    
C47   O23   A    
C100  O76   S    
C162  H18   S    
C163  C167  S    
C181  H65   S    
C3    O3    A    
C97   O73   S    
C4    O4    A    
C138  C147  A    
C86   C158  S    
C125  C135  A    
C91   O5    A    
Cu5   O33   S    
C5    C165  S    
Cu10  O6    S    
C89   O45   A    
C56   H84   S    
C170  H28   S    
C93   O11   A    
Cu3   O26   S    
C179  H59   S    
O69   C189  S    
C54   C58   A    
C10   C158  S    
O58   C178  S    
C130  O78   S    
Cu8   O44   S    
C34   C38   A    
C131  O79   S    
C53   C73   A    
C120  H6    S    
C78   O32   A    
C182  H70   S    
C175  H47   S    
C192  H112  S    
O51   C171  S    
C101  H129  S    
C176  H51   S    
C98   O74   S    
C71   C75   A    
C28   C52   A    
C16   C168  S    
C151  H11   S    
C199  H152  S    
C103  C106  A    
C138  H158  S    
O61   C181  S    
C164  H20   S    
C83   C133  S    
C136  C147  S    
C198  H148  S    
Cu2   O4    S    
C186  H94   S    
C135  C148  S    
C121  C159  S    
C163  O51   S    
C54   H82   S    
C122  C160  S    
O74   C194  S    
C111  C115  A    
C110  H134  S    
C97   C101  A    
C61   C91   S    
Cu1   O2    S    
