data_mof_unit_26971.cif
_audit_creation_date              2012-12-10T17:05:18-0500
_audit_creation_method            fapswitch 2.2
_symmetry_space_group_name_H-M    P1
_symmetry_Int_Tables_number       1
_space_group_crystal_system       triclinic
_cell_length_a                    10.026602
_cell_length_b                    10.685279
_cell_length_c                    15.504788
_cell_angle_alpha                 90.145277
_cell_angle_beta                  67.665999
_cell_angle_gamma                 90.690873
_cell_volume                      1536.41039069

loop_
_atom_site_label
_atom_site_type_symbol
_atom_type_description
_atom_site_fract_x
_atom_site_fract_y
_atom_site_fract_z
_atom_type_partial_charge
C1    C     C_R   0.499696 0.737678 0.502243 0.918137
C2    C     C_R   0.739156 0.517375 0.028650 0.162039
C3    C     C_R   0.596194 0.552877 0.083994 0.092948
C4    C     C_R   0.409698 0.503144 0.676079 0.887313
C5    C     C_R   0.836641 0.487935 0.070684 -0.206354
C6    C     C_R   0.790959 0.486061 0.167531 -0.192452
C7    C     C_R   0.552904 0.549159 0.180752 -0.240667
C8    C     C_2   0.623997 0.067926 0.476258 -0.185753
C9    C     C_2   0.520475 0.134125 0.462549 -0.168469
C10   C     C_2   0.625142 0.933228 0.473362 -0.094222
C11   C     C_2   0.500209 0.870344 0.507207 -0.279949
C12   C     C_R   0.428373 0.557061 0.907682 0.099795
C13   C     C_2   0.106201 0.429757 0.445300 -0.124988
C14   C     C_2   0.954163 0.425407 0.448562 -0.136700
C15   C     C_R   0.503759 0.262616 0.492301 0.838466
C16   C     C_R   0.590335 0.502191 0.323976 0.878258
C17   C     C_R   0.355595 0.527306 0.776418 -0.173413
C18   C     C_R   0.647373 0.512972 0.222563 -0.056643
C19   C     C_R   0.190709 0.623798 0.917727 -0.318168
C20   C     C_R   0.224135 0.588207 0.824992 0.481341
C21   C     C_R   0.451728 0.506962 0.820188 -0.330587
C22   C     C_2   0.432981 0.087424 0.409358 0.396787
C23   C     C_R   0.292555 0.610196 0.958862 0.103474
C24   C     C_3   0.159529 0.726763 0.735431 0.121752
C25   C     C_3   0.061857 0.829654 0.794284 -0.372350
C26   C     C_3   0.085693 0.952154 0.739728 -0.954036
C27   C     C_R   0.535787 0.552441 0.946078 0.085790
C28   C     C_R   0.497184 0.580644 0.041567 0.064002
C29   C     C_R   0.360675 0.634196 0.091348 -0.220300
C30   C     C_R   0.261062 0.650232 0.049914 -0.207276
C31   C     C_R   0.681004 0.522859 0.891679 -0.233591
C32   C     C_R   0.781366 0.507644 0.932467 -0.221263
H1    H     H_    0.158237 0.692593 0.089778 0.153465
H2    H     H_    0.442689 0.567213 0.225237 0.161001
H3    H     H_    0.865928 0.459316 0.199154 0.157892
H4    H     H_    0.890769 0.482635 0.889008 0.195803
H5    H     H_    0.087377 0.666091 0.956318 0.157269
H6    H     H_    0.546636 0.452622 0.783767 0.178338
H7    H     H_    0.329777 0.668915 0.161563 0.154446
H8    H     H_    0.720862 0.513870 0.816793 0.157558
H9    H     H_    0.331430 0.131328 0.418588 0.067120
H10   H     H_    0.138276 0.715447 0.670526 0.173502
H11   H     H_    0.275176 0.756195 0.713070 0.100429
H12   H     H_    0.946362 0.461744 0.028829 0.149823
H13   H     H_    0.947159 0.799731 0.815804 0.238785
H14   H     H_    0.085079 0.845877 0.857989 0.220831
H15   H     H_    0.199409 0.984579 0.718622 0.261287
H16   H     H_    0.013998 0.025083 0.784149 0.274454
H17   H     H_    0.060308 0.939367 0.676452 0.259993
H18   H     H_    0.699944 0.111380 0.502228 0.160221
H19   H     H_    0.728514 0.886384 0.448230 0.162550
H20   H     H_    0.396889 0.916940 0.536667 0.136243
H21   H     H_    0.184441 0.369635 0.395284 0.156692
H22   H     H_    0.073731 0.551291 0.549550 0.158818
H23   H     H_    0.929461 0.357336 0.404586 0.157847
H24   H     H_    0.876586 0.567161 0.537483 0.163165
N1    N     N_2   0.148330 0.498670 0.499030 -0.187244
N2    N     N_2   0.852680 0.498640 0.499000 -0.189460
O1    O     O_R   0.386950 0.680940 0.500010 -0.616312
O2    O     O_3   0.126448 0.610868 0.783623 -0.657275
O3    O     O_R   0.613110 0.680900 0.499990 -0.617142
O4    O     O_R   0.322330 0.500030 0.632270 -0.577244
O5    O     O_R   0.548480 0.499990 0.632240 -0.614176
O6    O     O_R   0.386890 0.319100 0.500010 -0.623107
O7    O     O_R   0.613050 0.319060 0.499990 -0.602445
O8    O     O_R   0.451520 0.500010 0.367760 -0.612832
O9    O     O_R   0.677670 0.499970 0.367730 -0.609350
O10   O     O_2   0.476539 0.004065 0.351694 -0.550215
Zn1   Zn    Zn3+2 0.349000 0.500030 0.500020 0.948158
Zn2   Zn    Zn3+2 0.651000 0.499970 0.499980 0.938195

loop_
_geom_bond_atom_site_label_1
_geom_bond_atom_site_label_2
_ccdc_geom_bond_type
O3    Zn2   S    
C19   C23   A    
C15   O6    A    
C29   C30   A    
C4    O4    A    
C20   O2    S    
C24   H10   S    
C13   H21   S    
C19   C20   A    
C4    O5    A    
O5    Zn2   S    
C26   H16   S    
C24   O2    S    
C7    C18   A    
C22   O10   D    
O8    Zn1   S    
O9    Zn2   S    
C15   O7    A    
C14   H23   S    
C9    C15   S    
C16   O9    A    
O6    Zn1   S    
C24   C25   S    
C12   C23   A    
C29   H7    S    
C26   H15   S    
O1    Zn1   S    
C6    C18   A    
C4    C17   S    
C32   H4    S    
C8    C10   S    
C28   C29   A    
C25   C26   S    
C5    H12   S    
H24   N2    S    
C2    C3    A    
C8    H18   S    
C3    C7    A    
C1    O1    A    
C5    C6    A    
C14   N2    D    
C7    H2    S    
C9    C22   S    
C2    C5    A    
C16   O8    A    
C10   C11   D    
C10   H19   S    
C12   C27   A    
C27   C31   A    
O7    Zn2   S    
C22   H9    S    
C23   C30   A    
C25   H13   S    
C17   C20   A    
C13   N1    D    
C6    H3    S    
C25   H14   S    
C3    C28   A    
C2    C32   A    
C26   H17   S    
C27   C28   A    
C24   H11   S    
N2    Zn2   S    
C11   H20   S    
C19   H5    S    
C30   H1    S    
N1    Zn1   S    
C31   H8    S    
C13   C14   S    
C12   C21   A    
C16   C18   S    
C17   C21   A    
C21   H6    S    
C31   C32   A    
O4    Zn1   S    
C1    O3    A    
C8    C9    D    
H22   N1    S    
C1    C11   S    
