data_mof_unit_64800.cif
_audit_creation_date              2012-12-10T17:07:13-0500
_audit_creation_method            fapswitch 2.2
_symmetry_space_group_name_H-M    P1
_symmetry_Int_Tables_number       1
_space_group_crystal_system       triclinic
_cell_length_a                    10.036378
_cell_length_b                    10.737444
_cell_length_c                    13.626526
_cell_angle_alpha                 89.995233
_cell_angle_beta                  83.033678
_cell_angle_gamma                 89.808691
_cell_volume                      1457.61424711

loop_
_atom_site_label
_atom_site_type_symbol
_atom_type_description
_atom_site_fract_x
_atom_site_fract_y
_atom_site_fract_z
_atom_type_partial_charge
C1    C     C_R   0.500663 0.737114 0.495150 0.911312
C2    C     C_1   0.457797 0.499782 0.789490 -0.173070
C3    C     C_2   0.607893 0.066934 0.478355 -0.211651
C4    C     C_2   0.499968 0.130751 0.518823 0.299914
C5    C     C_2   0.613414 0.933254 0.484892 -0.131587
C6    C     C_2   0.502393 0.867785 0.478637 -0.244291
C7    C     C_2   0.083369 0.420287 0.450531 -0.118906
C8    C     C_2   0.934013 0.424302 0.446656 -0.126191
C9    C     C_R   0.476005 0.500017 0.685682 0.906170
C10   C     C_R   0.499692 0.262712 0.504020 0.791389
C11   C     C_R   0.523996 0.499944 0.314320 0.889662
C12   C     C_1   0.542206 0.499834 0.210518 -0.182018
C13   C     C_2   0.557875 0.499627 0.018838 -0.157846
C14   C     C_2   0.442130 0.499388 0.981173 -0.157757
C15   C     C_1   0.446002 0.499574 0.877291 0.015643
C16   C     C_1   0.554002 0.499728 0.122718 0.009733
H1    H     H_    0.345975 0.499184 0.027531 0.160239
H2    H     H_    0.889513 0.556604 0.548814 0.166009
H3    H     H_    0.654029 0.499872 0.972480 0.161257
H4    H     H_    0.694529 0.113434 0.439007 0.128766
H5    H     H_    0.708774 0.889568 0.494507 0.167281
H6    H     H_    0.410306 0.910996 0.460667 0.193243
H7    H     H_    0.140048 0.347660 0.408597 0.163410
H8    H     H_    0.096162 0.571098 0.535011 0.165026
H9    H     H_    0.892746 0.359041 0.397693 0.156659
N1    N     N_2   0.147970 0.498670 0.498970 -0.189079
N2    N     N_2   0.852310 0.498640 0.498940 -0.188556
O1    O     O_R   0.386960 0.680940 0.500020 -0.610884
O2    O     O_R   0.613100 0.680900 0.499980 -0.616020
O3    O     O_R   0.370650 0.500000 0.640370 -0.602791
O4    O     O_R   0.596800 0.499960 0.640330 -0.601811
O5    O     O_R   0.386900 0.319100 0.500020 -0.617305
O6    O     O_R   0.613040 0.319060 0.499980 -0.622633
O7    O     O_R   0.403200 0.500040 0.359670 -0.602583
O8    O     O_R   0.629350 0.500000 0.359630 -0.605183
Zn1   Zn    Zn3+2 0.349000 0.500030 0.500020 0.954478
Zn2   Zn    Zn3+2 0.651000 0.499970 0.499980 0.949671
O9    O     O_3   0.397022 0.073648 0.579484 -0.769924
H10   H     H_    0.332017 0.137881 0.607402 0.340223

loop_
_geom_bond_atom_site_label_1
_geom_bond_atom_site_label_2
_ccdc_geom_bond_type
C1    O1    A    
C11   C12   S    
C8    H9    S    
O3    Zn1   S    
C1    O2    A    
C7    C8    S    
C13   C14   D    
C2    C15   T    
C14   H1    S    
O9    H10   S    
C7    N1    D    
C9    O3    A    
N2    Zn2   S    
C7    H7    S    
O5    Zn1   S    
N1    Zn1   S    
O8    Zn2   S    
H8    N1    S    
C10   O6    A    
O7    Zn1   S    
O4    Zn2   S    
C5    C6    D    
C13   H3    S    
C4    C10   S    
C1    C6    S    
C6    H6    S    
C10   O5    A    
C3    H4    S    
C5    H5    S    
O1    Zn1   S    
C13   C16   S    
O2    Zn2   S    
C8    N2    D    
C9    O4    A    
C14   C15   S    
C12   C16   T    
C2    C9    S    
C11   O8    A    
C11   O7    A    
O6    Zn2   S    
H2    N2    S    
C3    C4    D    
C4    O9    S    
C3    C5    S    
