data_mof_unit_17471.cif
_audit_creation_date              2013-03-05T16:01:47-0500
_audit_creation_method            fapswitch 2.2
_symmetry_space_group_name_H-M    P1
_symmetry_Int_Tables_number       1
_space_group_crystal_system       triclinic
_cell_length_a                    14.995156
_cell_length_b                    14.03603
_cell_length_c                    11.542499
_cell_angle_alpha                 90.073226
_cell_angle_beta                  90.127582
_cell_angle_gamma                 89.594646
_cell_volume                      2429.30939716

loop_
_atom_site_label
_atom_site_type_symbol
_atom_site_description
_atom_site_fract_x
_atom_site_fract_y
_atom_site_fract_z
_atom_type_partial_charge
O1    O     O_R   0.367850 0.580280 0.500030 -0.628951
O2    O     O_R   0.632150 0.419720 0.499970 -0.629954
O3    O     O_R   0.632150 0.580280 0.499970 -0.617042
O4    O     O_R   0.367850 0.419720 0.500030 -0.617967
C1    C     C_R   0.327352 0.500358 0.500608 0.915963
C2    C     C_R   0.672646 0.499635 0.499353 0.916066
O5    O     O_R   0.500010 0.580270 0.334450 -0.612783
O6    O     O_R   0.499990 0.419730 0.665550 -0.611762
O7    O     O_R   0.499990 0.580270 0.665550 -0.620498
O8    O     O_R   0.500010 0.419730 0.334450 -0.619596
C3    C     C_R   0.500479 0.499956 0.281773 0.890763
C4    C     C_R   0.499522 0.500047 0.718227 0.890709
Zn1   Zn    Zn3+2 0.500000 0.607200 0.500000 0.941788
Zn2   Zn    Zn3+2 0.500000 0.392800 0.500000 0.941782
C5    C     C_1   0.500394 0.499891 0.161407 -0.187145
C6    C     C_1   0.499600 0.500124 0.838592 -0.187160
C7    C     C_1   0.500169 0.499955 0.059286 -0.005718
C8    C     C_1   0.499822 0.500074 0.940714 -0.005655
C9    C     C_R   0.812362 0.495293 0.392278 0.049467
C10   C     C_R   0.187629 0.504427 0.607685 0.049453
C11   C     C_R   0.767713 0.498354 0.499454 -0.099489
C12   C     C_R   0.232281 0.501593 0.500504 -0.099550
C13   C     C_R   0.812711 0.499891 0.606510 0.094486
C14   C     C_R   0.187284 0.500075 0.393445 0.094476
C15   C     C_R   0.906167 0.498764 0.606302 0.111022
C16   C     C_R   0.093825 0.501034 0.393651 0.111041
C17   C     C_R   0.952917 0.499297 0.499720 -0.000942
C18   C     C_R   0.047077 0.500436 0.500232 -0.000946
C19   C     C_R   0.906024 0.498685 0.392701 0.097035
C20   C     C_R   0.093968 0.501008 0.607253 0.097049
C21   C     C_R   0.954045 0.497302 0.710842 -0.208279
C22   C     C_R   0.045944 0.502421 0.289109 -0.208289
C23   C     C_R   0.045851 0.497917 0.711304 -0.215176
C24   C     C_R   0.954137 0.501737 0.288647 -0.215155
H1    H     H_    0.921609 0.495426 0.794369 0.157619
H2    H     H_    0.078377 0.504302 0.205580 0.157619
H3    H     H_    0.077603 0.495099 0.795240 0.157391
H4    H     H_    0.922378 0.504528 0.204713 0.157413
C25   C     C_R   0.557535 0.797233 0.430204 -0.027573
C26   C     C_R   0.440796 0.202773 0.567392 -0.027570
C27   C     C_R   0.442444 0.798233 0.569828 -0.031720
C28   C     C_R   0.559295 0.201758 0.432672 -0.031783
N1    N     N_R   0.500000 0.750030 0.500000 -0.110683
N2    N     N_R   0.500000 0.249970 0.500000 -0.110698
C29   C     C_R   0.441001 0.899291 0.573225 -0.021365
C30   C     C_R   0.562151 0.100696 0.431313 -0.021372
C31   C     C_R   0.559047 0.898232 0.426891 -0.021815
C32   C     C_R   0.437970 0.101791 0.568798 -0.021826
C33   C     C_R   0.500028 0.949492 0.500051 -0.017241
C34   C     C_R   0.500045 0.050510 0.500045 -0.017274
C35   C     C_R   0.381966 0.950599 0.647042 0.198404
C36   C     C_R   0.624858 0.049373 0.362800 0.198342
C37   C     C_R   0.618196 0.948427 0.353195 0.197361
C38   C     C_R   0.375329 0.051626 0.637452 0.197311
H5    H     H_    0.602768 0.754782 0.378587 0.144438
H6    H     H_    0.396884 0.245196 0.620922 0.144324
H7    H     H_    0.397132 0.756527 0.621389 0.147590
H8    H     H_    0.603281 0.243463 0.379196 0.147520
C39   C     C_3   0.759349 0.487799 0.278946 -0.411050
C40   C     C_3   0.742577 0.585863 0.225608 -0.856460
H9    H     H_    0.702172 0.630630 0.285285 0.265994
H10   H     H_    0.806338 0.622615 0.207673 0.257863
H11   H     H_    0.705366 0.577846 0.142918 0.249625
H12   H     H_    0.793080 0.439942 0.216030 0.197978
H13   H     H_    0.694130 0.452756 0.291843 0.201070
C41   C     C_3   0.240639 0.511668 0.721042 -0.410641
C42   C     C_3   0.257242 0.413490 0.774149 -0.856762
H14   H     H_    0.193420 0.376848 0.792061 0.258354
H15   H     H_    0.297514 0.368728 0.714324 0.265944
H16   H     H_    0.294517 0.421302 0.856817 0.249505
H17   H     H_    0.305922 0.546599 0.708250 0.200943
H18   H     H_    0.206975 0.559494 0.784051 0.197784
C43   C     C_3   0.761849 0.502449 0.720843 -0.890552
H19   H     H_    0.777733 0.437549 0.772050 0.235598
H20   H     H_    0.780818 0.566879 0.770875 0.237629
H21   H     H_    0.688519 0.505053 0.711557 0.235809
C44   C     C_3   0.238150 0.497701 0.279111 -0.890594
H22   H     H_    0.311485 0.495307 0.288396 0.235773
H23   H     H_    0.219335 0.433237 0.229044 0.237450
H24   H     H_    0.222108 0.562579 0.227941 0.235790
C45   C     C_3   0.329836 0.897522 0.738968 -0.934616
H25   H     H_    0.306285 0.944218 0.810167 0.256951
H26   H     H_    0.272227 0.860734 0.698735 0.241493
H27   H     H_    0.373538 0.844529 0.782919 0.234060
C46   C     C_3   0.700789 0.102281 0.305237 -0.934694
H28   H     H_    0.757990 0.055410 0.283090 0.256713
H29   H     H_    0.676242 0.139064 0.226151 0.241348
H30   H     H_    0.729511 0.155244 0.366051 0.234669
C47   C     C_3   0.670510 0.894249 0.261498 -0.933449
H31   H     H_    0.694630 0.940394 0.190591 0.257105
H32   H     H_    0.727756 0.856263 0.302051 0.242956
H33   H     H_    0.626764 0.842100 0.217122 0.235073
C48   C     C_3   0.299555 0.105928 0.695270 -0.933925
H34   H     H_    0.242502 0.060012 0.718156 0.256932
H35   H     H_    0.324381 0.142899 0.773943 0.242792
H36   H     H_    0.270540 0.158948 0.634354 0.236088

loop_
_geom_bond_atom_site_label_1
_geom_bond_atom_site_label_2
_geom_bond_distance
_ccdc_geom_bond_type
C15   C21   1.402812 A    
C16   C22   1.402848 A    
C48   H34   1.107382 S    
C17   C19   1.420064 A    
C27   N1    1.358562 A    
C43   H19   1.110654 S    
Zn2   N2    2.004768 S    
O3    C2    1.280761 A    
C28   H8    1.080231 S    
C45   H25   1.107387 S    
C31   C33   1.416590 A    
C10   C20   1.405627 A    
C46   H28   1.107442 S    
O5    C3    1.280111 A    
C39   H12   1.109055 S    
C40   H11   1.110509 S    
O1    C1    1.279412 A    
C22   H2    1.081247 S    
C10   C41   1.533072 S    
C36   C46   1.518535 S    
C9    C11   1.408401 A    
C14   C16   1.401398 A    
C44   H24   1.110664 S    
C29   C35   1.421614 A    
C30   C36   1.421535 A    
C40   H10   1.109615 S    
C28   C30   1.418922 A    
O7    Zn1   1.948362 S    
C38   C48   1.518943 S    
C3    C5    1.389316 S    
C41   H18   1.109040 S    
C1    C12   1.425591 S    
C4    C6    1.389317 S    
C26   H6    1.079455 S    
C21   C23   1.376723 A    
C47   H32   1.110234 S    
C35   C45   1.518506 S    
C26   N2    1.358234 A    
O3    Zn1   2.014685 S    
C31   C37   1.421400 A    
C46   H29   1.110115 S    
C41   C42   1.527516 S    
C39   C40   1.527560 S    
C48   H35   1.110180 S    
C43   H20   1.110762 S    
O2    C2    1.279315 A    
C28   N2    1.358551 A    
C13   C43   1.525959 S    
C45   H26   1.110159 S    
C44   H23   1.110770 S    
C25   H5    1.079459 S    
C42   H14   1.109615 S    
O8    Zn2   1.948363 S    
C25   N1    1.358262 A    
C9    C39   1.533100 S    
C44   H22   1.104928 S    
C2    C11   1.425541 S    
C19   C24   1.403319 A    
C23   H3    1.079198 S    
C40   H9    1.109840 S    
C42   H15   1.109791 S    
C22   C24   1.376749 A    
C32   C38   1.421303 A    
C41   H17   1.108203 S    
C29   C33   1.416677 A    
O6    C4    1.280141 A    
C7    C8    1.368630 S    
C47   H33   1.110309 S    
C10   C12   1.408392 A    
C48   H36   1.110351 S    
C11   C13   1.406818 A    
C37   C47   1.518914 S    
C43   H21   1.104917 S    
C12   C14   1.406834 A    
O1    Zn1   2.019939 S    
C9    C19   1.405620 A    
Zn1   N1    2.004766 S    
C45   H27   1.110246 S    
C36   C37   1.425260 A    
C25   C31   1.418522 A    
C46   H30   1.110268 S    
C5    C7    1.178729 T    
C26   C32   1.418447 A    
O6    Zn2   1.947414 S    
C20   C23   1.403334 A    
C24   H4    1.079216 S    
O4    C1    1.280686 A    
C15   C17   1.417343 A    
C30   C34   1.416645 A    
C16   C18   1.417340 A    
C35   C38   1.425243 A    
C42   H16   1.110486 S    
C18   C20   1.420064 A    
C27   H7    1.080219 S    
C39   H13   1.108219 S    
C32   C34   1.416554 A    
C21   H1    1.081249 S    
C13   C15   1.401371 A    
O4    Zn2   2.014686 S    
O2    Zn2   2.019937 S    
O7    C4    1.280444 A    
O8    C3    1.280475 A    
C14   C44   1.525948 S    
O5    Zn1   1.947415 S    
C6    C8    1.178730 T    
C33   C34   1.417901 A    
C17   C18   1.412147 A    
C27   C29   1.418953 A    
C47   H31   1.107318 S    
