data_mof_unit_59128.cif
_audit_creation_date              2012-12-11T17:44:01-0500
_audit_creation_method            fapswitch 2.2
_symmetry_space_group_name_H-M    P1
_symmetry_Int_Tables_number       1
_space_group_crystal_system       triclinic
_cell_length_a                    20.225849
_cell_length_b                    22.858732
_cell_length_c                    6.936844
_cell_angle_alpha                 89.863918
_cell_angle_beta                  86.91153
_cell_angle_gamma                 90.023185
_cell_volume                      3202.49367498

loop_
_atom_site_label
_atom_site_type_symbol
_atom_type_description
_atom_site_fract_x
_atom_site_fract_y
_atom_site_fract_z
_atom_type_partial_charge
O1    O     O_R   0.751270 0.447300 0.600030 -0.548702
O2    O     O_R   0.248730 0.947300 0.399970 -0.548763
O3    O     O_R   0.613530 0.440160 0.952150 -0.541956
O4    O     O_R   0.386470 0.940160 0.047850 -0.541261
O5    O     O_R   0.613050 0.552700 0.122560 -0.507776
O6    O     O_R   0.386950 0.052700 0.877440 -0.541320
C1    C     C_R   0.591803 0.425477 0.786814 0.690674
C2    C     C_R   0.408323 0.925696 0.213396 0.692361
O7    O     O_R   0.750780 0.440350 0.929820 -0.550813
O8    O     O_R   0.249220 0.940350 0.070180 -0.549268
O9    O     O_R   0.751280 0.552900 0.100070 -0.519894
O10   O     O_R   0.248720 0.052900 0.899930 -0.546792
C3    C     C_R   0.773958 0.426105 0.757541 0.673884
C4    C     C_R   0.226041 0.926117 0.242680 0.676272
O11   O     O_R   0.613040 0.447100 0.622520 -0.540595
O12   O     O_R   0.386960 0.947100 0.377480 -0.540798
O13   O     O_3   0.682160 0.536920 0.777780 -0.335923
O14   O     O_3   0.317840 0.036920 0.222220 -0.348138
V1    V     V_3+5 0.682160 0.493150 0.052630 1.481131
V2    V     V_3+5 0.317840 0.993150 0.947370 1.439496
O15   O     O_R   0.750790 0.559840 0.429870 -0.546918
O16   O     O_R   0.249210 0.059840 0.570130 -0.521175
C5    C     C_R   0.774355 0.573696 0.257503 0.754931
C6    C     C_R   0.225572 0.073629 0.742474 0.758918
O17   O     O_R   0.613540 0.559650 0.452200 -0.540306
O18   O     O_R   0.386460 0.059650 0.547800 -0.508887
C7    C     C_R   0.594655 0.577036 0.285260 0.803297
C8    C     C_R   0.405883 0.076667 0.713911 0.805134
V3    V     V_3+5 0.682160 0.506850 0.552630 1.476076
V4    V     V_3+5 0.317840 0.006850 0.447370 1.498284
O19   O     O_3   0.682150 0.463080 0.277610 -0.383781
O20   O     O_3   0.317850 0.963080 0.722390 -0.382438
C9    C     C_R   0.580208 0.865626 0.160084 -0.071385
C10   C     C_R   0.419457 0.366405 0.778099 -0.068518
H1    H     H_    0.536574 0.950686 0.145802 0.121981
H2    H     H_    0.462690 0.451294 0.804562 0.121833
H3    H     H_    0.629035 0.883258 0.124044 0.178203
H4    H     H_    0.370147 0.384883 0.779003 0.178227
C11   C     C_R   0.463505 0.884144 0.213129 -0.044752
C12   C     C_R   0.536773 0.383629 0.785931 -0.044630
C13   C     C_R   0.478844 0.601390 0.351439 -0.171410
C14   C     C_R   0.522909 0.097976 0.738123 -0.176225
C15   C     C_R   0.425870 0.639345 0.381115 0.419792
C16   C     C_R   0.576530 0.134202 0.766446 0.419251
C17   C     C_R   0.434931 0.699223 0.345597 -0.210062
C18   C     C_R   0.567257 0.194900 0.775257 -0.211131
C19   C     C_R   0.496621 0.722076 0.274415 -0.000692
C20   C     C_R   0.504636 0.220614 0.749945 -0.000394
C21   C     C_R   0.551069 0.682436 0.240358 -0.038272
C22   C     C_R   0.449669 0.182975 0.715718 -0.037015
C23   C     C_R   0.505455 0.783434 0.237928 0.030110
C24   C     C_R   0.495311 0.282746 0.759837 0.030742
C25   C     C_R   0.569924 0.805120 0.187942 0.037730
C26   C     C_R   0.430177 0.305775 0.756619 0.038355
C27   C     C_R   0.623381 0.766660 0.159245 0.308332
C28   C     C_R   0.376454 0.268960 0.724780 0.313269
C29   C     C_R   0.612713 0.705812 0.166951 0.233487
C30   C     C_R   0.387304 0.209215 0.685585 0.233877
C31   C     C_R   0.452303 0.824366 0.247375 -0.170514
C32   C     C_R   0.548511 0.323254 0.771194 -0.170857
C33   C     C_R   0.527516 0.904536 0.172013 -0.197229
C34   C     C_R   0.472200 0.404750 0.792637 -0.196657
C35   C     C_R   0.541284 0.621380 0.284563 -0.128518
C36   C     C_R   0.459651 0.120692 0.715338 -0.127320
H5    H     H_    0.401433 0.811309 0.273800 0.092932
H6    H     H_    0.599631 0.309793 0.762387 0.092218
H7    H     H_    0.471427 0.555417 0.385394 0.125659
H8    H     H_    0.530521 0.050998 0.738351 0.124672
H9    H     H_    0.393049 0.727020 0.379769 0.100761
H10   H     H_    0.609751 0.220772 0.807026 0.101219
C37   C     C_R   0.170868 0.882605 0.261018 -0.043716
C38   C     C_R   0.829091 0.382574 0.739506 -0.043572
C39   C     C_R   0.143614 0.858488 0.096168 -0.215512
C40   C     C_R   0.856605 0.358496 0.904369 -0.217333
C41   C     C_R   0.091225 0.818195 0.113715 -0.138199
C42   C     C_R   0.908943 0.318177 0.886805 -0.138540
C43   C     C_R   0.064609 0.800893 0.297689 0.429900
C44   C     C_R   0.935231 0.300810 0.702805 0.429724
C45   C     C_R   0.092000 0.824831 0.461364 -0.177990
C46   C     C_R   0.907570 0.324711 0.539167 -0.177747
C47   C     C_R   0.144286 0.865093 0.443878 -0.200653
C48   C     C_R   0.855364 0.364991 0.556662 -0.198511
C49   C     C_R   0.908147 0.682585 0.386621 -0.134084
C50   C     C_R   0.091184 0.182126 0.613342 -0.139169
C51   C     C_R   0.856084 0.641969 0.404126 -0.212191
C52   C     C_R   0.143167 0.141466 0.595754 -0.165452
C53   C     C_R   0.934790 0.699881 0.202667 0.426649
C54   C     C_R   0.065282 0.199865 0.797356 0.426469
N1    N     N_2   0.011069 0.760097 0.325871 -0.303531
N2    N     N_2   0.988668 0.259971 0.674484 -0.302380
N3    N     N_2   0.988236 0.740770 0.174517 -0.302120
N4    N     N_2   0.011941 0.240800 0.825702 -0.302167
C55   C     C_R   0.829229 0.617493 0.239256 -0.037142
C56   C     C_R   0.170711 0.117417 0.760594 -0.034797
H11   H     H_    0.837030 0.629633 0.547334 0.143343
H12   H     H_    0.161656 0.128781 0.452551 0.144787
H13   H     H_    0.927360 0.700173 0.517095 0.138730
H14   H     H_    0.071438 0.199387 0.482903 0.137110
H15   H     H_    0.072528 0.812257 0.603965 0.122132
H16   H     H_    0.926769 0.312092 0.396547 0.122030
H17   H     H_    0.163746 0.882594 0.574205 0.130248
H18   H     H_    0.835708 0.382443 0.426291 0.130241
C57   C     C_R   0.855734 0.635095 0.056422 -0.150035
C58   C     C_R   0.144950 0.135477 0.943443 -0.194467
C59   C     C_R   0.907660 0.675705 0.038970 -0.180929
C60   C     C_R   0.093075 0.176082 0.960973 -0.172997
H19   H     H_    0.836465 0.617411 0.926092 0.146752
H20   H     H_    0.164742 0.118142 0.073786 0.139690
H21   H     H_    0.071773 0.800832 0.983250 0.135662
H22   H     H_    0.928605 0.300836 0.017253 0.135721
H23   H     H_    0.927119 0.688305 0.896382 0.123129
H24   H     H_    0.074197 0.189009 0.103602 0.123933
H25   H     H_    0.162620 0.870845 0.952937 0.130845
H26   H     H_    0.837843 0.370906 0.047577 0.130255
O21   O     O_3   0.685309 0.789801 0.110313 -0.627607
H27   H     H_    0.719746 0.761880 0.148181 0.341414
O22   O     O_3   0.313995 0.293454 0.719355 -0.625918
H28   H     H_    0.280190 0.262840 0.747886 0.342975
O23   O     O_3   0.365902 0.616617 0.449998 -0.634971
H29   H     H_    0.333005 0.648693 0.463685 0.288575
O24   O     O_3   0.637387 0.108692 0.790428 -0.635395
H30   H     H_    0.670629 0.139796 0.808879 0.288765
Cl1   Cl    Cl    0.673730 0.662918 0.044240 -0.670332
Cl2   Cl    Cl    0.325769 0.173684 0.558617 -0.673638

loop_
_geom_bond_atom_site_label_1
_geom_bond_atom_site_label_2
_ccdc_geom_bond_type
C49   C53   A    
C12   C32   A    
C53   N3    S    
C38   C40   A    
O13   V3    S    
C4    C37   S    
O4    C2    A    
V1    O19   S    
C55   C57   A    
C58   C60   A    
C12   C34   A    
C13   H7    S    
C47   H17   S    
C44   N2    S    
O9    V1    S    
C40   C42   A    
C21   C35   A    
C22   C36   A    
C45   H15   S    
C42   C44   A    
O3    C1    A    
C44   C46   A    
O12   V4    S    
O21   H27   S    
C40   H26   S    
C16   O24   S    
C10   C34   A    
C39   H25   S    
O17   V3    S    
C28   O22   S    
C17   C19   A    
O7    C3    A    
C24   C32   A    
O5    C7    A    
C51   C55   A    
O7    V1    S    
O6    C8    A    
C54   N4    S    
O8    V2    S    
C1    C12   S    
O3    V1    S    
O14   V4    S    
C2    C11   S    
N1    N3    D    
C52   C56   A    
C25   C27   A    
C59   H23   S    
C32   H6    S    
C2    O12   A    
C46   H16   S    
C14   H8    S    
C13   C15   A    
C14   C16   A    
H2    C34   S    
C24   C26   A    
O11   V3    S    
C18   C20   A    
C43   C45   A    
C9    C25   A    
C60   H24   S    
C26   C28   A    
C41   H21   S    
C17   H9    S    
C22   C30   A    
C19   C21   A    
O8    C4    A    
C37   C39   A    
C19   C23   A    
C1    O11   A    
C16   C18   A    
O15   V3    S    
C9    H3    S    
C5    C55   S    
C23   C25   A    
C6    C56   S    
C29   Cl1   S    
C54   C60   A    
N2    N4    D    
C53   C59   A    
V3    O19   S    
C11   C31   A    
O10   V2    S    
O1    V3    S    
C48   H18   S    
C57   C59   A    
C20   C22   A    
C41   C43   A    
O24   H30   S    
C52   H12   S    
O5    V1    S    
C8    C36   S    
C46   C48   A    
C49   C51   A    
C10   C26   A    
O15   C5    A    
O16   C6    A    
O1    C3    A    
C39   C41   A    
C14   C36   A    
C58   H20   S    
C11   C33   A    
C45   C47   A    
V2    O20   S    
O16   V4    S    
C10   H4    S    
C30   Cl2   S    
C50   C54   A    
C50   C52   A    
C21   C29   A    
O23   H29   S    
O18   V4    S    
C43   N1    S    
C3    C38   S    
O17   C7    A    
O6    V2    S    
O10   C6    A    
O18   C8    A    
O2    V4    S    
C50   H14   S    
C27   C29   A    
C15   C17   A    
O22   H28   S    
C31   H5    S    
V4    O20   S    
C51   H11   S    
C27   O21   S    
H1    C33   S    
C9    C33   A    
O9    C5    A    
O13   V1    S    
C28   C30   A    
O14   V2    S    
O2    C4    A    
C18   H10   S    
C56   C58   A    
O4    V2    S    
C20   C24   A    
C23   C31   A    
C42   H22   S    
C49   H13   S    
C13   C35   A    
C7    C35   S    
C57   H19   S    
C38   C48   A    
C15   O23   S    
C37   C47   A    
