data_mof_unit_32175.cif
_audit_creation_date              2012-12-10T20:40:01-0500
_audit_creation_method            fapswitch 2.2
_symmetry_space_group_name_H-M    P1
_symmetry_Int_Tables_number       1
_space_group_crystal_system       triclinic
_cell_length_a                    23.433868
_cell_length_b                    10.681366
_cell_length_c                    9.850502
_cell_angle_alpha                 89.648923
_cell_angle_beta                  90.025406
_cell_angle_gamma                 90.109326
_cell_volume                      2465.58599936

loop_
_atom_site_label
_atom_site_type_symbol
_atom_type_description
_atom_site_fract_x
_atom_site_fract_y
_atom_site_fract_z
_atom_type_partial_charge
C1    C     C_R   0.501922 0.259806 0.500251 0.889071
C2    C     C_R   0.119375 0.613764 0.531554 0.504166
C3    C     C_R   0.237763 0.503719 0.376894 -0.098657
C4    C     C_R   0.389279 0.500658 0.500020 0.876876
C5    C     C_R   0.296975 0.502395 0.376694 -0.215031
C6    C     C_R   0.327022 0.503032 0.500033 -0.041421
C7    C     C_R   0.297073 0.506731 0.623380 -0.220513
C8    C     C_R   0.237853 0.508246 0.623230 -0.099347
C9    C     C_R   0.208315 0.506295 0.500080 0.321306
C10   C     C_R   0.762156 0.498457 0.376955 -0.098275
C11   C     C_R   0.702933 0.497560 0.376719 -0.214589
C12   C     C_R   0.970488 0.284593 0.436287 -0.157328
C13   C     C_R   0.672952 0.500876 0.500039 -0.039015
C14   C     C_R   0.702937 0.505171 0.623388 -0.213990
C15   C     C_R   0.762160 0.506200 0.623212 -0.098361
C16   C     C_R   0.502084 0.740061 0.499609 0.887674
C17   C     C_R   0.791658 0.502807 0.500098 0.319364
C18   C     C_R   0.514787 0.062736 0.622481 0.145602
C19   C     C_R   0.511689 0.128456 0.500229 -0.107193
C20   C     C_R   0.520258 0.065515 0.377180 -0.214321
C21   C     C_R   0.520405 0.936038 0.376724 -0.214296
C22   C     C_R   0.511991 0.871236 0.499309 -0.107703
C23   C     C_R   0.029883 0.285116 0.436253 -0.157371
C24   C     C_R   0.514918 0.934948 0.621927 0.137842
C25   C     C_3   0.477538 0.925855 0.744428 -0.462990
C26   C     C_3   0.477297 0.067619 0.745013 -0.499298
C27   C     C_R   0.450911 0.476360 0.071507 0.217949
C28   C     C_R   0.610712 0.500190 0.499991 0.873609
C29   C     C_R   0.547150 0.534828 0.071763 -0.137418
C30   C     C_R   0.547165 0.534749 0.927788 -0.134140
C31   C     C_R   0.450810 0.477016 0.928841 0.216913
C32   C     C_3   0.415762 0.360637 0.923914 -0.511514
C33   C     C_3   0.416271 0.359388 0.077936 -0.496188
C34   C     C_R   0.059962 0.394877 0.467989 -0.015445
C35   C     C_R   0.880437 0.611716 0.531471 0.503915
C36   C     C_R   0.880642 0.395603 0.468848 0.504402
C37   C     C_R   0.940217 0.393828 0.468036 -0.015820
C38   C     C_R   0.970021 0.504458 0.500166 -0.021303
C39   C     C_R   0.940017 0.614556 0.532302 -0.015547
C40   C     C_R   0.029971 0.504980 0.500161 -0.021317
C41   C     C_R   0.059787 0.615591 0.532336 -0.015662
C42   C     C_R   0.029510 0.724822 0.564095 -0.157478
C43   C     C_R   0.970105 0.724312 0.564065 -0.157202
C44   C     C_R   0.119530 0.397698 0.468747 0.503745
H1    H     H_    0.948435 0.198515 0.411402 0.194855
H2    H     H_    0.585484 0.561159 0.125674 0.149960
H3    H     H_    0.052085 0.199427 0.411343 0.194843
H4    H     H_    0.585511 0.560976 0.873603 0.149982
H5    H     H_    0.372698 0.377435 0.880449 0.200487
H6    H     H_    0.439260 0.281375 0.878839 0.214235
H7    H     H_    0.373439 0.375125 0.122748 0.200730
H8    H     H_    0.440277 0.279193 0.122168 0.215555
H9    H     H_    0.051566 0.810887 0.589010 0.194689
H10   H     H_    0.947899 0.810000 0.588960 0.194880
H11   H     H_    0.214662 0.502773 0.281658 0.139097
H12   H     H_    0.680757 0.494207 0.280321 0.155563
H13   H     H_    0.319068 0.501033 0.280306 0.153647
H14   H     H_    0.319254 0.508657 0.719721 0.154377
H15   H     H_    0.214825 0.510383 0.718481 0.139525
H16   H     H_    0.785224 0.495989 0.281769 0.139989
H17   H     H_    0.680763 0.507839 0.719762 0.154889
H18   H     H_    0.785230 0.509305 0.718423 0.139991
H19   H     H_    0.522549 0.115044 0.281019 0.171498
H20   H     H_    0.522747 0.887908 0.280401 0.173341
H21   H     H_    0.435023 0.884291 0.722076 0.210420
H22   H     H_    0.500208 0.884217 0.832954 0.206786
H23   H     H_    0.434596 0.108154 0.722756 0.207295
H24   H     H_    0.499902 0.107492 0.834109 0.205285
N1    N     N_R   0.852338 0.503408 0.500136 -0.360492
N2    N     N_R   0.147645 0.505968 0.500110 -0.360650
N3    N     N_R   0.499610 0.499140 0.142800 -0.108897
N4    N     N_R   0.499610 0.499180 0.857150 -0.107893
O1    O     O_R   0.500010 0.316790 0.614690 -0.613843
O2    O     O_R   0.583850 0.500060 0.614640 -0.628296
O3    O     O_R   0.583840 0.500020 0.385300 -0.629034
O4    O     O_2   0.850667 0.716164 0.560851 -0.548903
O5    O     O_2   0.851074 0.290607 0.439493 -0.548049
O6    O     O_2   0.149282 0.293251 0.439240 -0.549449
O7    O     O_2   0.148978 0.718653 0.561118 -0.549064
O8    O     O_R   0.500000 0.316760 0.385350 -0.622367
O9    O     O_R   0.416160 0.499980 0.614700 -0.621550
O10   O     O_R   0.416150 0.499940 0.385360 -0.618402
O11   O     O_R   0.500000 0.683240 0.614650 -0.616518
O12   O     O_R   0.499990 0.683210 0.385310 -0.620440
Zn1   Zn    Zn3+2 0.500000 0.500020 0.653130 0.949053
Zn2   Zn    Zn3+2 0.500000 0.499980 0.346870 0.949180

loop_
_geom_bond_atom_site_label_1
_geom_bond_atom_site_label_2
_ccdc_geom_bond_type
C17   N1    S    
C41   C42   A    
C10   H16   S    
C19   C20   A    
C18   C26   S    
C28   O2    A    
N4    Zn1   S    
C7    C8    A    
C27   C33   S    
C33   H8    S    
C12   C23   A    
C37   C38   A    
C34   C40   A    
C26   H23   S    
C30   H4    S    
C36   C37   A    
O12   Zn2   S    
C36   O5    S    
C42   H9    S    
C5    C6    A    
C10   C17   A    
C16   O12   A    
C18   C19   A    
C12   C37   A    
C21   H20   S    
O8    Zn2   S    
C2    O7    S    
C43   H10   S    
C3    H11   S    
C4    O9    A    
C8    C9    A    
C13   C28   S    
C44   N2    A    
C18   C24   A    
C7    H14   S    
C21   C22   A    
C35   O4    S    
C1    C19   S    
C23   H3    S    
C27   C31   A    
C25   H21   S    
C9    N2    S    
C4    C6    S    
C39   C43   A    
C25   C26   S    
O10   Zn2   S    
C14   H17   S    
C16   O11   A    
C35   C39   A    
C29   C30   A    
C3    C9    A    
N3    Zn2   S    
O3    Zn2   S    
C31   C32   S    
C23   C34   A    
O1    Zn1   S    
C34   C44   A    
C24   C25   S    
C32   H6    S    
C40   C41   A    
O11   Zn1   S    
C22   C24   A    
C42   C43   A    
C27   N3    A    
C36   N1    A    
C15   C17   A    
C31   N4    A    
C16   C22   S    
C25   H22   S    
C12   H1    S    
C3    C5    A    
C30   N4    A    
C6    C7    A    
C33   H7    S    
C5    H13   S    
C29   H2    S    
C1    O1    A    
C32   C33   S    
C20   H19   S    
C44   O6    S    
C26   H24   S    
C8    H15   S    
C2    N2    A    
C38   C40   A    
C11   C13   A    
C38   C39   A    
C15   H18   S    
O2    Zn1   S    
C32   H5    S    
C10   C11   A    
C4    O10   A    
C20   C21   A    
C35   N1    A    
C1    O8    A    
C14   C15   A    
C2    C41   A    
C13   C14   A    
C28   O3    A    
O9    Zn1   S    
C11   H12   S    
C29   N3    A    
