data_mof_unit_45358.cif
_audit_creation_date              2012-10-26T20:58:18-0400
_audit_creation_method            fapswitch 2.2
_symmetry_space_group_name_H-M    P1
_symmetry_Int_Tables_number       1
_space_group_crystal_system       triclinic
_cell_length_a                    10.603134
_cell_length_b                    14.809369
_cell_length_c                    14.779557
_cell_angle_alpha                 64.453401
_cell_angle_beta                  104.598186
_cell_angle_gamma                 102.121604
_cell_volume                      2012.60031612

loop_
_atom_site_label
_atom_site_type_symbol
_atom_type_description
_atom_site_fract_x
_atom_site_fract_y
_atom_site_fract_z
_atom_type_partial_charge
Br1   Br    Br    0.896060 0.212715 0.328918 -0.304084
Br2   Br    Br    0.103940 0.787285 0.671082 -0.304084
Br3   Br    Br    0.036063 0.028909 0.275191 -0.406890
Br4   Br    Br    0.963938 0.971091 0.724809 -0.406890
C1    C     C_R   0.477758 0.119679 0.312220 0.570834
C2    C     C_R   0.482557 0.533834 0.948373 -0.037749
C3    C     C_R   0.416357 0.493620 0.874345 0.239359
C4    C     C_R   0.583644 0.506380 0.125654 0.239359
C5    C     C_R   0.413365 0.390997 0.897186 0.253580
C6    C     C_R   0.586635 0.609003 0.102814 0.253580
C7    C     C_R   0.697760 0.270958 0.684163 -0.129670
C8    C     C_R   0.302240 0.729042 0.315837 -0.129670
C9    C     C_R   0.677502 0.197472 0.645470 0.042734
C10   C     C_R   0.322498 0.802528 0.354530 0.042734
C11   C     C_R   0.518296 0.287541 0.506518 0.379719
C12   C     C_R   0.522242 0.880321 0.687780 0.570835
C13   C     C_R   0.481704 0.712459 0.493481 0.379718
C14   C     C_R   0.549150 0.371349 0.534780 0.043910
C15   C     C_R   0.450850 0.628651 0.465220 0.043910
C16   C     C_R   0.260116 0.000544 0.500042 0.604789
C17   C     C_R   0.739884 0.999456 0.499958 0.604789
C18   C     C_R   0.629825 0.355925 0.631195 0.019553
C19   C     C_R   0.370175 0.644074 0.368805 0.019553
C20   C     C_R   0.495389 0.465797 0.476641 0.052949
C21   C     C_R   0.504611 0.534203 0.523359 0.052949
C22   C     C_R   0.562369 0.503683 0.627473 -0.026283
C23   C     C_R   0.480901 0.291596 0.177004 -0.035999
C24   C     C_R   0.437631 0.496317 0.372527 -0.026283
C25   C     C_R   0.632989 0.421009 0.677529 -0.064839
C26   C     C_R   0.367011 0.578991 0.322471 -0.064839
C27   C     C_3   0.013327 0.011778 0.407977 0.138380
C28   C     C_3   0.986673 0.988222 0.592023 0.138380
C29   C     C_3   0.958787 0.087107 0.430058 0.152571
C30   C     C_3   0.041213 0.912893 0.569942 0.152571
C31   C     C_3   0.876275 0.998776 0.499637 -0.019854
C32   C     C_3   0.123724 0.001224 0.500363 -0.019855
C33   C     C_3   0.929116 0.922654 0.477316 -0.109944
C34   C     C_R   0.519099 0.708404 0.822996 -0.035999
C35   C     C_3   0.070884 0.077346 0.522683 -0.109944
C36   C     C_R   0.467707 0.187828 0.203934 0.026436
C37   C     C_R   0.532293 0.812172 0.796066 0.026436
C38   C     C_R   0.434973 0.218850 0.025677 -0.076010
C39   C     C_R   0.565027 0.781150 0.974323 -0.076010
C40   C     C_R   0.447989 0.151653 0.127739 -0.112095
C41   C     C_R   0.552011 0.848347 0.872261 -0.112096
C42   C     C_R   0.486217 0.360849 0.076642 0.009066
C43   C     C_R   0.513783 0.639151 0.923358 0.009066
C44   C     C_R   0.448384 0.323718 0.998761 0.024006
C45   C     C_R   0.551616 0.676282 0.001239 0.024006
C46   C     C_R   0.517443 0.466166 0.051627 -0.037749
Cl1   Cl    Cl    0.628812 0.723428 0.578595 -0.580484
Cl2   Cl    Cl    0.371188 0.276572 0.421405 -0.580484
Cl3   Cl    Cl    0.349003 0.346232 0.799144 -0.537809
Cl4   Cl    Cl    0.650997 0.653768 0.200856 -0.537809
Cl5   Cl    Cl    0.311406 0.562897 0.760893 -0.476333
Cl6   Cl    Cl    0.688594 0.437103 0.239107 -0.476332
Cu1   Cu    Cu3+1 0.465750 0.918270 0.475680 1.096930
Cu2   Cu    Cu3+1 0.534250 0.081730 0.524320 1.096930
H1    H     H_    0.272281 0.869245 0.312634 0.163222
H2    H     H_    0.480885 0.318016 0.234499 0.203545
H3    H     H_    0.562044 0.928447 0.853428 0.144499
H4    H     H_    0.437955 0.071553 0.146572 0.144499
H5    H     H_    0.411937 0.187663 0.968595 0.184714
H6    H     H_    0.588062 0.812337 0.031405 0.184714
H7    H     H_    0.683672 0.404402 0.755471 0.146829
H8    H     H_    0.316327 0.595597 0.244529 0.146829
H9    H     H_    0.727719 0.130755 0.687366 0.163222
H10   H     H_    0.762873 0.259905 0.756648 0.141957
H11   H     H_    0.237127 0.740095 0.243352 0.141957
H12   H     H_    0.552006 0.541710 0.672630 0.193736
H13   H     H_    0.447994 0.458290 0.327370 0.193736
H14   H     H_    0.869581 0.859578 0.458750 0.209867
H15   H     H_    0.130419 0.140422 0.541250 0.209867
H16   H     H_    0.519116 0.681984 0.765501 0.203545
N1    N     N_R   0.585750 0.204560 0.560800 -0.223310
N2    N     N_R   0.414250 0.795440 0.439200 -0.223310
O1    O     O_R   0.454850 0.022100 0.338110 -0.526262
O2    O     O_R   0.545150 0.977900 0.661890 -0.526261
O3    O     O_R   0.512700 0.160150 0.379180 -0.445784
O4    O     O_R   0.487300 0.839850 0.620820 -0.445784
O5    O     O_R   0.287930 0.931000 0.479440 -0.472601
O6    O     O_R   0.712070 0.069000 0.520560 -0.472602
O7    O     O_R   0.345780 0.069050 0.520520 -0.457180
O8    O     O_R   0.654220 0.930950 0.479480 -0.457180

loop_
_geom_bond_atom_site_label_1
_geom_bond_atom_site_label_2
_ccdc_geom_bond_type
C11   C14   A    
C11   N1    A    
C8    H11   S    
C18   C25   A    
Br4   C28   S    
C30   C33   S    
C3    Cl5   S    
C13   Cl1   S    
Br1   C29   S    
C43   C45   A    
C10   H1    S    
C8    C19   A    
C29   C35   S    
C14   C20   A    
Cu1   N2    S    
C31   C33   S    
C23   H2    S    
Cu2   O6    S    
C34   H16   S    
C28   C35   S    
C29   C31   S    
C9    N1    A    
Cu2   N1    S    
C13   N2    A    
C27   C29   S    
C1    O3    A    
C12   O2    A    
Br2   C30   S    
C16   O5    A    
Cu1   O4    S    
C4    Cl6   S    
C38   C40   A    
C6    Cl4   S    
C39   H6    S    
C42   C44   A    
C2    C43   A    
C28   C31   S    
Cu1   O1    S    
C20   C21   A    
C34   C37   A    
C39   C45   A    
C40   H4    S    
C21   C22   A    
C27   C33   S    
C12   O4    A    
C28   C30   S    
C15   C19   A    
C19   C26   A    
C17   O8    A    
C23   C36   A    
Cu1   O8    S    
C38   C44   A    
C11   Cl2   S    
C2    C46   A    
Br3   C27   S    
C39   C41   A    
C34   C43   A    
C26   H8    S    
Cu2   O3    S    
C5    C44   A    
C25   H7    S    
C23   C42   A    
C8    C10   A    
C22   H12   S    
Cu1   O5    S    
C33   H14   S    
C24   H13   S    
C5    Cl3   S    
C1    O1    A    
C4    C46   A    
C7    H10   S    
C9    H9    S    
C3    C5    A    
C14   C18   A    
C32   C35   S    
C20   C24   A    
C2    C3    A    
C17   C31   S    
C42   C46   A    
C7    C18   A    
C24   C26   A    
Cu2   O7    S    
C7    C9    A    
Cu1   Cu2   S    
C38   H5    S    
C41   H3    S    
C13   C15   A    
C30   C32   S    
C35   H15   S    
C15   C21   A    
Cu2   O2    S    
C16   C32   S    
C36   C40   A    
C17   O6    A    
C22   C25   A    
C4    C6    A    
C16   O7    A    
C37   C41   A    
C27   C32   S    
C1    C36   S    
C6    C45   A    
C12   C37   S    
C10   N2    A    
