data_mof_unit_61750.cif
_audit_creation_date              2012-12-10T17:57:01-0500
_audit_creation_method            fapswitch 2.2
_symmetry_space_group_name_H-M    P1
_symmetry_Int_Tables_number       1
_space_group_crystal_system       triclinic
_cell_length_a                    18.30436
_cell_length_b                    18.391369
_cell_length_c                    25.892738
_cell_angle_alpha                 89.997517
_cell_angle_beta                  89.999701
_cell_angle_gamma                 89.983707
_cell_volume                      8716.58893521

loop_
_atom_site_label
_atom_site_type_symbol
_atom_type_description
_atom_site_fract_x
_atom_site_fract_y
_atom_site_fract_z
_atom_type_partial_charge
C1    C     C_R   0.858957 0.139359 0.250451 0.826436
C2    C     C_R   0.755094 0.797805 0.791050 -0.172537
C3    C     C_R   0.493043 0.500165 0.053965 -0.071419
C4    C     C_R   0.042173 0.956443 0.473293 -0.185886
C5    C     C_R   0.042177 0.956445 0.526710 -0.188089
C6    C     C_R   0.541896 0.456234 0.973293 -0.192825
C7    C     C_R   0.541898 0.456239 0.026707 -0.192575
C8    C     C_R   0.754858 0.798051 0.209075 -0.157143
C9    C     C_R   0.243988 0.796887 0.791550 -0.173302
C10   C     C_R   0.744015 0.296919 0.708463 -0.172781
C11   C     C_R   0.235371 0.317354 0.271384 -0.174342
C12   C     C_R   0.254877 0.298025 0.709055 -0.171672
C13   C     C_R   0.764560 0.317280 0.271483 -0.176642
C14   C     C_R   0.797334 0.243352 0.709156 -0.241390
C15   C     C_R   0.182655 0.263228 0.271269 -0.235160
C16   C     C_R   0.201560 0.244500 0.709771 -0.232693
C17   C     C_R   0.139745 0.140657 0.750860 0.837085
C18   C     C_R   0.817273 0.263137 0.271391 -0.241414
C19   C     C_R   0.297505 0.743530 0.209245 -0.237422
C20   C     C_R   0.701774 0.744278 0.790335 -0.233469
C21   C     C_R   0.701550 0.744514 0.209786 -0.229515
C22   C     C_R   0.297306 0.743319 0.790856 -0.241400
C23   C     C_R   0.804471 0.197353 0.752112 -0.090612
C24   C     C_R   0.198643 0.194301 0.250926 -0.096492
C25   C     C_R   0.195480 0.197431 0.752230 -0.096285
C26   C     C_R   0.801295 0.194222 0.251040 -0.096078
C27   C     C_R   0.304483 0.697369 0.252128 -0.093276
C28   C     C_R   0.141019 0.139396 0.250412 0.834331
C29   C     C_R   0.695471 0.697437 0.747776 -0.096811
C30   C     C_R   0.695462 0.697452 0.252240 -0.098543
C31   C     C_R   0.304472 0.697353 0.747887 -0.091593
C32   C     C_R   0.757805 0.206538 0.795188 0.395099
C33   C     C_R   0.269328 0.179722 0.231331 0.394198
C34   C     C_R   0.243164 0.205639 0.794868 0.394467
C35   C     C_R   0.730597 0.179625 0.231501 0.393134
C36   C     C_R   0.257677 0.706420 0.295145 0.395310
C37   C     C_R   0.742925 0.705870 0.705041 0.394860
C38   C     C_R   0.743115 0.705687 0.294886 0.394682
C39   C     C_R   0.860242 0.140628 0.750824 0.830303
C40   C     C_R   0.257839 0.706575 0.704798 0.395461
C41   C     C_R   0.203841 0.759479 0.293661 -0.214174
C42   C     C_R   0.796732 0.758933 0.706545 -0.212092
C43   C     C_R   0.796905 0.758761 0.293381 -0.211932
C44   C     C_R   0.203988 0.759624 0.706282 -0.214611
C45   C     C_R   0.703956 0.259588 0.793704 -0.216362
C46   C     C_R   0.321261 0.234636 0.230979 -0.211289
C47   C     C_R   0.296960 0.258707 0.793359 -0.213768
C48   C     C_R   0.678663 0.234559 0.231121 -0.214212
C49   C     C_R   0.196774 0.804693 0.250555 -0.061844
C50   C     C_R   0.360243 0.640628 0.749176 0.830642
C51   C     C_R   0.803182 0.804746 0.749378 -0.062781
C52   C     C_R   0.803156 0.804777 0.250642 -0.064424
C53   C     C_R   0.196748 0.804663 0.749463 -0.060403
C54   C     C_R   0.696746 0.304661 0.750536 -0.059977
C55   C     C_R   0.304564 0.303381 0.250752 -0.063763
C56   C     C_R   0.303185 0.304745 0.750623 -0.062663
C57   C     C_R   0.695384 0.303327 0.250830 -0.064224
C58   C     C_R   0.066368 0.999974 0.026737 -0.177492
C59   C     C_R   0.933634 0.000239 0.973252 -0.164001
C60   C     C_R   0.933634 0.000210 0.026737 -0.176550
C61   C     C_R   0.639742 0.640661 0.250861 0.837403
C62   C     C_R   0.066369 0.000003 0.973251 -0.165560
C63   C     C_R   0.566369 0.500184 0.526743 -0.160602
C64   C     C_R   0.433633 0.500446 0.473258 -0.156843
C65   C     C_R   0.433633 0.500444 0.526744 -0.158856
C66   C     C_R   0.566369 0.500186 0.473257 -0.158663
C67   C     C_R   0.000001 0.000088 0.946276 -0.008061
C68   C     C_R   0.000001 0.000047 0.053715 -0.003364
C69   C     C_R   0.500001 0.500224 0.446280 -0.013779
C70   C     C_R   0.500001 0.500220 0.553720 -0.013128
C71   C     C_R   0.140173 0.860033 0.249946 0.814418
C72   C     C_R   0.639741 0.640659 0.749140 0.837192
C73   C     C_R   0.859811 0.860046 0.750036 0.806914
C74   C     C_R   0.859802 0.860057 0.249973 0.814956
C75   C     C_R   0.140164 0.860022 0.750062 0.806260
C76   C     C_R   0.640163 0.360021 0.749938 0.805889
C77   C     C_R   0.359892 0.359968 0.250115 0.806813
C78   C     C_R   0.359812 0.360046 0.749965 0.806833
C79   C     C_R   0.640092 0.359956 0.250132 0.806607
C80   C     C_R   0.000000 0.999981 0.109819 0.781805
C81   C     C_R   0.000000 0.000009 0.890178 0.798236
C82   C     C_R   0.500000 0.500037 0.609821 0.802765
C83   C     C_R   0.360243 0.640631 0.250826 0.830850
C84   C     C_R   0.500000 0.500040 0.390180 0.806125
C85   C     C_R   0.998308 0.000076 0.389943 0.786262
C86   C     C_R   0.998320 0.000080 0.610059 0.781145
C87   C     C_R   0.498280 0.500080 0.889941 0.779707
C88   C     C_R   0.498281 0.500084 0.110058 0.778804
C89   C     C_R   0.885527 0.081878 0.446133 -0.162638
C90   C     C_R   0.885590 0.081957 0.553883 -0.167680
C91   C     C_R   0.385866 0.582448 0.946119 -0.169004
C92   C     C_R   0.385892 0.582482 0.053867 -0.169086
C93   C     C_R   0.833279 0.121760 0.473171 -0.123071
C94   C     C_R   0.244199 0.797106 0.208556 -0.158584
C95   C     C_R   0.833321 0.121813 0.526851 -0.133111
C96   C     C_R   0.333842 0.622616 0.973151 -0.132029
C97   C     C_R   0.333858 0.622637 0.026831 -0.132451
C98   C     C_R   0.940169 0.042184 0.527394 0.099778
C99   C     C_R   0.940149 0.042162 0.472616 0.095717
C100  C     C_R   0.440292 0.542455 0.027386 0.099010
C101  C     C_R   0.440284 0.542443 0.972606 0.098685
C102  C     C_R   0.993100 0.000133 0.446036 -0.073517
C103  C     C_R   0.993116 0.000147 0.553968 -0.072145
C104  C     C_R   0.493037 0.500154 0.946032 -0.071616
Cl1   Cl    Cl    0.765729 0.156261 0.852997 -0.581931
Cl2   Cl    Cl    0.297781 0.093611 0.208893 -0.563974
Cl3   Cl    Cl    0.236793 0.154031 0.852193 -0.578246
Cl4   Cl    Cl    0.702144 0.093471 0.209170 -0.566762
Cl5   Cl    Cl    0.265373 0.655945 0.352883 -0.570808
Cl6   Cl    Cl    0.736198 0.654569 0.647612 -0.566998
Cl7   Cl    Cl    0.736708 0.654100 0.352208 -0.568306
Cl8   Cl    Cl    0.265812 0.656346 0.646975 -0.569992
H1    H     H_    0.081964 0.923385 0.453036 0.167287
H2    H     H_    0.791960 0.152001 0.547681 0.139891
H3    H     H_    0.292619 0.652993 0.952320 0.137620
H4    H     H_    0.292650 0.653031 0.047657 0.137156
H5    H     H_    0.239355 0.831786 0.174908 0.176283
H6    H     H_    0.759401 0.832970 0.824474 0.175640
H7    H     H_    0.758989 0.833390 0.175729 0.178851
H8    H     H_    0.238991 0.831415 0.825262 0.173505
H9    H     H_    0.739042 0.331474 0.674760 0.174006
H10   H     H_    0.221683 0.370351 0.286877 0.179266
H11   H     H_    0.258999 0.333371 0.675707 0.176528
H12   H     H_    0.081968 0.923385 0.546968 0.166505
H13   H     H_    0.778247 0.370283 0.286956 0.179750
H14   H     H_    0.832457 0.237391 0.675740 0.178633
H15   H     H_    0.129013 0.275673 0.286588 0.182463
H16   H     H_    0.165601 0.239432 0.676730 0.184234
H17   H     H_    0.870914 0.275573 0.286706 0.182932
H18   H     H_    0.332743 0.737689 0.175878 0.179459
H19   H     H_    0.665992 0.739022 0.823453 0.183440
H20   H     H_    0.665609 0.739431 0.176741 0.184563
H21   H     H_    0.332405 0.737329 0.824283 0.178359
H22   H     H_    0.168231 0.766208 0.326762 0.195736
H23   H     H_    0.581541 0.422995 0.953041 0.164611
H24   H     H_    0.832843 0.765147 0.673667 0.198127
H25   H     H_    0.833175 0.764810 0.326187 0.198418
H26   H     H_    0.168517 0.766497 0.673121 0.195428
H27   H     H_    0.668459 0.266432 0.826855 0.194365
H28   H     H_    0.375308 0.223075 0.215974 0.198027
H29   H     H_    0.333248 0.264736 0.826161 0.197237
H30   H     H_    0.624608 0.223006 0.216137 0.198021
H31   H     H_    0.118246 0.999877 0.046862 0.178189
H32   H     H_    0.881755 0.000366 0.953124 0.185406
H33   H     H_    0.881756 0.000306 0.046863 0.178485
H34   H     H_    0.581542 0.423002 0.046961 0.164672
H35   H     H_    0.118247 0.999936 0.953124 0.185028
H36   H     H_    0.618248 0.500107 0.546871 0.186832
H37   H     H_    0.381754 0.500584 0.453131 0.188063
H38   H     H_    0.381755 0.500579 0.546871 0.187340
H39   H     H_    0.618248 0.500112 0.453130 0.187498
H40   H     H_    0.881341 0.081462 0.404517 0.148990
H41   H     H_    0.881443 0.081612 0.595503 0.144624
H42   H     H_    0.381650 0.582054 0.904505 0.144332
H43   H     H_    0.381694 0.582121 0.095483 0.143755
H44   H     H_    0.791876 0.151898 0.452349 0.145502
O1    O     O_3   0.000000 0.000000 0.249960 -0.501245
O2    O     O_R   0.585480 0.646190 0.219690 -0.647687
O3    O     O_R   0.585480 0.646190 0.780310 -0.650198
O4    O     O_R   0.414520 0.646190 0.219690 -0.654244
O5    O     O_R   0.085470 0.853840 0.280350 -0.646259
O6    O     O_R   0.914530 0.853840 0.719650 -0.641965
O7    O     O_R   0.914530 0.853840 0.280350 -0.645552
O8    O     O_R   0.085470 0.853840 0.719650 -0.642788
O9    O     O_R   0.585470 0.353840 0.780350 -0.642888
O10   O     O_R   0.414530 0.353840 0.219650 -0.642586
O11   O     O_R   0.414530 0.353840 0.780350 -0.642165
O12   O     O_3   0.000000 0.000000 0.750040 -0.501131
O13   O     O_R   0.585470 0.353840 0.219650 -0.643602
O14   O     O_R   0.853820 0.914550 0.219610 -0.625294
O15   O     O_R   0.146180 0.914550 0.780390 -0.640120
O16   O     O_R   0.146180 0.914550 0.219610 -0.624498
O17   O     O_R   0.853820 0.914550 0.780390 -0.641272
O18   O     O_R   0.353820 0.414550 0.719610 -0.641577
O19   O     O_R   0.646180 0.414550 0.280390 -0.642052
O20   O     O_R   0.646180 0.414550 0.719610 -0.640540
O21   O     O_R   0.353820 0.414550 0.280390 -0.642324
O22   O     O_R   0.146180 0.085440 0.219600 -0.581742
O23   O     O_3   0.500000 0.500000 0.749960 -0.501183
O24   O     O_R   0.853820 0.085440 0.780400 -0.581823
O25   O     O_R   0.853820 0.085440 0.219600 -0.580400
O26   O     O_R   0.146180 0.085440 0.780400 -0.581799
O27   O     O_R   0.646180 0.585440 0.719600 -0.582496
O28   O     O_R   0.353820 0.585440 0.280400 -0.585761
O29   O     O_R   0.353820 0.585440 0.719600 -0.582471
O30   O     O_R   0.646180 0.585440 0.280400 -0.585804
O31   O     O_R   0.939280 0.999970 0.134160 -0.643416
O32   O     O_R   0.060720 0.999970 0.865840 -0.632559
O33   O     O_R   0.060720 0.999970 0.134160 -0.644069
O34   O     O_3   0.500000 0.500000 0.250040 -0.501560
O35   O     O_R   0.939280 0.999970 0.865840 -0.631621
O36   O     O_R   0.439280 0.499970 0.634160 -0.630926
O37   O     O_R   0.560720 0.499970 0.365840 -0.629946
O38   O     O_R   0.560720 0.499970 0.634160 -0.631869
O39   O     O_R   0.439280 0.499970 0.365840 -0.628945
O40   O     O_R   1.000000 0.060760 0.365770 -0.643792
O41   O     O_R   0.000000 0.060760 0.634230 -0.648012
O42   O     O_R   0.500000 0.560760 0.865770 -0.648441
O43   O     O_R   0.500000 0.560760 0.134230 -0.648826
O44   O     O_R   1.000000 0.939310 0.365780 -0.630412
O45   O     O_R   0.914520 0.146190 0.280310 -0.662025
O46   O     O_R   1.000000 0.939310 0.634220 -0.631043
O47   O     O_R   0.500000 0.439310 0.865780 -0.632233
O48   O     O_R   0.500000 0.439310 0.134220 -0.629794
O49   O     O_R   0.085480 0.146190 0.719690 -0.650533
O50   O     O_R   0.085480 0.146190 0.280310 -0.653252
O51   O     O_R   0.914520 0.146190 0.719690 -0.657370
O52   O     O_R   0.414520 0.646190 0.780310 -0.656835
Zn1   Zn    Zn3+2 1.000000 0.913250 0.293350 0.986076
Zn2   Zn    Zn3+2 0.586770 0.499990 0.293420 1.023378
Zn3   Zn    Zn3+2 0.586770 0.499990 0.706580 1.023947
Zn4   Zn    Zn3+2 0.413230 0.499990 0.293420 1.021123
Zn5   Zn    Zn3+2 0.000000 0.086780 0.293330 0.970679
Zn6   Zn    Zn3+2 1.000000 0.086780 0.706670 0.972544
Zn7   Zn    Zn3+2 0.500000 0.586780 0.793330 0.972275
Zn8   Zn    Zn3+2 0.500000 0.586780 0.206670 0.975096
Zn9   Zn    Zn3+2 0.000000 0.913250 0.706650 0.980674
Zn10  Zn    Zn3+2 0.500000 0.413250 0.793350 0.978544
Zn11  Zn    Zn3+2 0.500000 0.413250 0.206650 0.979197
Zn12  Zn    Zn3+2 0.913230 0.999990 0.206580 1.018379
Zn13  Zn    Zn3+2 0.086770 0.999990 0.793420 1.022580
Zn14  Zn    Zn3+2 0.086770 0.999990 0.206580 1.021244
Zn15  Zn    Zn3+2 0.913230 0.999990 0.793420 1.019510
Zn16  Zn    Zn3+2 0.413230 0.499990 0.706580 1.021201

loop_
_geom_bond_atom_site_label_1
_geom_bond_atom_site_label_2
_ccdc_geom_bond_type
O8    Zn9   S    
C58   C62   A    
C5    C103  A    
O1    Zn1   S    
C28   O50   A    
C80   O33   A    
C57   C79   S    
C18   C26   A    
O12   Zn13  S    
C10   H9    S    
C1    O45   A    
O34   Zn11  S    
C39   O24   A    
C2    H6    S    
C48   C57   A    
C40   Cl8   S    
O34   Zn8   S    
O44   Zn1   S    
C5    H12   S    
C92   C100  A    
C78   O11   A    
C73   O6    A    
C72   O3    A    
C13   C18   A    
C89   C99   A    
O12   Zn15  S    
C34   Cl3   S    
O21   Zn4   S    
C52   C74   S    
C74   O7    A    
C55   C77   S    
C94   H5    S    
C43   C52   A    
C66   C69   A    
C13   C57   A    
C35   C48   A    
C84   O39   A    
O2    Zn8   S    
C98   C103  A    
O4    Zn8   S    
O23   Zn3   S    
C45   H27   S    
C56   C78   S    
C31   C40   A    
C30   C38   A    
O24   Zn15  S    
C42   H24   S    
C32   C45   A    
O19   Zn2   S    
C87   O47   A    
C37   C42   A    
O34   Zn4   S    
C81   O35   A    
C35   Cl4   S    
C59   C67   A    
C91   C96   A    
C65   H38   S    
C11   C15   A    
C17   O26   A    
C89   H40   S    
C83   O4    A    
C12   C16   A    
O29   Zn16  S    
C39   O51   A    
C46   C55   A    
C96   H3    S    
C6    C104  A    
O12   Zn9   S    
C19   C27   A    
C58   H31   S    
C8    C52   A    
O11   Zn10  S    
C66   H39   S    
C25   C34   A    
O31   Zn12  S    
C29   C72   S    
C13   H13   S    
O32   Zn13  S    
C19   H18   S    
O12   Zn6   S    
O38   Zn3   S    
O6    Zn9   S    
C59   C60   A    
C93   C95   A    
C15   H15   S    
C73   O17   A    
C33   C46   A    
C36   C41   A    
C53   C75   S    
C64   H37   S    
C91   C101  A    
C70   C82   S    
C86   C103  S    
C44   C53   A    
C82   O38   A    
C41   C49   A    
C41   H22   S    
O15   Zn13  S    
C92   C97   A    
O28   Zn4   S    
O14   Zn12  S    
C20   C29   A    
O7    Zn1   S    
O3    Zn7   S    
C22   C31   A    
C22   H21   S    
C2    C20   A    
O43   Zn8   S    
C79   O19   A    
C4    H1    S    
C90   C95   A    
O18   Zn16  S    
O36   Zn16  S    
C91   H42   S    
C3    C100  A    
C1    O25   A    
O33   Zn14  S    
O48   Zn11  S    
C77   O10   A    
O5    Zn1   S    
O1    Zn12  S    
C77   O21   A    
C4    C102  A    
C75   O8    A    
C90   H41   S    
C14   C23   A    
C21   H20   S    
C6    H23   S    
O39   Zn4   S    
C51   C73   S    
C59   H32   S    
C85   O44   A    
O46   Zn9   S    
C63   C70   A    
C76   O20   A    
C84   O37   A    
C96   C97   A    
O25   Zn12  S    
C8    C21   A    
C63   C66   A    
C48   H30   S    
C76   O9    A    
C64   C69   A    
C88   O48   A    
C97   H4    S    
C16   H16   S    
O45   Zn5   S    
C37   Cl6   S    
C12   C56   A    
C19   C94   A    
O9    Zn10  S    
C54   C76   S    
C10   C54   A    
C62   C67   A    
O50   Zn5   S    
C58   C68   A    
C15   C24   A    
O13   Zn11  S    
O49   Zn6   S    
C67   C81   S    
C101  C104  A    
C32   Cl1   S    
O30   Zn2   S    
O23   Zn10  S    
C75   O15   A    
C1    C26   S    
C49   C94   A    
C11   H10   S    
C9    C53   A    
C60   H33   S    
C31   C50   S    
O23   Zn7   S    
C68   C80   S    
O17   Zn15  S    
O35   Zn15  S    
C63   H36   S    
C11   C55   A    
C88   O43   A    
C46   H28   S    
C16   C25   A    
C86   O46   A    
O26   Zn13  S    
C44   H26   S    
C81   O32   A    
O47   Zn10  S    
C82   O36   A    
C3    C88   S    
O1    Zn5   S    
C93   H44   S    
C33   Cl2   S    
C24   C28   S    
C72   O27   A    
O42   Zn7   S    
C4    C5    A    
C45   C54   A    
C85   O40   A    
C6    C7    A    
C42   C51   A    
C27   C36   A    
O52   Zn7   S    
C21   C30   A    
C47   H29   S    
C3    C7    A    
C24   C33   A    
C14   H14   S    
O20   Zn3   S    
C71   O5    A    
O23   Zn16  S    
C62   H35   S    
C17   C25   S    
C64   C65   A    
C7    H34   S    
C17   O49   A    
O34   Zn2   S    
C38   C43   A    
C69   C84   S    
C61   O2    A    
C23   C32   A    
O40   Zn5   S    
C79   O13   A    
O37   Zn2   S    
O1    Zn14  S    
C12   H11   S    
C28   O22   A    
C23   C39   S    
C27   C83   S    
C61   O30   A    
C80   O31   A    
C83   O28   A    
C43   H25   S    
C92   H43   S    
O51   Zn6   S    
C89   C93   A    
C9    C22   A    
C20   H19   S    
C74   O14   A    
O16   Zn14  S    
C2    C51   A    
C85   C102  S    
C86   O41   A    
C87   C104  S    
C26   C35   A    
C40   C44   A    
C99   C102  A    
C60   C68   A    
C98   C99   A    
C49   C71   S    
C30   C61   S    
C29   C37   A    
C36   Cl5   S    
C78   O18   A    
C9    H8    S    
C71   O16   A    
O22   Zn14  S    
C18   H17   S    
C100  C101  A    
C34   C47   A    
C95   H2    S    
C87   O42   A    
C38   Cl7   S    
C50   O29   A    
O27   Zn3   S    
O10   Zn11  S    
C90   C98   A    
O41   Zn6   S    
C65   C70   A    
C8    H7    S    
C10   C14   A    
C47   C56   A    
C50   O52   A    
