data_mof_unit_61632.cif
_audit_creation_date              2012-12-10T19:27:23-0500
_audit_creation_method            fapswitch 2.2
_symmetry_space_group_name_H-M    P1
_symmetry_Int_Tables_number       1
_space_group_crystal_system       triclinic
_cell_length_a                    13.911828
_cell_length_b                    16.515211
_cell_length_c                    17.762605
_cell_angle_alpha                 90.162989
_cell_angle_beta                  91.230196
_cell_angle_gamma                 84.81116
_cell_volume                      4063.41623657

loop_
_atom_site_label
_atom_site_type_symbol
_atom_type_description
_atom_site_fract_x
_atom_site_fract_y
_atom_site_fract_z
_atom_type_partial_charge
C1    C     C_R   0.499309 0.500357 0.644619 0.862493
C2    C     C_R   0.500369 0.500053 0.355349 0.861026
C3    C     C_R   0.552152 0.559760 0.155789 -0.248986
C4    C     C_R   0.550437 0.445423 0.849060 -0.248419
C5    C     C_R   0.500081 0.506160 0.114207 0.045318
C6    C     C_R   0.498457 0.509483 0.885602 0.044699
C7    C     C_1   0.500530 0.509546 0.033696 -0.047667
C8    C     C_1   0.499862 0.510461 0.966198 -0.048805
C9    C     C_R   0.428374 0.175283 0.461945 -0.331907
C10   C     C_R   0.561084 0.824558 0.548894 -0.330017
C11   C     C_R   0.429286 0.261090 0.461643 0.335796
C12   C     C_R   0.560313 0.738795 0.548289 0.342546
C13   C     C_R   0.570918 0.250880 0.538532 0.336792
C14   C     C_R   0.439571 0.747813 0.451810 0.341944
C15   C     C_R   0.572167 0.164876 0.538492 -0.334176
C16   C     C_R   0.439029 0.833698 0.451259 -0.331806
C17   C     C_R   0.500348 0.126099 0.500252 0.108911
C18   C     C_R   0.500149 0.873084 0.500081 0.105919
C19   C     C_1   0.500409 0.036740 0.500256 -0.023819
C20   C     C_1   0.500301 0.962420 0.500172 -0.023480
C21   C     C_R   0.683160 0.486907 0.500128 0.832303
C22   C     C_R   0.316841 0.513091 0.499866 0.830781
C23   C     C_1   0.214009 0.521148 0.499915 -0.168750
C24   C     C_1   0.785997 0.478816 0.500043 -0.168641
C25   C     C_2   0.023502 0.533797 0.500200 0.161524
C26   C     C_2   0.976510 0.466105 0.499691 0.162127
C27   C     C_1   0.872615 0.472381 0.499904 -0.009907
C28   C     C_1   0.127392 0.527537 0.500019 -0.009788
C29   C     C_R   0.448213 0.449228 0.150856 0.131455
C30   C     C_R   0.444669 0.570739 0.843882 0.132597
C31   C     C_R   0.448755 0.446681 0.229928 0.105943
C32   C     C_R   0.443953 0.567224 0.764744 0.098729
C33   C     C_R   0.501364 0.500936 0.272251 -0.085040
C34   C     C_R   0.497273 0.502402 0.727635 -0.084086
C35   C     C_R   0.553335 0.557660 0.234489 0.095444
C36   C     C_R   0.550428 0.441394 0.770519 0.104604
Cu1   Cu    Cu3+1 0.500000 0.419580 0.500020 1.000634
Cu2   Cu    Cu3+1 0.500000 0.580420 0.499980 1.003349
H1    H     H_    0.592400 0.603257 0.127123 0.149831
H2    H     H_    0.591748 0.398363 0.881626 0.149301
H3    H     H_    0.371528 0.147388 0.431586 0.141570
H4    H     H_    0.609307 0.852853 0.587519 0.142109
H5    H     H_    0.629121 0.128747 0.568952 0.140625
H6    H     H_    0.390801 0.869224 0.412728 0.141808
N1    N     N_R   0.500030 0.298780 0.500030 -0.155240
N2    N     N_R   0.499970 0.701220 0.499970 -0.151946
O1    O     O_R   0.500010 0.432070 0.608760 -0.548082
O2    O     O_R   0.499990 0.567930 0.391240 -0.543856
O3    O     O_R   0.500000 0.567880 0.608730 -0.548800
O4    O     O_R   0.500000 0.432120 0.391270 -0.552283
O5    O     O_R   0.637850 0.422490 0.500000 -0.563260
O6    O     O_R   0.362150 0.577510 0.500000 -0.562575
O7    O     O_R   0.637840 0.558310 0.499970 -0.553051
O8    O     O_R   0.362160 0.441690 0.500030 -0.555022
N3    N     N_3   0.028759 0.387081 0.498894 -0.603464
H7    H     H_    0.008976 0.355303 0.546110 0.215016
H8    H     H_    0.006146 0.356284 0.451110 0.213828
N4    N     N_3   0.971252 0.612821 0.500975 -0.599364
H9    H     H_    0.991027 0.644577 0.453743 0.215772
H10   H     H_    0.993875 0.643640 0.548743 0.214926
N5    N     N_3   0.394072 0.393833 0.108757 -0.612608
H11   H     H_    0.343035 0.427673 0.074743 0.222975
H12   H     H_    0.441390 0.359139 0.073857 0.223413
N6    N     N_3   0.390126 0.636653 0.880795 -0.611292
H13   H     H_    0.437474 0.667206 0.914732 0.222213
H14   H     H_    0.340227 0.612405 0.915538 0.222679
N7    N     N_3   0.393561 0.390440 0.267361 -0.569594
H15   H     H_    0.321186 0.402170 0.250478 0.230698
H16   H     H_    0.417644 0.331752 0.249754 0.233302
N8    N     N_3   0.387400 0.628525 0.721831 -0.570458
H17   H     H_    0.411486 0.685043 0.735388 0.238417
H18   H     H_    0.315426 0.628910 0.737716 0.230519
N9    N     N_3   0.609170 0.612193 0.275920 -0.570472
H19   H     H_    0.583841 0.671677 0.261107 0.219757
H20   H     H_    0.680873 0.602249 0.259176 0.214435
N10   N     N_3   0.606924 0.376329 0.734584 -0.575137
H21   H     H_    0.678876 0.378261 0.752217 0.212203
H22   H     H_    0.583653 0.321580 0.753419 0.213886
N11   N     N_3   0.354936 0.308253 0.420426 -0.511104
H23   H     H_    0.351574 0.284113 0.366130 0.195912
H24   H     H_    0.289272 0.299843 0.445532 0.204584
N12   N     N_3   0.623269 0.691002 0.598850 -0.526569
H25   H     H_    0.607340 0.709885 0.653778 0.192957
H26   H     H_    0.694152 0.703328 0.588328 0.199681
N13   N     N_3   0.644976 0.287460 0.579642 -0.513007
H27   H     H_    0.647838 0.263892 0.634220 0.198194
H28   H     H_    0.710841 0.268605 0.554981 0.191035
N14   N     N_3   0.376211 0.709424 0.401492 -0.529403
H29   H     H_    0.391846 0.725531 0.346498 0.194708
H30   H     H_    0.305450 0.732740 0.412274 0.190592

loop_
_geom_bond_atom_site_label_1
_geom_bond_atom_site_label_2
_ccdc_geom_bond_type
C30   C32   A    
N3    H7    S    
C4    C36   A    
C30   N6    S    
C10   H4    S    
N9    H19   S    
C19   C20   T    
C24   C27   T    
C26   N3    S    
C7    C8    T    
C22   O8    A    
Cu2   O3    S    
N13   H27   S    
C25   C28   S    
C31   N7    S    
C26   C27   S    
N10   H22   S    
Cu1   O5    S    
Cu2   O6    S    
N4    H10   S    
N5    H12   S    
C36   N10   S    
C17   C19   S    
C4    H2    S    
C31   C33   A    
N8    H17   S    
Cu1   O1    S    
C2    O4    A    
C16   H6    S    
Cu2   O2    S    
C3    H1    S    
N9    H20   S    
C10   C12   A    
C1    C34   S    
C5    C29   A    
N13   H28   S    
C29   N5    S    
N7    H15   S    
N10   H21   S    
C4    C6    A    
N11   H24   S    
C1    O1    A    
C6    C8    S    
C2    O2    A    
C25   C26   D    
C14   N2    A    
C12   N2    A    
N6    H14   S    
Cu1   Cu2   S    
C5    C7    S    
C3    C35   A    
C12   N12   S    
C23   C28   T    
C9    C11   A    
C11   N11   S    
Cu1   O8    S    
C2    C33   S    
C9    C17   A    
C6    C30   A    
N14   H30   S    
N12   H26   S    
N3    H8    S    
C14   C16   A    
C11   N1    A    
C25   N4    S    
Cu1   N1    S    
C21   O5    A    
C13   N1    A    
C22   O6    A    
C15   C17   A    
C35   N9    S    
C3    C5    A    
C32   N8    S    
C9    H3    S    
N6    H13   S    
C13   C15   A    
N4    H9    S    
C15   H5    S    
C29   C31   A    
C21   O7    A    
Cu1   O4    S    
Cu2   O7    S    
C10   C18   A    
C33   C35   A    
C34   C36   A    
C18   C20   S    
N5    H11   S    
Cu2   N2    S    
C14   N14   S    
N11   H23   S    
N14   H29   S    
C16   C18   A    
N12   H25   S    
C21   C24   S    
C13   N13   S    
C22   C23   S    
N8    H18   S    
N7    H16   S    
C1    O3    A    
C32   C34   A    
