data_mof_unit_14946.cif
_audit_creation_date              2012-12-10T18:31:48-0500
_audit_creation_method            fapswitch 2.2
_symmetry_space_group_name_H-M    P1
_symmetry_Int_Tables_number       1
_space_group_crystal_system       triclinic
_cell_length_a                    10.717235
_cell_length_b                    14.987136
_cell_length_c                    15.343188
_cell_angle_alpha                 82.339592
_cell_angle_beta                  90.8759
_cell_angle_gamma                 104.743219
_cell_volume                      2361.57795267

loop_
_atom_site_label
_atom_site_type_symbol
_atom_type_description
_atom_site_fract_x
_atom_site_fract_y
_atom_site_fract_z
_atom_type_partial_charge
C1    C     C_R   0.477724 0.442003 0.662540 0.880121
C2    C     C_3   0.119145 0.492740 0.507437 -0.127637
C3    C     C_3   0.084256 0.540050 0.416024 0.197973
C4    C     C_3   0.091816 0.552943 0.577819 0.105563
C5    C     C_R   0.435531 0.408089 0.753852 -0.063194
C6    C     C_R   0.510910 0.592808 0.243818 -0.086978
C7    C     C_R   0.302766 0.291928 0.862829 0.000219
C8    C     C_R   0.358993 0.318100 0.778558 -0.203963
C9    C     C_R   0.455102 0.472218 0.813113 -0.182829
C10   C     C_R   0.388706 0.452638 0.893562 0.089022
C11   C     C_R   0.318649 0.359064 0.923023 0.066897
C12   C     C_R   0.741823 0.499529 0.502758 0.871203
C13   C     C_R   0.402401 0.523397 0.948502 0.032981
C14   C     C_R   0.383359 0.495261 0.039464 0.035862
C15   C     C_R   0.310100 0.404202 0.069007 -0.221725
C16   C     C_R   0.271950 0.337966 0.011448 -0.045797
C17   C     C_R   0.436996 0.620807 0.917322 -0.035987
C18   C     C_R   0.478042 0.685220 0.976305 -0.256578
C19   C     C_R   0.485809 0.654973 0.065644 0.136365
C20   C     C_R   0.437949 0.559487 0.097862 0.098061
C21   C     C_R   0.541257 0.718754 0.123291 -0.142454
C22   C     C_R   0.553727 0.687713 0.212031 -0.138010
C23   C     C_R   0.516719 0.557989 0.337259 0.900155
C24   C     C_R   0.455076 0.529690 0.186442 -0.177463
C25   C     C_R   0.695918 0.844200 0.638848 -0.331675
C26   C     C_R   0.661134 0.754130 0.617173 0.142314
C27   C     C_R   0.521558 0.796734 0.506975 -0.004939
C28   C     C_R   0.562878 0.891333 0.520612 0.030926
C29   C     C_R   0.645562 0.912691 0.591694 0.153337
C30   C     C_R   0.519063 0.963856 0.469894 -0.015669
C31   C     C_R   0.537558 0.051413 0.502004 0.067863
C32   C     C_R   0.618530 0.068819 0.574735 -0.182073
C33   C     C_R   0.674959 0.001540 0.616568 -0.167157
C34   C     C_R   0.257153 0.496568 0.504979 0.975838
C35   C     C_R   0.463737 0.954110 0.386320 0.295160
C36   C     C_R   0.393107 0.015861 0.349096 -0.076789
C37   C     C_R   0.389278 0.094549 0.390167 -0.057890
C38   C     C_R   0.473958 0.118105 0.460632 -0.002886
C39   C     C_R   0.310524 0.154387 0.359526 -0.187401
C40   C     C_R   0.337203 0.243267 0.384673 0.535616
C41   C     C_R   0.490233 0.207546 0.487236 -0.113887
C42   C     C_3   0.888895 0.393212 0.515238 -0.248488
C43   C     C_3   0.029435 0.391317 0.534432 0.238164
C44   C     C_3   0.945758 0.551469 0.418687 -0.460808
C45   C     C_3   0.945497 0.544359 0.583349 -0.456067
C46   C     C_3   0.877648 0.497179 0.504903 -0.055556
H1    H     H_    0.141460 0.627520 0.557070 0.160035
H2    H     H_    0.948665 0.626632 0.415797 0.168711
H3    H     H_    0.150712 0.610866 0.401175 0.116765
H4    H     H_    0.429951 0.456543 0.210914 0.193315
H5    H     H_    0.598668 0.737407 0.255386 0.214724
H6    H     H_    0.506673 0.759084 0.952140 0.155474
H7    H     H_    0.341995 0.268195 0.731795 0.170638
H8    H     H_    0.524563 0.538259 0.795837 0.159202
H9    H     H_    0.827935 0.352385 0.572419 0.106927
H10   H     H_    0.276741 0.384687 0.136691 0.207134
H11   H     H_    0.576833 0.792219 0.099490 0.166080
H12   H     H_    0.737709 0.018032 0.671448 0.152929
H13   H     H_    0.556836 0.232617 0.536924 0.136064
H14   H     H_    0.761521 0.860635 0.692400 0.155888
H15   H     H_    0.445637 0.773027 0.462165 0.178049
H16   H     H_    0.035456 0.374392 0.606882 0.157811
H17   H     H_    0.640890 0.133825 0.601346 0.133872
H18   H     H_    0.890865 0.527261 0.360415 0.213360
H19   H     H_    0.930825 0.615363 0.582048 0.204697
H20   H     H_    0.902725 0.502537 0.646182 0.225128
N1    N     N_R   0.573860 0.731700 0.552730 -0.124953
N2    N     N_R   0.426060 0.268290 0.447230 -0.134852
O1    O     O_R   0.462770 0.383110 0.605620 -0.630211
O2    O     O_R   0.510160 0.531900 0.639510 -0.600866
O3    O     O_R   0.661510 0.425600 0.483070 -0.647233
O4    O     O_R   0.708900 0.574390 0.516960 -0.619787
O5    O     O_R   0.489840 0.468100 0.360490 -0.579545
O6    O     O_R   0.537230 0.616890 0.394380 -0.609972
O7    O     O_R   0.291100 0.425610 0.483040 -0.494497
O8    O     O_R   0.338490 0.574400 0.516930 -0.633812
Zn1   Zn    Zn3+2 0.468350 0.400660 0.477370 1.024510
Zn2   Zn    Zn3+2 0.531650 0.599340 0.522630 0.989707
C47   C     C_1   0.841057 0.346627 0.436871 0.428466
N3    N     N_1   0.803481 0.310320 0.376091 -0.138000
C48   C     C_1   0.188959 0.249290 0.047917 0.219487
N4    N     N_1   0.122028 0.178578 0.077558 -0.143180
C49   C     C_1   0.230771 0.195851 0.882854 0.171982
N5    N     N_1   0.173442 0.118673 0.897903 -0.167839
C50   C     C_1   0.416733 0.658001 0.827780 0.219502
N6    N     N_1   0.400497 0.688144 0.756288 -0.142901
Cl1   Cl    Cl    0.261602 0.324410 0.329193 -0.513874
C51   C     C_1   0.338992 0.003061 0.262948 0.289401
N7    N     N_1   0.296468 0.992549 0.194133 -0.156178
C52   C     C_1   0.716387 0.685333 0.665985 0.217428
N8    N     N_1   0.761286 0.630728 0.706239 -0.224719
Cl2   Cl    Cl    0.506720 0.879652 0.317576 -0.670046
C53   C     C_1   0.195154 0.123760 0.309632 0.282845
N9    N     N_1   0.102114 0.099293 0.270715 -0.130028
Cl3   Cl    Cl    0.068341 0.291401 0.498306 -0.532713
Cl4   Cl    Cl    0.104719 0.480476 0.325885 -0.506475
Cl5   Cl    Cl    0.151934 0.522950 0.685010 -0.628192

loop_
_geom_bond_atom_site_label_1
_geom_bond_atom_site_label_2
_ccdc_geom_bond_type
C7    C49   S    
C53   N9    T    
O2    Zn2   S    
O1    Zn1   S    
C19   C20   A    
C48   N4    T    
C3    H3    S    
C18   H6    S    
C7    C8    A    
C45   C46   S    
C36   C51   S    
C7    C11   A    
C33   H12   S    
C30   C35   A    
C17   C50   S    
C26   N1    A    
C40   Cl1   S    
C21   C22   A    
C36   C37   A    
C19   C21   A    
O8    Zn2   S    
C30   C31   A    
C15   C16   A    
C6    C22   A    
C29   C33   A    
C18   C19   A    
C42   C46   S    
C20   C24   A    
C39   C53   S    
O4    Zn2   S    
C27   H15   S    
C31   C32   A    
C43   Cl3   S    
C3    Cl4   S    
C25   H14   S    
C9    C10   A    
C34   O7    A    
C35   Cl2   S    
C2    C34   S    
C12   O4    A    
C42   C47   S    
C4    Cl5   S    
C24   H4    S    
N1    Zn2   S    
C23   O5    A    
C44   C46   S    
C41   N2    A    
C4    C45   S    
C25   C29   A    
C3    C44   S    
C40   N2    A    
C14   C20   A    
C41   H13   S    
C38   C41   A    
C12   C46   S    
C39   C40   A    
C25   C26   A    
C50   N6    T    
C44   H18   S    
C35   C36   A    
C2    C4    S    
C5    C9    A    
C37   C38   A    
C42   H9    S    
C11   C16   A    
C49   N5    T    
C2    C43   S    
C6    C24   A    
C17   C18   A    
O7    Zn1   S    
C12   O3    A    
C45   H19   S    
C1    C5    S    
C42   C43   S    
C23   O6    A    
O3    Zn1   S    
N2    Zn1   S    
C28   C29   A    
C32   H17   S    
C10   C13   A    
C8    H7    S    
C5    C8    A    
C26   C52   S    
C21   H11   S    
C1    O2    A    
C31   C38   A    
C13   C17   A    
C32   C33   A    
C28   C30   A    
C2    C3    S    
C37   C39   A    
C15   H10   S    
C52   N8    T    
C6    C23   S    
C16   C48   S    
C1    O1    A    
C27   N1    A    
C10   C11   A    
C47   N3    T    
C51   N7    T    
O6    Zn2   S    
C45   H20   S    
O5    Zn1   S    
C14   C15   A    
C9    H8    S    
C13   C14   A    
C44   H2    S    
C43   H16   S    
C34   O8    A    
C22   H5    S    
C27   C28   A    
C4    H1    S    
