data_mof_unit_66990.cif
_audit_creation_date              2013-03-05T15:58:13-0500
_audit_creation_method            fapswitch 2.2
_symmetry_space_group_name_H-M    P1
_symmetry_Int_Tables_number       1
_space_group_crystal_system       triclinic
_cell_length_a                    8.345321
_cell_length_b                    12.774169
_cell_length_c                    14.158704
_cell_angle_alpha                 92.564622
_cell_angle_beta                  90.451797
_cell_angle_gamma                 98.307494
_cell_volume                      1491.89085908

loop_
_atom_site_label
_atom_site_type_symbol
_atom_site_description
_atom_site_fract_x
_atom_site_fract_y
_atom_site_fract_z
_atom_type_partial_charge
P1    P     P_3+3 0.054400 0.427280 0.286870 0.530931
O1    O     O_2   0.887370 0.460630 0.272300 -0.369850
O2    O     O_3   0.129410 0.451380 0.388510 -0.335294
O3    O     O_3   0.670210 0.653170 0.329170 -0.269938
O4    O     O_2   0.736866 0.551177 0.168609 -0.413938
O5    O     O_3   0.015697 0.290711 0.263924 -0.533940
O6    O     O_3   0.741219 0.745831 0.140009 -0.635456
C1    C     C_3   0.782652 0.927595 0.104973 -0.776710
H1    H     H_    0.710151 0.993623 0.101237 0.308896
H2    H     H_    0.908811 0.962508 0.123676 0.250121
P2    P     P_3+3 0.668300 0.742890 0.573060 0.552221
P3    P     P_3+3 0.139577 0.841502 0.374339 0.547249
O7    O     O_2   0.845380 0.761330 0.544970 -0.329216
O8    O     O_3   0.088930 0.704860 0.376040 -0.376477
O9    O     O_2   0.009177 0.890070 0.431703 -0.325262
O10   O     O_3   0.671568 0.770507 0.695459 -0.643205
O11   O     O_3   0.115442 0.879679 0.258225 -0.479625
C2    C     C_3   0.124651 0.792587 0.194556 0.156567
H3    H     H_    0.014188 0.733571 0.198707 0.083874
H4    H     H_    0.226837 0.750400 0.212452 0.071442
C3    C     C_3   0.143101 0.830133 0.092954 1.266142
H5    H     H_    0.024518 0.816478 0.055600 -0.080823
C4    C     C_3   0.231724 0.761031 0.656397 0.377061
H6    H     H_    0.354415 0.741790 0.642885 0.100148
H7    H     H_    0.152321 0.739222 0.593108 0.122446
C5    C     C_3   0.240909 0.879219 0.677468 -0.893941
H8    H     H_    0.302187 0.901057 0.746598 0.279797
H9    H     H_    0.306653 0.924893 0.621471 0.199351
H10   H     H_    0.117188 0.899731 0.682637 0.328570
Ba1   Ba    Ba6+2 0.855630 0.555280 0.454520 1.700622
C6    C     C_3   0.982573 0.241450 0.349000 0.202584
H11   H     H_    0.874341 0.268607 0.380899 0.099658
H12   H     H_    0.085398 0.259567 0.399231 0.107047
C7    C     C_3   0.952839 0.122898 0.328689 0.099847
H13   H     H_    0.047807 0.097826 0.281758 0.180876
H14   H     H_    0.953972 0.080605 0.395005 0.102830
C8    C     C_3   0.734386 0.693390 0.744998 1.016381
H15   H     H_    0.844631 0.671039 0.711289 -0.043106
C9    C     C_3   0.777132 0.740147 0.844683 0.228788
H16   H     H_    0.879347 0.806091 0.841965 0.073365
H17   H     H_    0.670979 0.771524 0.876009 0.132547
P4    P     P_3+3 0.135310 0.572810 0.713130 0.499789
O12   O     O_2   0.302330 0.539400 0.727760 -0.305064
O13   O     O_3   0.060300 0.548700 0.611500 -0.421276
O14   O     O_3   0.519500 0.346920 0.670840 -0.375933
O15   O     O_3   0.170109 0.709728 0.736179 -0.552160
P5    P     P_3+3 0.053090 0.155872 0.617867 0.499373
O16   O     O_3   0.614310 0.373510 0.452640 -0.382677
O17   O     O_3   0.100780 0.295230 0.623970 -0.372442
O18   O     O_2   0.176684 0.110780 0.552835 -0.406275
O19   O     O_3   0.085079 0.099796 0.726168 -0.575141
Ba2   Ba    Ba6+2 0.334200 0.444810 0.545490 1.642275
P6    P     P_3+3 0.645598 0.640895 0.204185 0.554040
C10   C     C_3   0.716046 0.846097 0.176892 1.457199
H18   H     H_    0.779476 0.890243 0.032446 0.209219
O20   O     O_3   0.575400 0.626570 0.547370 -0.347359
C11   C     C_3   0.479079 0.315252 0.257667 0.401190
H19   H     H_    0.354148 0.329493 0.273991 0.082877
H20   H     H_    0.567445 0.384924 0.282039 0.138031
C12   C     C_3   0.495487 0.301010 0.151357 -0.763996
H21   H     H_    0.418181 0.227261 0.125364 0.325466
H22   H     H_    0.458527 0.369471 0.115654 0.190153
H23   H     H_    0.623228 0.294383 0.134013 0.249985
P7    P     P_3+3 0.523877 0.242687 0.421344 0.484913
O21   O     O_2   0.344320 0.238700 0.455090 -0.402060
O22   O     O_3   0.509670 0.222151 0.298614 -0.496379
C13   C     C_3   0.102352 0.177036 0.800465 0.636994
H24   H     H_    0.203636 0.239956 0.786670 0.130227
C14   C     C_3   0.135870 0.124388 0.891605 0.121631
H25   H     H_    0.030335 0.065352 0.909326 0.147818
H26   H     H_    0.241265 0.082289 0.882118 0.177069
P8    P     P_3+3 0.539709 0.348380 0.794272 0.539660
C15   C     C_3   0.530679 0.145429 0.755006 0.276591
H27   H     H_    0.618862 0.179798 0.702687 0.056640
O23   O     O_2   0.396845 0.398151 0.837387 -0.373783
O24   O     O_3   0.513177 0.217253 0.831800 -0.483917
H28   H     H_    0.411666 0.122709 0.718674 0.075699
H29   H     H_    0.725677 0.056304 0.793567 0.181979
C16   C     C_3   0.592401 0.044795 0.787683 0.047068
H30   H     H_    0.561319 0.979815 0.733318 0.063902
C17   C     C_R   0.981265 0.447799 0.061804 0.025526
C18   C     C_R   0.178383 0.498079 0.195833 0.060683
C19   C     C_R   0.328888 0.551029 0.226397 0.361654
C20   C     C_R   0.440163 0.594569 0.162135 0.108497
C21   C     C_R   0.400720 0.591955 0.066008 -0.237308
C22   C     C_R   0.245734 0.546563 0.033539 0.062915
C23   C     C_R   0.133542 0.496111 0.097817 -0.121138
C24   C     C_R   0.049906 0.505133 0.901977 0.031506
C25   C     C_R   0.936384 0.456035 0.966456 0.113551
C26   C     C_R   0.004809 0.505646 0.804331 0.225589
C27   C     C_R   0.848581 0.461134 0.774954 -0.325997
C28   C     C_R   0.734545 0.418834 0.839427 0.403773
C29   C     C_R   0.778174 0.415751 0.934828 -0.152227
C30   C     C_R   0.203268 0.551445 0.937575 0.020133
H31   H     H_    0.490382 0.626247 0.016918 0.213706
H32   H     H_    0.690412 0.378429 0.983304 0.138997
H33   H     H_    0.814485 0.459703 0.700938 0.157680
H34   H     H_    0.895347 0.403920 0.107104 0.162803
H35   H     H_    0.290924 0.593508 0.892036 0.175815
C31   C     C_R   0.758181 0.177134 0.532699 -0.652120
C32   C     C_R   0.432807 0.813882 0.461511 -0.460049
C33   C     C_R   0.406328 0.994131 0.428030 -0.029251
C34   C     C_R   0.343667 0.886939 0.424170 0.218965
C35   C     C_R   0.578156 0.846925 0.511466 0.346646
C36   C     C_R   0.639972 0.957875 0.520725 -0.259964
C37   C     C_R   0.553524 0.031542 0.476058 -0.098752
C38   C     C_R   0.614876 0.141376 0.482932 0.314776
C39   C     C_R   0.847614 0.106562 0.571695 0.146715
C40   C     C_R   0.785122 0.998999 0.571457 0.660161
H36   H     H_    0.336078 0.047475 0.395057 0.159351
H37   H     H_    0.805022 0.260775 0.537649 0.197440
H38   H     H_    0.383165 0.730722 0.456669 0.186689
F1    F     F_    0.796152 0.867414 0.262831 -0.648192
Cl1   Cl    Cl    0.760893 0.090137 0.273393 -0.546279
F2    F     F_    0.617461 0.605810 0.750119 -0.692931
F3    F     F_    0.820576 0.664447 0.902365 -0.707468
Cl2   Cl    Cl    0.509546 0.859072 0.194164 -0.598924
F4    F     F_    0.245889 0.774342 0.042368 -0.708446
Cl3   Cl    Cl    0.922245 0.232503 0.816366 -0.737232
Cl4   Cl    Cl    0.176862 0.219997 0.987563 -0.565685
Cl5   Cl    Cl    0.516230 0.002374 0.899146 -0.527156
F5    F     F_    0.372453 0.555345 0.319144 -0.668670
F6    F     F_    0.865316 0.938436 0.624864 -0.685979
F7    F     F_    0.204604 0.936791 0.092619 -0.613707

loop_
_geom_bond_atom_site_label_1
_geom_bond_atom_site_label_2
_geom_bond_distance
_ccdc_geom_bond_type
O3    P6    1.777210 S    
C2    C3    1.538535 S    
P2    O7    1.521378 D    
C15   H27   1.107875 S    
C11   O22   1.400997 S    
P8    O24   1.763928 S    
C11   H19   1.108311 S    
P5    O17   1.765179 S    
C21   C22   1.403752 A    
C32   H38   1.081979 S    
C13   C14   1.523829 S    
C16   Cl5   1.783587 S    
C5    H8    1.106261 S    
C8    H15   1.107427 S    
P6    C20   1.817441 S    
Ba1   O16   2.844347 S    
C2    H3    1.107065 S    
P8    C28   1.836238 S    
O12   Ba2   2.831151 S    
C11   H20   1.110791 S    
C37   C38   1.421111 A    
C18   C23   1.432667 A    
C10   F1    1.380778 S    
C39   C40   1.397304 A    
C12   H22   1.109290 S    
C7    H13   1.111233 S    
P4    O15   1.746575 S    
C4    C5    1.516609 S    
C14   H26   1.101346 S    
C28   C29   1.399924 A    
Ba1   Ba2   4.616397 S    
C22   C30   1.407827 A    
C19   C20   1.381633 A    
P2    Ba1   3.430529 S    
C1    H1    1.109619 S    
P3    O11   1.753905 S    
C4    H6    1.103172 S    
C6    H12   1.101809 S    
P2    C35   1.864104 S    
C2    H4    1.106101 S    
O10   C8    1.393738 S    
C17   C25   1.410667 A    
O13   Ba2   2.942585 S    
O5    C6    1.395060 S    
C32   C34   1.393713 A    
C4    O15   1.395690 S    
C3    H5    1.105932 S    
O14   P8    1.753439 S    
Ba1   O13   2.804084 S    
C33   C34   1.391868 A    
P4    O13   1.564514 S    
O8    Ba1   2.797406 S    
P8    O23   1.547297 D    
C1    H18   1.111279 S    
C35   C36   1.436344 A    
P5    O18   1.543578 D    
C24   C30   1.409396 A    
C31   C39   1.380957 A    
C13   H24   1.104058 S    
O7    Ba1   2.888004 S    
C20   C21   1.395557 A    
P3    C34   1.842355 S    
C9    H17   1.111333 S    
C1    C10   1.538268 S    
C9    H16   1.111080 S    
H29   C16   1.102637 S    
C40   F6    1.346176 S    
C11   C12   1.517717 S    
P5    O19   1.755794 S    
O14   Ba2   2.796243 S    
P1    C18   1.845233 S    
Ba1   O20   2.929753 S    
P1    O5    1.743027 S    
C12   H21   1.108496 S    
P1    O2    1.564631 S    
P7    O22   1.746273 S    
O2    Ba1   2.941809 S    
C3    F4    1.377454 S    
P2    O10   1.752219 S    
C6    H11   1.105947 S    
P3    O9    1.546869 D    
O17   Ba2   2.798008 S    
O11   C2    1.411497 S    
C15   C16   1.540367 S    
C6    C7    1.512942 S    
O19   C13   1.401622 S    
C27   H33   1.082416 S    
C17   C23   1.410949 A    
C5    H10   1.103493 S    
P3    O8    1.736856 S    
C9    F3    1.378714 S    
C29   H32   1.082177 S    
C12   H23   1.110073 S    
C15   O24   1.413270 S    
C33   H36   1.079632 S    
P4    O12   1.530715 D    
O6    P6    1.752321 S    
C27   C28   1.392905 A    
P7    C38   1.840242 S    
O4    P6    1.534268 D    
P5    C39   1.843340 S    
C36   C40   1.424023 A    
C31   C38   1.391211 A    
C22   C23   1.418390 A    
C24   C26   1.430527 A    
O2    Ba2   2.804673 S    
C8    F2    1.379116 S    
C7    Cl1   1.763866 S    
C36   C37   1.431152 A    
C14   Cl4   1.782697 S    
C5    H9    1.107156 S    
O1    Ba1   2.830651 S    
P7    O21   1.570884 D    
C3    F7    1.385032 S    
C8    C9    1.526806 S    
C21   H31   1.084250 S    
C26   C27   1.397216 A    
C30   H35   1.079086 S    
P1    O1    1.530357 D    
P1    Ba1   3.399729 S    
C33   C37   1.409922 A    
C7    H14   1.104684 S    
C4    H7    1.111143 S    
C19   F5    1.356415 S    
C25   C29   1.407938 A    
C14   H25   1.111687 S    
O16   P7    1.767110 S    
Ba2   O21   2.888226 S    
C16   H30   1.107359 S    
O16   Ba2   2.928957 S    
C24   C25   1.420398 A    
C31   H37   1.082343 S    
C1    H2    1.107623 S    
C18   C19   1.393589 A    
C17   H34   1.078407 S    
C10   Cl2   1.772745 S    
C15   H28   1.109316 S    
C32   C35   1.400558 A    
O6    C10   1.406045 S    
P4    C26   1.854974 S    
C13   Cl3   1.763705 S    
O3    Ba1   2.796858 S    
P2    O20   1.598603 S    
Ba2   O20   2.843666 S    
P4    Ba2   3.400197 S    
