data_mof_unit_40211.cif
_audit_creation_date              2012-12-11T15:29:34-0500
_audit_creation_method            fapswitch 2.2
_symmetry_space_group_name_H-M    P1
_symmetry_Int_Tables_number       1
_space_group_crystal_system       triclinic
_cell_length_a                    8.481729
_cell_length_b                    15.136945
_cell_length_c                    19.246879
_cell_angle_alpha                 96.892785
_cell_angle_beta                  95.070841
_cell_angle_gamma                 99.125474
_cell_volume                      2407.56027746

loop_
_atom_site_label
_atom_site_type_symbol
_atom_type_description
_atom_site_fract_x
_atom_site_fract_y
_atom_site_fract_z
_atom_type_partial_charge
Ba1   Ba    Ba6+2 0.161760 0.544680 0.467770 1.599442
Ba2   Ba    Ba6+2 0.648420 0.455310 0.532170 1.589249
C1    C     C_3   0.443718 0.859060 0.230049 0.054014
C2    C     C_3   0.446677 0.793530 0.286040 0.415533
C3    C     C_3   0.482764 0.754328 0.672576 0.349827
C4    C     C_3   0.549406 0.848983 0.714254 -0.059511
C5    C     C_3   0.897149 0.208785 0.701178 0.429367
C6    C     C_3   0.940468 0.146792 0.755054 -0.084989
C7    C     C_3   0.409118 0.258079 0.717955 0.397320
C8    C     C_3   0.455661 0.234980 0.791276 -0.106872
C9    C     C_R   0.158891 0.174061 0.548003 0.011410
C10   C     C_R   0.092501 0.081630 0.540247 -0.054742
C11   C     C_R   0.959154 0.893171 0.530004 -0.033496
C12   C     C_3   0.915731 0.786196 0.295924 0.528000
C13   C     C_R   0.108194 0.930999 0.570157 0.164664
C14   C     C_R   0.175925 0.020893 0.570208 -0.132228
C15   C     C_R   0.896246 0.797180 0.517515 0.062990
C16   C     C_R   0.749498 0.769149 0.473429 -0.211609
C17   C     C_R   0.913712 0.207730 0.486355 0.039653
C18   C     C_R   0.848668 0.112707 0.476677 -0.030722
C19   C     C_R   0.936693 0.050172 0.505930 0.034185
C20   C     C_R   0.696144 0.078163 0.440694 -0.049176
C21   C     C_R   0.628877 0.987230 0.436704 -0.089790
C22   C     C_R   0.715171 0.924471 0.463566 -0.037650
C23   C     C_3   0.856219 0.842052 0.241423 -0.354735
C24   C     C_R   0.870970 0.955505 0.499240 -0.022985
C25   C     C_R   0.651356 0.831333 0.453460 -0.002023
C26   C     C_R   0.063177 0.236850 0.527529 -0.207979
C27   C     C_R   0.614428 0.527034 0.296045 -0.291297
C28   C     C_R   0.459393 0.481884 0.272686 0.036212
C29   C     C_R   0.406314 0.469610 0.199393 0.072847
C30   C     C_R   0.505970 0.510083 0.152127 0.027630
C31   C     C_R   0.661869 0.556515 0.178310 -0.170387
C32   C     C_R   0.715975 0.564992 0.250262 0.004726
C33   C     C_R   0.428009 0.575585 0.039582 0.069672
C34   C     C_3   0.716773 0.313386 0.307633 0.357252
C35   C     C_R   0.373204 0.561728 0.967496 -0.072887
C36   C     C_R   0.347139 0.475801 0.928247 0.041942
C37   C     C_R   0.365805 0.401303 0.963066 -0.100923
C38   C     C_R   0.417606 0.413581 0.035454 -0.071529
C39   C     C_R   0.450680 0.500428 0.074859 0.085769
C40   C     C_R   0.147978 0.423347 0.821676 -0.153909
C41   C     C_R   0.093015 0.428128 0.751541 -0.002593
C42   C     C_R   0.354734 0.512705 0.735466 0.039509
C43   C     C_R   0.409716 0.511129 0.807064 -0.013646
C44   C     C_R   0.303740 0.466726 0.850653 0.002449
C45   C     C_3   0.607573 0.252170 0.245555 0.069850
C46   C     C_R   0.196396 0.473372 0.709891 -0.267079
C47   C     C_3   0.023451 0.665544 0.692582 0.412629
C48   C     C_3   0.020842 0.702857 0.771551 0.153778
C49   C     C_3   0.212371 0.272976 0.371210 0.326195
C50   C     C_3   0.124905 0.174754 0.343055 -0.065421
H1    H     H_    0.513227 0.290103 0.227346 0.063695
H2    H     H_    0.135135 0.638127 0.685333 -0.125778
H3    H     H_    0.919207 0.611108 0.675133 0.066394
H4    H     H_    0.119907 0.313385 0.386226 0.022048
H5    H     H_    0.296148 0.274064 0.419121 0.017738
H6    H     H_    0.009049 0.165680 0.365269 0.083821
H7    H     H_    0.574423 0.797711 0.305905 -0.047450
H8    H     H_    0.495117 0.829881 0.183133 0.062728
H9    H     H_    0.349973 0.742765 0.668943 0.049445
H10   H     H_    0.678991 0.869118 0.708254 0.071853
H11   H     H_    0.487268 0.900380 0.692562 0.036791
H12   H     H_    0.816139 0.902208 0.267991 0.107712
H13   H     H_    0.010655 0.239633 0.682390 -0.027403
H14   H     H_    0.830627 0.117672 0.777591 0.095173
H15   H     H_    0.024373 0.187700 0.799059 0.108856
H16   H     H_    0.281979 0.268054 0.713942 -0.068499
H17   H     H_    0.487326 0.322397 0.712300 0.078392
H18   H     H_    0.450538 0.294276 0.830390 0.054138
H19   H     H_    0.580526 0.221223 0.796068 0.132101
H20   H     H_    0.293008 0.043116 0.599208 0.109325
H21   H     H_    0.508195 0.966725 0.411023 0.102691
H22   H     H_    0.624124 0.120769 0.416218 0.104694
H23   H     H_    0.350960 0.618723 0.941186 0.066164
H24   H     H_    0.810230 0.757077 0.321184 -0.089365
H25   H     H_    0.342121 0.333827 0.934322 0.071866
H26   H     H_    0.433440 0.354986 0.060839 0.076295
H27   H     H_    0.066374 0.390850 0.854812 0.079154
H28   H     H_    0.742309 0.583935 0.142572 0.078710
H29   H     H_    0.150274 0.482121 0.657548 0.045886
H30   H     H_    0.661238 0.525471 0.349635 0.052019
H31   H     H_    0.951541 0.865628 0.209022 0.111523
H32   H     H_    0.755691 0.799971 0.205527 0.070782
H33   H     H_    0.638551 0.349494 0.340130 0.003098
O1    O     O_2   0.165020 0.721890 0.541560 -0.445259
O2    O     O_3   0.297749 0.311449 0.319815 -0.655485
O3    O     O_3   0.992798 0.720765 0.261206 -0.581896
O4    O     O_2   0.645270 0.278050 0.458420 -0.462242
O5    O     O_3   0.917270 0.391510 0.460760 -0.513404
O6    O     O_3   0.421180 0.332490 0.586040 -0.479374
O7    O     O_3   0.802488 0.260396 0.346456 -0.659342
O8    O     O_3   0.383630 0.545490 0.584580 -0.498031
O9    O     O_3   0.845910 0.377930 0.622570 -0.485651
O10   O     O_2   0.762606 0.436373 0.746220 -0.498838
O11   O     O_3   0.814607 0.272985 0.734474 -0.613997
O12   O     O_3   0.893030 0.608480 0.539180 -0.518441
O13   O     O_3   0.426670 0.454500 0.415370 -0.487229
O14   O     O_2   0.638230 0.542350 0.670940 -0.441311
O15   O     O_3   0.544857 0.690006 0.708631 -0.614017
O16   O     O_2   0.486161 0.174782 0.533980 -0.491082
O17   O     O_3   0.432049 0.188558 0.666426 -0.622974
O18   O     O_3   0.389120 0.667500 0.413900 -0.486215
O19   O     O_2   0.328246 0.823934 0.473513 -0.481820
O20   O     O_3   0.018321 0.737766 0.653757 -0.639458
O21   O     O_3   0.357084 0.818964 0.340963 -0.569138
O22   O     O_2   0.172060 0.457600 0.329040 -0.475181
O23   O     O_3   0.964390 0.622060 0.377370 -0.495808
O24   O     O_2   0.042664 0.557036 0.253221 -0.489468
P1    P     P_3+3 0.990700 0.707490 0.561920 0.990720
P2    P     P_3+3 0.340130 0.430100 0.338870 0.952276
P3    P     P_3+3 0.926036 0.614739 0.285440 0.940874
P4    P     P_3+3 0.819590 0.292500 0.438020 0.937815
P5    P     P_3+3 0.882619 0.381061 0.713862 0.924042
P6    P     P_3+3 0.433979 0.786279 0.419968 0.944152
P7    P     P_3+3 0.471335 0.576022 0.674119 0.936015
P8    P     P_3+3 0.374170 0.215954 0.583010 0.924672
C51   C     C_3   0.382740 0.696232 0.252572 -0.318801
H34   H     H_    0.368578 0.649486 0.291878 0.146084
H35   H     H_    0.264895 0.689429 0.221220 0.150010
H36   H     H_    0.471146 0.674033 0.218959 0.020178
C52   C     C_3   0.525182 0.166410 0.270267 -0.381264
H37   H     H_    0.438148 0.125626 0.227498 0.091087
H38   H     H_    0.615873 0.125342 0.286105 0.135334
H39   H     H_    0.464986 0.185284 0.316953 0.142479
N1    N     N_3   0.696363 0.229159 0.185676 -0.514196
H40   H     H_    0.613298 0.202995 0.141727 0.169009
H41   H     H_    0.760968 0.178005 0.195921 0.185576
C53   C     C_3   0.167169 0.777392 0.796919 -0.364780
H42   H     H_    0.277936 0.747573 0.794326 0.135675
H43   H     H_    0.172270 0.833156 0.764294 0.143753
H44   H     H_    0.162852 0.806493 0.852409 0.106424
C54   C     C_3   0.027891 0.628572 0.818635 -0.438103
H45   H     H_    0.016974 0.654369 0.874245 0.122586
H46   H     H_    0.929158 0.571758 0.801357 0.146099
H47   H     H_    0.144338 0.604901 0.817570 0.099939
N2    N     N_3   0.872218 0.739234 0.779765 -0.459956
H48   H     H_    0.874842 0.796345 0.754040 0.197766
H49   H     H_    0.866909 0.761412 0.833011 0.161904
C55   C     C_3   0.274720 0.874553 0.204919 -0.363881
H50   H     H_    0.198158 0.810956 0.178982 0.124805
H51   H     H_    0.218207 0.904090 0.249939 0.171054
H52   H     H_    0.282462 0.922775 0.165671 0.086800
C56   C     C_3   0.080784 0.158892 0.262991 -0.310295
H53   H     H_    0.188799 0.158909 0.234802 0.123968
H54   H     H_    0.019389 0.213220 0.246399 0.123379
H55   H     H_    0.999309 0.093089 0.247035 0.096266
C57   C     C_3   0.210865 0.099726 0.367766 -0.445525
H56   H     H_    0.274138 0.068354 0.326002 0.126707
H57   H     H_    0.297433 0.124531 0.415189 0.129382
H58   H     H_    0.121078 0.044602 0.381315 0.133140
C58   C     C_3   0.538821 0.752333 0.599623 -0.316616
H59   H     H_    0.539391 0.818501 0.580416 0.044338
H60   H     H_    0.662327 0.736777 0.601979 0.064644
H61   H     H_    0.457697 0.700795 0.561815 0.148574
N3    N     N_3   0.528560 0.851689 0.788915 -0.499684
H62   H     H_    0.627724 0.830715 0.814721 0.199664
H63   H     H_    0.531018 0.919348 0.810095 0.164075
N4    N     N_3   0.545393 0.945377 0.257781 -0.526759
H64   H     H_    0.484779 0.981493 0.293195 0.182666
H65   H     H_    0.565206 0.982435 0.215934 0.170243
N5    N     N_3   0.793591 0.155721 0.640981 -0.504551
H66   H     H_    0.757412 0.200477 0.608107 0.227865
H67   H     H_    0.690035 0.122471 0.658563 0.205265
N6    N     N_3   0.016021 0.073318 0.724096 -0.505377
H68   H     H_    0.110758 0.100576 0.697750 0.196846
H69   H     H_    0.932412 0.029853 0.687076 0.186375
N7    N     N_3   0.030576 0.844218 0.349776 -0.442748
H70   H     H_    0.972817 0.893389 0.374314 0.116025
H71   H     H_    0.059973 0.804955 0.388468 0.220216
N8    N     N_3   0.346143 0.156898 0.806384 -0.500186
H72   H     H_    0.372148 0.099119 0.777176 0.201476
H73   H     H_    0.372371 0.150099 0.859392 0.170011
N9    N     N_3   0.192640 0.881819 0.614854 -0.447892
H74   H     H_    0.202785 0.914922 0.666360 0.157054
H75   H     H_    0.307944 0.884388 0.599572 0.185994
C59   C     C_3   0.689886 0.671971 0.446794 -0.269264
H76   H     H_    0.776227 0.629518 0.442073 0.158590
H77   H     H_    0.606996 0.640133 0.481427 0.135858
H78   H     H_    0.644237 0.667231 0.390773 0.044900
C60   C     C_3   0.124416 0.334761 0.552801 -0.249886
H79   H     H_    0.040739 0.379568 0.558766 0.160843
H80   H     H_    0.170227 0.340467 0.608834 0.041209
H81   H     H_    0.208592 0.364185 0.517443 0.129996
C61   C     C_3   0.575969 0.558397 0.838485 -0.342728
H82   H     H_    0.653358 0.581365 0.798992 0.174613
H83   H     H_    0.568441 0.619634 0.874933 0.091750
H84   H     H_    0.637482 0.511963 0.867327 0.117948
C62   C     C_3   0.452940 0.670580 0.076811 -0.430147
H85   H     H_    0.352781 0.677558 0.108932 0.120515
H86   H     H_    0.570791 0.688219 0.109237 0.110991
H87   H     H_    0.451518 0.720667 0.039122 0.110233
N10   N     N_3   0.256774 0.412966 0.171555 -0.507129
H88   H     H_    0.260508 0.347899 0.183396 0.164812
H89   H     H_    0.163684 0.436713 0.195057 0.224712
C63   C     C_3   0.837895 0.381611 0.280117 -0.276531
H90   H     H_    0.881642 0.437576 0.323223 0.131042
H91   H     H_    0.940184 0.350420 0.263109 0.134378
H92   H     H_    0.783630 0.406334 0.233416 0.055741

loop_
_geom_bond_atom_site_label_1
_geom_bond_atom_site_label_2
_ccdc_geom_bond_type
C42   C46   A    
N8    H72   S    
C6    H14   S    
N6    H68   S    
Ba2   O4    S    
C32   P3    S    
Ba1   Ba2   S    
C17   C18   A    
O15   P7    S    
C22   C25   A    
C19   C24   A    
C2    C51   S    
C15   P1    S    
O9    P5    S    
C48   N2    S    
C5    C6    S    
C29   C30   A    
C60   H79   S    
C5    O11   S    
N2    H49   S    
C50   C56   S    
C3    C58   S    
O8    P7    S    
C3    C4    S    
C37   H25   S    
N3    H62   S    
O1    P1    D    
O20   P1    S    
C7    H17   S    
C53   H42   S    
C63   H92   S    
C41   P5    S    
C36   C37   A    
Ba2   P4    S    
C61   H83   S    
O2    P2    S    
C17   P4    S    
O10   P5    D    
C13   C14   A    
C46   H29   S    
C34   C45   S    
C62   H86   S    
C49   H4    S    
C40   C44   A    
O5    P4    S    
Ba2   O5    S    
N9    H74   S    
C51   H34   S    
C10   C14   A    
Ba2   O12   S    
C7    O17   S    
C59   H77   S    
C14   H20   S    
C23   H32   S    
C21   C22   A    
N4    H65   S    
C49   H5    S    
C41   C46   A    
Ba1   O18   S    
C4    N3    S    
C45   H1    S    
C53   H44   S    
C8    H19   S    
C34   O7    S    
N7    H71   S    
C35   H23   S    
C40   H27   S    
C50   C57   S    
C1    N4    S    
O11   P5    S    
C62   H85   S    
C21   H21   S    
C56   H55   S    
C33   C62   S    
C31   C32   A    
N5    H67   S    
C60   H80   S    
C5    N5    S    
O4    P4    D    
C49   C50   S    
Ba2   O9    S    
C57   H58   S    
C57   H56   S    
C16   C59   S    
C56   H54   S    
O24   P3    D    
C49   O2    S    
O14   P7    D    
C29   N10   S    
C63   H90   S    
C61   H84   S    
C47   O20   S    
N10   H89   S    
C8    N8    S    
C47   H3    S    
C2    O21   S    
C27   C32   A    
O23   P3    S    
C51   H36   S    
C12   H24   S    
C4    H11   S    
C35   C36   A    
C62   H87   S    
O18   P6    S    
C26   C60   S    
C34   C63   S    
C27   C28   A    
C48   C53   S    
Ba1   P1    S    
C5    H13   S    
O19   P6    D    
N8    H73   S    
N4    H64   S    
C3    O15   S    
C30   C39   S    
C59   H78   S    
C18   C19   A    
O6    P8    S    
C15   C16   A    
C3    H9    S    
C55   H50   S    
C55   H52   S    
C17   C26   A    
Ba2   O13   S    
O17   P8    S    
C50   H6    S    
Ba1   O22   S    
C54   H47   S    
C58   H61   S    
C8    H18   S    
Ba1   O8    S    
C38   C39   A    
C58   H60   S    
Ba2   O14   S    
C59   H76   S    
C11   C13   A    
C54   H45   S    
C47   C48   S    
C38   H26   S    
C11   C24   A    
C40   C41   A    
C18   C20   A    
Ba1   O12   S    
C1    C2    S    
C9    P8    S    
Ba1   O5    S    
C37   C38   A    
C52   H38   S    
C42   C43   A    
C45   N1    S    
C54   H46   S    
N5    H66   S    
C7    C8    S    
C60   H81   S    
Ba1   O1    S    
N7    H70   S    
N1    H41   S    
O13   P2    S    
C13   N9    S    
C33   C35   A    
O22   P2    D    
Ba2   O8    S    
C16   C25   A    
C22   C24   A    
C57   H57   S    
C56   H53   S    
C45   C52   S    
C48   C54   S    
Ba1   O13   S    
C9    C10   A    
C31   H28   S    
C55   H51   S    
C34   H33   S    
N2    H48   S    
C28   P2    S    
C11   C15   A    
O21   P6    S    
O16   P8    D    
C30   C31   A    
C4    H10   S    
C52   H39   S    
N3    H63   S    
C7    H16   S    
C12   O3    S    
C27   H30   S    
O7    P4    S    
C1    H8    S    
O12   P1    S    
C43   C61   S    
C61   H82   S    
C28   C29   A    
C9    C26   A    
N1    H40   S    
C10   C19   A    
C2    H7    S    
N9    H75   S    
C12   C23   S    
Ba2   O6    S    
C33   C39   A    
C51   H35   S    
C36   C44   S    
C63   H91   S    
C6    N6    S    
Ba1   O23   S    
O3    P3    S    
C43   C44   A    
C58   H59   S    
C42   P7    S    
C6    H15   S    
N6    H69   S    
N10   H88   S    
C23   H31   S    
C20   H22   S    
C20   C21   A    
C1    C55   S    
C52   H37   S    
C12   N7    S    
C23   H12   S    
Ba1   P2    S    
C47   H2    S    
C53   H43   S    
C25   P6    S    
