data_mof_unit_8219.cif
_audit_creation_date              2012-12-10T17:32:12-0500
_audit_creation_method            fapswitch 2.2
_symmetry_space_group_name_H-M    P1
_symmetry_Int_Tables_number       1
_space_group_crystal_system       triclinic
_cell_length_a                    12.438263
_cell_length_b                    13.150442
_cell_length_c                    15.048211
_cell_angle_alpha                 77.772382
_cell_angle_beta                  100.763763
_cell_angle_gamma                 116.870169
_cell_volume                      2134.12172716

loop_
_atom_site_label
_atom_site_type_symbol
_atom_type_description
_atom_site_fract_x
_atom_site_fract_y
_atom_site_fract_z
_atom_type_partial_charge
C1    C     C_R   0.853443 0.285585 0.512299 0.848719
C2    C     C_R   0.036880 0.617463 0.079991 -0.113379
C3    C     C_R   0.076419 0.353888 0.084090 -0.289111
C4    C     C_R   0.069770 0.349185 0.991133 0.520693
C5    C     C_R   0.040800 0.430429 0.926097 -0.049498
C6    C     C_R   0.036209 0.524244 0.954951 -0.083367
C7    C     C_R   0.031651 0.618367 0.890084 -0.021014
C8    C     C_R   0.028366 0.711471 0.921828 0.119440
C9    C     C_R   0.040113 0.714491 0.016246 0.460732
C10   C     C_R   0.016322 0.420097 0.832552 0.433860
C11   C     C_R   0.010862 0.512085 0.767906 -0.231463
C12   C     C_R   0.002725 0.504269 0.670605 0.863962
C13   C     C_R   0.034458 0.616159 0.796768 0.164252
C14   C     C_R   0.265342 0.035625 0.421568 0.476405
C15   C     C_R   0.226129 0.838387 0.486096 -0.318780
C16   C     C_R   0.791612 0.092334 0.608159 0.382361
C17   C     C_R   0.704517 0.021387 0.668691 0.332764
C18   C     C_R   0.584989 0.008630 0.645069 0.073962
C19   C     C_R   0.548798 0.043122 0.553855 -0.040269
C20   C     C_R   0.638442 0.129764 0.499192 -0.088403
C21   C     C_R   0.426663 0.996388 0.515029 -0.051012
C22   C     C_R   0.389961 0.067836 0.444797 -0.179612
C23   C     C_R   0.144990 0.713833 0.491026 0.893284
C24   C     C_R   0.477205 0.161851 0.394016 0.175338
C25   C     C_R   0.599382 0.180726 0.414219 0.175327
C26   C     C_R   0.343563 0.878036 0.535043 0.452247
C27   C     C_R   0.184617 0.919350 0.435020 0.299338
C28   C     C_R   0.763311 0.163017 0.532363 -0.256561
C29   C     C_R   0.385250 0.406419 0.676748 0.049197
C30   C     C_R   0.745552 0.625449 0.363169 0.584670
C31   C     C_R   0.668029 0.680264 0.344108 -0.032712
C32   C     C_R   0.572476 0.643961 0.397136 0.160529
C33   C     C_R   0.559187 0.553745 0.472228 -0.076858
C34   C     C_R   0.001861 0.500230 0.329496 0.908523
C35   C     C_R   0.664160 0.531111 0.503290 0.018337
C36   C     C_R   0.456810 0.496705 0.526466 -0.189574
C37   C     C_R   0.476438 0.446584 0.617862 -0.167527
C38   C     C_R   0.587960 0.440482 0.649048 0.483847
C39   C     C_R   0.685370 0.504714 0.596799 0.132292
C40   C     C_R   0.335057 0.483129 0.494043 0.539050
C41   C     C_R   0.267267 0.390019 0.640290 0.497076
C42   C     C_R   0.033657 0.611747 0.174435 0.366392
C43   C     C_R   0.014676 0.508032 0.233428 -0.246568
C44   C     C_R   0.025319 0.418315 0.204441 0.408002
C45   C     C_R   0.045043 0.430427 0.112750 -0.031734
C46   C     C_R   0.037665 0.523593 0.049024 -0.077879
Cu1   Cu    Cu3+1 0.098270 0.475420 0.521130 1.065122
Cu2   Cu    Cu3+1 0.901730 0.524580 0.478870 1.025729
H1    H     H_    0.107941 0.298608 0.133946 0.189187
N1    N     N_R   0.246280 0.438190 0.553160 -0.279369
N2    N     N_R   0.754320 0.561190 0.447410 -0.233701
O1    O     O_R   0.972510 0.318130 0.526570 -0.522230
O2    O     O_R   0.806530 0.359650 0.490890 -0.588736
O3    O     O_R   0.082980 0.479210 0.647590 -0.486705
O4    O     O_R   0.917000 0.520730 0.611900 -0.591088
O5    O     O_R   0.193470 0.640350 0.509110 -0.574659
O6    O     O_R   0.027490 0.681870 0.473430 -0.516324
O7    O     O_R   0.083000 0.479270 0.388100 -0.524068
O8    O     O_R   0.917020 0.520790 0.352410 -0.522649
O9    O     O_3   0.047627 0.706809 0.209487 -0.498740
C47   C     C_3   0.168386 0.760683 0.249365 -0.140086
H2    H     H_    0.182489 0.712261 0.316745 0.145217
H3    H     H_    0.236076 0.770675 0.205228 0.139070
H4    H     H_    0.186720 0.848049 0.260365 0.195616
I1    I     I_    0.423316 0.255343 0.272573 -0.355775
O10   O     O_3   0.219660 0.116725 0.393887 -0.535039
C48   C     C_3   0.224929 0.163590 0.472005 -0.368399
H5    H     H_    0.315072 0.236688 0.483464 0.177942
H6    H     H_    0.205815 0.099310 0.535567 0.143382
H7    H     H_    0.154044 0.195350 0.460646 0.189883
O11   O     O_3   0.367963 0.804625 0.608590 -0.533410
C49   C     C_3   0.448339 0.765335 0.589266 -0.195165
H8    H     H_    0.400272 0.693593 0.549266 0.209480
H9    H     H_    0.483530 0.727946 0.654279 0.167269
H10   H     H_    0.526845 0.833827 0.554820 0.146083
O12   O     O_3   0.906858 0.099371 0.628702 -0.545679
C50   C     C_3   0.918483 0.032174 0.572708 -0.292875
H11   H     H_    0.925008 0.076345 0.500877 0.156666
H12   H     H_    0.842636 0.943834 0.575779 0.173816
H13   H     H_    0.002516 0.020864 0.597363 0.179721
I2    I     I_    0.476075 0.976579 0.751017 -0.298059
O13   O     O_3   0.742604 0.980871 0.755467 -0.569468
C51   C     C_3   0.689691 0.859506 0.768487 -0.159780
H14   H     H_    0.707507 0.825915 0.713594 0.165998
H15   H     H_    0.591351 0.822660 0.774233 0.184840
H16   H     H_    0.729873 0.829227 0.834650 0.221862
I3    I     I_    0.711223 0.257227 0.305185 -0.391888
O14   O     O_3   0.173290 0.332336 0.694741 -0.491573
C52   C     C_3   0.155085 0.216189 0.719418 -0.059206
H17   H     H_    0.071366 0.166915 0.753978 0.241897
H18   H     H_    0.228882 0.206609 0.769096 0.147521
H19   H     H_    0.146368 0.176739 0.658589 0.112554
O15   O     O_3   0.605748 0.386227 0.736285 -0.532275
C53   C     C_3   0.661670 0.314696 0.734274 -0.258922
H20   H     H_    0.759312 0.367510 0.726948 0.156312
H21   H     H_    0.617682 0.259909 0.678818 0.151421
H22   H     H_    0.653421 0.256418 0.800289 0.206931
I4    I     I_    0.425594 0.410523 0.821832 -0.177793
O16   O     O_3   0.029190 0.326858 0.269579 -0.594655
C54   C     C_3   0.940580 0.218210 0.247697 -0.253310
H23   H     H_    0.985055 0.168210 0.232575 0.188167
H24   H     H_    0.871329 0.222405 0.189969 0.179896
H25   H     H_    0.893529 0.168030 0.309196 0.203446
O17   O     O_3   0.304441 0.516761 0.403535 -0.545526
C55   C     C_3   0.301474 0.440728 0.348728 -0.175104
H26   H     H_    0.223466 0.356361 0.361108 0.218171
H27   H     H_    0.386069 0.429144 0.358954 0.152265
H28   H     H_    0.289488 0.476755 0.275915 0.203827
O18   O     O_3   0.821287 0.648531 0.298236 -0.492327
C56   C     C_3   0.751386 0.584992 0.225830 -0.125197
H29   H     H_    0.810033 0.603744 0.171973 0.211209
H30   H     H_    0.676291 0.608126 0.192640 0.153249
H31   H     H_    0.712820 0.490926 0.250063 0.167977
I5    I     I_    0.481862 0.754834 0.372784 -0.386334
I6    I     I_    0.710346 0.826032 0.236749 -0.279550
I7    I     I_    0.793968 0.658213 0.652462 -0.365985
O19   O     O_3   0.104992 0.275847 0.962260 -0.521748
C57   C     C_3   0.051975 0.162383 0.009213 -0.253045
H32   H     H_    0.050745 0.102511 0.966576 0.206403
H33   H     H_    0.107648 0.153162 0.074594 0.181079
H34   H     H_    0.956416 0.135233 0.021252 0.148847
O20   O     O_3   0.009226 0.324469 0.802814 -0.506269
C58   C     C_3   0.892927 0.233272 0.812277 -0.192831
H35   H     H_    0.846447 0.235700 0.867900 0.112176
H36   H     H_    0.902428 0.151431 0.828980 0.243064
H37   H     H_    0.835925 0.231717 0.746164 0.137046
I8    I     I_    0.130551 0.770444 0.708599 -0.274627
I9    I     I_    0.975260 0.837846 0.837216 -0.322522
O21   O     O_3   0.042411 0.808444 0.045818 -0.517493
C59   C     C_3   0.159848 0.900381 0.041504 -0.194506
H38   H     H_    0.233865 0.871650 0.059405 0.136192
H39   H     H_    0.173160 0.957924 0.090867 0.192237
H40   H     H_    0.169350 0.952671 0.972756 0.181947
O22   O     O_3   0.068316 0.884010 0.390551 -0.510215
C60   C     C_3   0.993890 0.898972 0.441915 -0.124469
H41   H     H_    0.016199 0.882053 0.517243 0.141118
H42   H     H_    0.898888 0.837052 0.426102 0.186125
H43   H     H_    0.997684 0.986395 0.421014 0.166135

loop_
_geom_bond_atom_site_label_1
_geom_bond_atom_site_label_2
_ccdc_geom_bond_type
C16   C28   A    
C60   H43   S    
C30   N2    A    
O15   C53   S    
Cu2   O4    S    
Cu2   O6    S    
C59   H39   S    
C19   C20   A    
C21   C26   A    
C33   C36   A    
C7    C13   A    
C3    H1    S    
C60   H41   S    
C50   H11   S    
C2    C46   A    
C55   H27   S    
C29   I4    S    
C51   H14   S    
C36   C37   A    
C19   C21   A    
C18   C19   A    
C30   C31   A    
C44   O16   S    
C58   H36   S    
C20   C25   A    
C25   I3    S    
C18   I2    S    
C60   H42   S    
C17   O13   S    
C47   H3    S    
C1    O2    A    
C56   H29   S    
C57   H32   S    
C8    I9    S    
Cu2   N2    S    
Cu1   Cu2   S    
C8    C9    A    
C1    C28   S    
C14   C27   A    
C52   H18   S    
C15   C23   S    
O10   C48   S    
C21   C22   A    
C26   O11   S    
C47   H2    S    
C49   H10   S    
C31   I6    S    
O17   C55   S    
Cu1   N1    S    
C56   H30   S    
C50   H12   S    
Cu2   O2    S    
C55   H28   S    
C30   O18   S    
C48   H5    S    
C58   H35   S    
C38   C39   A    
C24   C25   A    
C49   H9    S    
C42   O9    S    
C16   C17   A    
C15   C26   A    
C20   C28   A    
C53   H22   S    
C10   O20   S    
C45   C46   A    
C3    C45   A    
C54   H25   S    
O9    C47   S    
C48   H6    S    
C57   H34   S    
C47   H4    S    
C35   C39   A    
C43   C44   A    
C37   C38   A    
C40   O17   S    
C15   C27   A    
C31   C32   A    
C36   C40   A    
C54   H24   S    
C17   C18   A    
C14   O10   S    
O12   C50   S    
C52   H19   S    
C53   H21   S    
C56   H31   S    
C23   O5    A    
O22   C60   S    
C24   I1    S    
Cu1   O3    S    
C51   H15   S    
O13   C51   S    
C35   N2    A    
C34   O8    A    
C22   C24   A    
C4    O19   S    
C59   H40   S    
C42   C43   A    
C29   C37   A    
C3    C4    A    
C41   N1    A    
C44   C45   A    
Cu2   O8    S    
O21   C59   S    
C50   H13   S    
C23   O6    A    
C41   O14   S    
C6    C46   A    
C29   C41   A    
C16   O12   S    
C27   O22   S    
C34   C43   S    
C49   H8    S    
C58   H37   S    
C11   C12   S    
C6    C7    A    
C9    O21   S    
C55   H26   S    
O16   C54   S    
C48   H7    S    
C32   C33   A    
C14   C22   A    
C59   H38   S    
C52   H17   S    
C5    C10   A    
O18   C56   S    
Cu1   O7    S    
C11   C13   A    
C5    C6    A    
C2    C42   A    
C40   N1    A    
C38   O15   S    
C54   H23   S    
C33   C35   A    
C53   H20   S    
C1    O1    A    
C57   H33   S    
C12   O4    A    
C7    C8    A    
C10   C11   A    
C13   I8    S    
C4    C5    A    
C51   H16   S    
O11   C49   S    
O14   C52   S    
C39   I7    S    
Cu1   O1    S    
C34   O7    A    
C32   I5    S    
O20   C58   S    
O19   C57   S    
C2    C9    A    
C12   O3    A    
Cu1   O5    S    
