data_mof_unit_22839.cif
_audit_creation_date              2012-12-10T18:53:03-0500
_audit_creation_method            fapswitch 2.2
_symmetry_space_group_name_H-M    P1
_symmetry_Int_Tables_number       1
_space_group_crystal_system       triclinic
_cell_length_a                    9.826588
_cell_length_b                    10.696731
_cell_length_c                    16.776723
_cell_angle_alpha                 90.15977
_cell_angle_beta                  85.082624
_cell_angle_gamma                 89.580774
_cell_volume                      1756.89311789

loop_
_atom_site_label
_atom_site_type_symbol
_atom_type_description
_atom_site_fract_x
_atom_site_fract_y
_atom_site_fract_z
_atom_type_partial_charge
C1    C     C_R   0.499561 0.740007 0.499034 0.944956
C2    C     C_R   0.064388 0.581340 0.547480 -0.080713
C3    C     C_R   0.079590 0.418617 0.452588 -0.077077
C4    C     C_R   0.920406 0.581371 0.547425 -0.078923
C5    C     C_R   0.480994 0.498461 0.653273 0.865241
C6    C     C_R   0.518878 0.506593 0.347110 0.850614
C7    C     C_R   0.469232 0.496865 0.740061 -0.032205
C8    C     C_R   0.529918 0.544293 0.263944 -0.030627
C9    C     C_R   0.584609 0.468266 0.780366 -0.174897
C10   C     C_R   0.425029 0.617524 0.236006 -0.144701
C11   C     C_R   0.577184 0.475283 0.862897 -0.138595
C12   C     C_R   0.500470 0.259975 0.500845 0.949009
C13   C     C_R   0.433969 0.656390 0.157157 -0.128733
C14   C     C_R   0.454958 0.512152 0.905458 0.120204
C15   C     C_R   0.546559 0.620198 0.105649 0.099817
C16   C     C_R   0.337735 0.535124 0.866118 -0.176617
C17   C     C_R   0.655642 0.554281 0.134384 -0.179224
C18   C     C_R   0.344696 0.527317 0.783236 -0.204425
C19   C     C_R   0.647906 0.517136 0.213919 -0.196575
C20   C     C_2   0.452425 0.531695 0.991843 0.358159
C21   C     C_2   0.533876 0.620301 0.019361 0.353859
C22   C     C_3   0.664309 0.800087 0.001189 -0.313191
C23   C     C_R   0.599678 0.933375 0.537091 -0.371928
C24   C     C_3   0.356016 0.339062 0.022981 -0.314739
C25   C     C_3   0.830872 0.104820 0.541401 -0.290411
C26   C     C_3   0.169729 0.894726 0.457367 -0.297269
C27   C     C_R   0.400554 0.066567 0.462490 -0.375506
C28   C     C_R   0.604089 0.062141 0.537178 0.548096
C29   C     C_R   0.396301 0.937764 0.462277 0.548326
C30   C     C_R   0.501780 0.127562 0.500869 -0.212050
C31   C     C_R   0.498390 0.872385 0.498789 -0.208977
C32   C     C_R   0.935614 0.418653 0.452529 -0.077427
H1    H     H_    0.680994 0.442411 0.748161 0.162383
H2    H     H_    0.326560 0.118955 0.431414 0.179085
H3    H     H_    0.887026 0.353728 0.414581 0.118925
H4    H     H_    0.112978 0.646246 0.585441 0.119900
H5    H     H_    0.140310 0.353560 0.414723 0.124400
H6    H     H_    0.859679 0.646401 0.585309 0.125274
H7    H     H_    0.714527 0.859760 0.953546 0.196067
H8    H     H_    0.741538 0.777847 0.043804 0.170667
H9    H     H_    0.577724 0.854894 0.031239 0.156321
H10   H     H_    0.294520 0.327819 0.970868 0.173859
H11   H     H_    0.303815 0.286743 0.073595 0.193994
H12   H     H_    0.335329 0.643340 0.274805 0.171199
H13   H     H_    0.459558 0.296811 0.010224 0.153417
H14   H     H_    0.868023 0.008442 0.552073 0.143094
H15   H     H_    0.835344 0.124231 0.476005 0.145132
H16   H     H_    0.901780 0.170504 0.567631 0.191989
H17   H     H_    0.132494 0.991067 0.446666 0.143704
H18   H     H_    0.164745 0.875181 0.522760 0.149748
H19   H     H_    0.099219 0.828971 0.430856 0.191361
H20   H     H_    0.730941 0.463244 0.235438 0.146744
H21   H     H_    0.254393 0.548890 0.752973 0.154742
H22   H     H_    0.242840 0.562695 0.899343 0.148566
H23   H     H_    0.741892 0.524566 0.094051 0.138646
H24   H     H_    0.348901 0.706183 0.134656 0.131957
H25   H     H_    0.667391 0.455274 0.893672 0.136270
H26   H     H_    0.673680 0.881013 0.568179 0.180813
N1    N     N_R   0.142790 0.500030 0.500020 -0.073277
N2    N     N_R   0.857210 0.499970 0.499980 -0.072786
O1    O     O_R   0.385380 0.683250 0.500010 -0.584442
O2    O     O_3   0.363075 0.465951 0.045402 -0.623711
O3    O     O_3   0.698478 0.124556 0.579268 -0.589496
O4    O     O_3   0.302415 0.875271 0.419856 -0.597433
O5    O     O_R   0.614620 0.316750 0.499990 -0.581831
O6    O     O_R   0.614710 0.683220 0.500000 -0.635172
O7    O     O_R   0.385290 0.316780 0.500000 -0.633844
O8    O     O_R   0.371780 0.500040 0.615800 -0.627505
O9    O     O_R   0.628220 0.499960 0.384200 -0.623949
O10   O     O_R   0.601110 0.500010 0.615800 -0.614517
O11   O     O_R   0.398890 0.499990 0.384200 -0.616330
O12   O     O_3   0.618695 0.690223 0.965551 -0.626633
Zn1   Zn    Zn3+2 0.346870 0.500020 0.500000 0.957968
Zn2   Zn    Zn3+2 0.653130 0.499980 0.500000 0.961231

loop_
_geom_bond_atom_site_label_1
_geom_bond_atom_site_label_2
_ccdc_geom_bond_type
O10   Zn2   S    
C6    O9    A    
C2    C4    A    
C32   H3    S    
C5    O10   A    
O7    Zn1   S    
C26   O4    S    
C27   C29   A    
C24   H10   S    
C12   O5    A    
N1    Zn1   S    
C3    N1    A    
C1    C31   S    
C13   H24   S    
C22   H8    S    
C7    C9    A    
C7    C18   A    
C26   H18   S    
C28   C30   A    
C1    O6    A    
C29   O4    S    
C5    C7    S    
O9    Zn2   S    
C29   C31   A    
C26   H19   S    
C27   C30   A    
C9    H1    S    
C9    C11   A    
C25   H16   S    
C4    N2    A    
C6    O11   A    
C5    O8    A    
C6    C8    S    
C24   H13   S    
C19   H20   S    
N2    Zn2   S    
C17   C19   A    
C4    H6    S    
C23   H26   S    
C14   C16   A    
C13   C15   A    
C27   H2    S    
C20   O2    S    
C3    C32   A    
C12   O7    A    
C16   H22   S    
C22   H9    S    
C23   C28   A    
C32   N2    A    
C21   O12   S    
C10   H12   S    
C23   C31   A    
C8    C19   A    
C28   O3    S    
C14   C20   S    
O11   Zn1   S    
C15   C21   S    
C2    H4    S    
C20   C21   D    
C3    H5    S    
C16   C18   A    
O1    Zn1   S    
C25   O3    S    
C26   H17   S    
C22   O12   S    
C11   C14   A    
C15   C17   A    
C24   H11   S    
C17   H23   S    
C2    N1    A    
C24   O2    S    
C25   H15   S    
C18   H21   S    
C12   C30   S    
O8    Zn1   S    
C11   H25   S    
C22   H7    S    
C25   H14   S    
C8    C10   A    
O5    Zn2   S    
C1    O1    A    
C10   C13   A    
O6    Zn2   S    
