data_mof_unit_45287.cif
_audit_creation_date              2012-12-11T14:36:26-0500
_audit_creation_method            fapswitch 2.2
_symmetry_space_group_name_H-M    P1
_symmetry_Int_Tables_number       1
_space_group_crystal_system       triclinic
_cell_length_a                    13.52523
_cell_length_b                    13.46486
_cell_length_c                    27.53853
_cell_angle_alpha                 90.724492
_cell_angle_beta                  89.931267
_cell_angle_gamma                 59.932696
_cell_volume                      4339.82048696

loop_
_atom_site_label
_atom_site_type_symbol
_atom_type_description
_atom_site_fract_x
_atom_site_fract_y
_atom_site_fract_z
_atom_type_partial_charge
C1    C     C_R   0.620395 0.102222 0.569875 0.556912
C2    C     C_1   0.657756 0.687776 0.655738 -0.024075
C3    C     C_2   0.177881 0.984709 0.389276 0.577100
C4    C     C_2   0.759906 0.796952 0.728625 0.614551
C5    C     C_2   0.207305 0.431121 0.209026 0.562233
C6    C     C_2   0.468290 0.477491 0.327810 0.583742
C7    C     C_2   0.553051 0.849037 0.808205 0.622926
C8    C     C_2   0.364870 0.015625 0.725264 0.588886
C9    C     C_3   0.069794 0.153160 0.735820 -0.107861
C10   C     C_R   0.600000 0.778605 0.568554 0.561892
C11   C     C_3   0.165362 0.075860 0.771728 -0.067429
C12   C     C_1   0.091489 0.205075 0.900128 0.004874
C13   C     C_1   0.216995 0.147023 0.615096 0.027704
C14   C     C_3   0.037485 0.259562 0.769028 -0.127199
C15   C     C_3   0.133454 0.182149 0.804184 0.026314
C16   C     C_3   0.123187 0.283081 0.741060 -0.130773
C17   C     C_3   0.154530 0.177279 0.708643 0.018752
C18   C     C_1   0.635565 0.722944 0.614733 0.018172
C19   C     C_3   0.218743 0.206345 0.776978 -0.103701
C20   C     C_3   0.248986 0.101381 0.744013 0.089732
C21   C     C_1   0.115363 0.190160 0.857264 -0.024169
C22   C     C_R   0.275353 0.123435 0.569057 0.560934
C23   C     C_1   0.180494 0.164614 0.656231 -0.009648
C24   C     C_3   0.658974 0.295720 0.730515 -0.132790
C25   C     C_3   0.584509 0.289890 0.772115 -0.119430
C26   C     C_1   0.727877 0.234046 0.895356 0.000245
C27   C     C_1   0.639616 0.140366 0.615964 0.034690
C28   C     C_3   0.768167 0.220736 0.760587 -0.120911
C29   C     C_3   0.650852 0.568511 0.766955 -0.131398
C30   C     C_3   0.693427 0.214197 0.801125 0.025235
C31   C     C_3   0.777156 0.111735 0.737324 0.076567
C32   C     C_3   0.669441 0.185907 0.707700 0.023374
C33   C     C_3   0.703749 0.104516 0.778412 -0.074864
C34   C     C_R   0.621182 0.098172 0.430650 0.541057
C35   C     C_3   0.594716 0.179924 0.748583 -0.108546
C36   C     C_1   0.710600 0.225810 0.852963 -0.037360
C37   C     C_1   0.653659 0.165052 0.656614 0.000401
C38   C     C_R   0.736052 0.671010 0.361604 0.035909
C39   C     C_R   0.752151 0.655428 0.310822 -0.006096
C40   C     C_3   0.696570 0.625250 0.802323 -0.001180
C41   C     C_R   0.777496 0.620084 0.210077 -0.002021
C42   C     C_R   0.872088 0.563017 0.240282 -0.120716
C43   C     C_R   0.859654 0.579452 0.290174 -0.105653
C44   C     C_R   0.788862 0.593891 0.161225 -0.147119
C45   C     C_R   0.692471 0.636979 0.131473 -0.022555
C46   C     C_R   0.600607 0.778335 0.430004 0.571976
C47   C     C_R   0.532490 0.802494 0.348336 -0.137211
C48   C     C_R   0.547797 0.790394 0.298858 0.017055
C49   C     C_R   0.656735 0.715207 0.279680 0.049090
C50   C     C_R   0.454865 0.852961 0.268460 -0.109955
C51   C     C_3   0.575632 0.686378 0.742849 -0.119693
C52   C     C_R   0.467068 0.835481 0.218646 -0.095617
C53   C     C_R   0.572574 0.752826 0.198471 -0.002449
C54   C     C_R   0.669166 0.697208 0.229304 0.042142
C55   C     C_R   0.584104 0.721283 0.148851 0.036223
C56   C     C_R   0.624556 0.742990 0.379643 -0.007469
C57   C     C_R   0.186014 0.073062 0.360625 0.026281
C58   C     C_R   0.277704 0.121077 0.430930 0.562231
C59   C     C_R   0.160317 0.086528 0.310331 -0.018556
C60   C     C_R   0.122691 0.107840 0.209446 0.010037
C61   C     C_R   0.107382 0.027911 0.235418 -0.131259
C62   C     C_3   0.675496 0.659423 0.707656 0.001045
C63   C     C_R   0.124915 0.017914 0.285288 -0.115261
C64   C     C_R   0.099362 0.121213 0.160085 -0.122228
C65   C     C_R   0.106252 0.206999 0.134688 -0.012208
C66   C     C_R   0.220590 0.234240 0.357211 -0.135521
C67   C     C_R   0.201421 0.244135 0.307915 -0.029443
C68   C     C_R   0.172423 0.170000 0.283964 0.032041
C69   C     C_R   0.214534 0.326003 0.282426 -0.127293
C70   C     C_3   0.750476 0.541674 0.731122 -0.139382
C71   C     C_R   0.197301 0.337663 0.232469 0.039549
C72   C     C_R   0.167736 0.263535 0.207489 -0.022932
C73   C     C_3   0.622565 0.741559 0.778640 0.081693
C74   C     C_R   0.154893 0.180115 0.233598 0.041998
C75   C     C_R   0.147805 0.271781 0.157485 -0.125602
C76   C     C_R   0.220878 0.145265 0.383388 -0.013695
C77   C     C_R   0.583161 0.236793 0.364632 -0.117151
C78   C     C_R   0.582568 0.259451 0.314836 -0.012890
C79   C     C_R   0.598696 0.295276 0.215283 -0.003361
C80   C     C_R   0.544410 0.388902 0.247455 -0.089916
C81   C     C_R   0.532949 0.372963 0.296902 0.068883
C82   C     C_3   0.796910 0.597780 0.767539 -0.130972
C83   C     C_R   0.614006 0.312182 0.166645 -0.120392
C84   C     C_3   0.721282 0.715163 0.743463 0.077562
C85   C     C_R   0.676416 0.217641 0.135396 0.000370
C86   C     C_R   0.686245 0.031577 0.347705 -0.118399
C87   C     C_R   0.686726 0.050937 0.298502 0.011367
C88   C     C_R   0.636484 0.164688 0.281844 0.041824
C89   C     C_R   0.737068 0.957683 0.265799 -0.121399
C90   C     C_R   0.742773 0.976145 0.216609 -0.123420
C91   C     C_R   0.698473 0.087995 0.199743 0.017184
C92   C     C_R   0.643000 0.182846 0.232215 0.059764
C93   C     C_R   0.714476 0.106229 0.151432 -0.124402
C94   C     C_1   0.704491 0.593924 0.897996 0.018328
C95   C     C_1   0.701645 0.610144 0.855013 -0.021453
C96   C     C_R   0.635027 0.123711 0.380777 -0.002243
C97   C     C_R   0.048086 0.236804 0.949162 0.542740
C98   C     C_R   0.712912 0.560285 0.947575 0.552727
C99   C     C_R   0.751527 0.245631 0.945234 0.550255
C100  C     C_R   0.048618 0.244417 0.088149 0.549052
C101  C     C_R   0.708126 0.575807 0.085758 0.573927
C102  C     C_R   0.718360 0.234698 0.089363 0.554069
C103  C     C_2   0.887238 0.011685 0.719476 0.571849
C104  C     C_2   0.833079 0.613867 0.395818 0.568628
C105  C     C_2   0.484676 0.771118 0.115586 0.577642
Cr1   Cr    Cr6+3 0.417550 0.169090 0.500530 1.055163
Cr2   Cr    Cr6+3 0.669180 0.913420 0.499920 1.085750
Cr3   Cr    Cr6+3 0.413260 0.917540 0.499520 1.087535
Cr4   Cr    Cr6+3 0.909170 0.177380 0.020380 1.040961
Cr5   Cr    Cr6+3 0.912710 0.429210 0.018220 1.049335
Cr6   Cr    Cr6+3 0.657170 0.432570 0.019030 1.067879
H1    H     H_    0.887512 0.561501 0.778295 0.140462
H2    H     H_    0.872390 0.529634 0.147513 0.163033
H3    H     H_    0.802594 0.459159 0.711156 0.121476
H4    H     H_    0.955068 0.501741 0.225416 0.152255
H5    H     H_    0.934302 0.529281 0.312075 0.169868
H6    H     H_    0.371993 0.913854 0.283362 0.133841
H7    H     H_    0.448148 0.862835 0.362649 0.157217
H8    H     H_    0.068127 0.070038 0.142318 0.139147
H9    H     H_    0.110221 0.956031 0.303702 0.174539
H10   H     H_    0.158137 0.332590 0.136084 0.186781
H11   H     H_    0.244529 0.291997 0.374372 0.164241
H12   H     H_    0.281201 0.226236 0.794124 0.130306
H13   H     H_    0.585081 0.398472 0.154117 0.141404
H14   H     H_    0.545109 0.305253 0.391456 0.169847
H15   H     H_    0.509361 0.475223 0.233750 0.157991
H16   H     H_    0.762176 0.033556 0.126978 0.133503
H17   H     H_    0.773979 0.870347 0.278419 0.133864
H18   H     H_    0.722530 0.944029 0.360138 0.146651
H19   H     H_    0.484909 0.720470 0.732965 0.167546
H20   H     H_    0.621757 0.508237 0.777913 0.127099
H21   H     H_    0.184520 0.990270 0.784602 0.169350
H22   H     H_    0.979666 0.911447 0.662924 0.356841
H23   H     H_    0.104463 0.368378 0.727981 0.131654
H24   H     H_    0.990175 0.581443 0.415207 0.349361
H25   H     H_    0.323249 0.807393 0.102631 0.342286
H26   H     H_    0.392685 0.885647 0.196591 0.165648
H27   H     H_    0.114746 0.949401 0.448813 0.346029
H28   H     H_    0.080368 0.973771 0.217183 0.130852
H29   H     H_    0.722777 0.940541 0.692689 0.352232
H30   H     H_    0.292609 0.518113 0.205186 0.349178
H31   H     H_    0.236873 0.382600 0.301835 0.172071
H32   H     H_    0.431138 0.639918 0.342531 0.370306
H33   H     H_    0.537050 0.996411 0.835052 0.339307
H34   H     H_    0.950088 0.326540 0.780331 0.109630
H35   H     H_    0.784560 0.902906 0.191998 0.129590
H36   H     H_    0.009165 0.132618 0.717541 0.147689
H37   H     H_    0.456226 0.881873 0.680131 0.342398
H38   H     H_    0.504922 0.363527 0.787138 0.127191
H39   H     H_    0.640864 0.373501 0.710081 0.120913
H40   H     H_    0.521958 0.165130 0.743325 0.188931
H41   H     H_    0.722993 0.025722 0.798292 0.189996
H42   H     H_    0.838431 0.238684 0.766773 0.104174
O1    O     O_R   0.301710 0.195650 0.554160 -0.503699
O2    O     O_R   0.635520 0.542770 0.964420 -0.495717
O3    O     O_R   0.665950 0.325030 0.970100 -0.489052
O4    O     O_R   0.522390 0.158990 0.550460 -0.498561
O5    O     O_R   0.816620 0.158530 0.074540 -0.512487
O6    O     O_R   0.004460 0.188870 0.069750 -0.501096
O7    O     O_R   0.025800 0.341780 0.072300 -0.510369
O8    O     O_R   0.807650 0.528950 0.067500 -0.504317
O9    O     O_R   0.633420 0.550490 0.071810 -0.481997
O10   O     O_R   0.664000 0.332180 0.069640 -0.495053
O11   O     O_3   0.826350 0.346390 0.019210 -0.285869
O12   O     O_R   0.658900 0.818120 0.449760 -0.489113
O13   O     O_R   0.694390 0.003530 0.554040 -0.482293
O14   O     O_R   0.657700 0.819660 0.549320 -0.479312
O15   O     O_R   0.501930 0.803280 0.552920 -0.497435
O16   O     O_R   0.318170 0.023580 0.549580 -0.478610
O17   O     O_R   0.303010 0.193990 0.446760 -0.519003
O18   O     O_R   0.523600 0.157450 0.450900 -0.499042
O19   O     O_R   0.695690 0.001860 0.446640 -0.504726
O20   O     O_2   0.964252 0.958174 0.748183 -0.493720
O21   O     O_R   0.901711 0.980262 0.670332 -0.696338
O22   O     O_2   0.826441 0.560668 0.430135 -0.499078
O23   O     O_R   0.503220 0.801620 0.445520 -0.499579
O24   O     O_R   0.930425 0.623671 0.389521 -0.703407
O25   O     O_2   0.492008 0.808910 0.076432 -0.498960
O26   O     O_R   0.384353 0.771542 0.128347 -0.706347
O27   O     O_2   0.230052 0.883949 0.376211 -0.533833
O28   O     O_R   0.112790 0.016984 0.432073 -0.670098
O29   O     O_2   0.855844 0.777505 0.738793 -0.490558
O30   O     O_R   0.686057 0.894184 0.702426 -0.658847
O31   O     O_2   0.136197 0.494156 0.179789 -0.542834
O32   O     O_R   0.295270 0.451171 0.222814 -0.693566
O33   O     O_2   0.400448 0.482454 0.358476 -0.509936
O34   O     O_R   0.319370 0.022040 0.450020 -0.476378
O35   O     O_R   0.480849 0.573039 0.319943 -0.690308
O36   O     O_2   0.464684 0.866066 0.827823 -0.516416
O37   O     O_R   0.591131 0.927493 0.814310 -0.672173
O38   O     O_2   0.446184 0.028697 0.733568 -0.501643
O39   O     O_R   0.376989 0.926462 0.694895 -0.704820
O40   O     O_3   0.499990 0.000010 0.499990 -0.277916
O41   O     O_R   0.818720 0.150820 0.967160 -0.489389
O42   O     O_R   0.006410 0.181720 0.970200 -0.503923
O43   O     O_R   0.027890 0.334070 0.964920 -0.500707
O44   O     O_R   0.809600 0.521790 0.967960 -0.497266

loop_
_geom_bond_atom_site_label_1
_geom_bond_atom_site_label_2
_ccdc_geom_bond_type
H37   O39   S    
C87   C88   A    
Cr2   O12   S    
C46   O12   A    
C2    C18   T    
C50   H6    S    
C41   C42   A    
Cr3   O34   S    
C19   C20   S    
C100  O6    A    
C5    O32   S    
C105  O25   D    
C19   H12   S    
C16   H23   S    
C11   H21   S    
C102  O5    A    
C93   H16   S    
C58   C76   S    
C7    C73   S    
C77   C78   A    
C70   H3    S    
C15   C19   S    
C51   C62   S    
C14   H34   S    
C13   C23   T    
C8    C20   S    
C64   H8    S    
H33   O37   S    
C55   C105  S    
C97   O43   A    
C101  O9    A    
C58   O17   A    
C34   C96   S    
C29   C51   S    
C38   C39   A    
C43   H5    S    
C57   C59   A    
C94   C98   S    
C8    O38   D    
C68   C74   A    
C49   C54   A    
C6    O35   S    
C103  O20   D    
C17   C20   S    
C40   C73   S    
C62   C70   S    
C25   H38   S    
H32   O35   S    
C69   C71   A    
H27   O28   S    
C38   C104  S    
C51   C73   S    
C85   C93   A    
Cr5   O8    S    
C47   H7    S    
C104  O24   S    
C102  O10   A    
Cr1   O1    S    
C4    C84   S    
C10   O15   A    
C50   C52   A    
C66   H11   S    
C7    O37   S    
C83   H13   S    
Cr1   O40   S    
Cr6   O3    S    
C73   C84   S    
C30   C33   S    
C26   C99   S    
C48   C50   A    
C66   C67   A    
Cr3   O15   S    
Cr2   O13   S    
C101  O8    A    
C6    C81   S    
Cr3   O16   S    
Cr5   O44   S    
Cr1   O17   S    
Cr6   O9    S    
C35   H40   S    
C17   C23   S    
C105  O26   S    
C72   C75   A    
Cr4   O5    S    
C51   H19   S    
C104  O22   D    
Cr2   O19   S    
C53   C55   A    
C10   C18   S    
Cr2   O14   S    
C11   C20   S    
H29   O30   S    
C28   C31   S    
C31   C33   S    
C67   C68   A    
C32   C35   S    
C40   C82   S    
C34   O19   A    
Cr6   O10   S    
C24   C25   S    
H24   O24   S    
C72   C74   A    
C1    O4    A    
C91   C92   A    
Cr5   O11   S    
C86   C87   A    
C16   C17   S    
C39   C43   A    
C69   H31   S    
C53   C54   A    
C12   C21   T    
C33   H41   S    
C103  O21   S    
C26   C36   T    
C60   C61   A    
C67   C69   A    
C31   C103  S    
C82   H1    S    
C10   O14   A    
C9    C14   S    
C24   C32   S    
C59   C68   A    
C91   C93   A    
C9    C11   S    
C100  O7    A    
C47   C48   A    
C99   O41   A    
C24   H39   S    
H22   O21   S    
C66   C76   A    
C99   O3    A    
C61   C63   A    
C52   H26   S    
C12   C97   S    
Cr4   O41   S    
C88   C92   A    
C32   C37   S    
C86   C96   A    
C3    O28   S    
C79   C92   A    
C45   C101  S    
C25   C35   S    
C3    C57   S    
C9    C17   S    
C48   C49   A    
C83   C85   A    
C44   H2    S    
C11   C15   S    
C87   C89   A    
Cr5   O43   S    
C28   H42   S    
C41   C44   A    
C14   C16   S    
H30   O32   S    
C42   C43   A    
C40   C95   S    
Cr4   O6    S    
Cr1   O18   S    
Cr2   O40   S    
C77   H14   S    
C44   C45   A    
C57   C76   A    
C29   C70   S    
C22   O1    A    
C78   C88   A    
C25   C30   S    
C34   O18   A    
C62   C84   S    
C98   O2    A    
C5    O31   D    
C98   O44   A    
C39   C49   A    
C58   O34   A    
C75   H10   S    
C59   C63   A    
C31   C32   S    
C61   H28   S    
Cr6   O11   S    
C24   C28   S    
C65   C100  S    
C80   C81   A    
Cr4   O11   S    
C86   H18   S    
Cr1   O4    S    
C6    O33   D    
C77   C96   A    
C82   C84   S    
C65   C75   A    
C30   C36   S    
C60   C64   A    
C64   C65   A    
C97   O42   A    
C28   C30   S    
C89   C90   A    
C71   C72   A    
C90   H35   S    
C79   C83   A    
C63   H9    S    
C78   C81   A    
C90   C91   A    
C29   H20   S    
C80   H15   S    
C1    O13   A    
C8    O39   S    
C16   C19   S    
Cr3   O23   S    
C29   C40   S    
C60   C74   A    
C33   C35   S    
C9    H36   S    
C13   C22   S    
Cr4   O42   S    
C46   O23   A    
C4    O30   S    
C94   C95   T    
C70   C82   S    
Cr5   O7    S    
C41   C54   A    
C22   O16   A    
C3    O27   D    
C79   C80   A    
C27   C37   T    
C42   H4    S    
C15   C21   S    
C38   C56   A    
C45   C55   A    
C5    C71   S    
C46   C56   S    
C1    C27   S    
C14   C15   S    
C7    O36   D    
C4    O29   D    
Cr3   O40   S    
Cr6   O2    S    
H25   O26   S    
C85   C102  S    
C2    C62   S    
C52   C53   A    
C47   C56   A    
C89   H17   S    
