data_mof_unit_54043.cif
_audit_creation_date              2013-03-05T15:40:13-0500
_audit_creation_method            fapswitch 2.2
_symmetry_space_group_name_H-M    P1
_symmetry_Int_Tables_number       1
_space_group_crystal_system       triclinic
_cell_length_a                    12.36126
_cell_length_b                    12.361161
_cell_length_c                    23.191896
_cell_angle_alpha                 90.003533
_cell_angle_beta                  90.000878
_cell_angle_gamma                 90.001412
_cell_volume                      3543.71068495

loop_
_atom_site_label
_atom_site_type_symbol
_atom_site_description
_atom_site_fract_x
_atom_site_fract_y
_atom_site_fract_z
_atom_type_partial_charge
O1    O     O_R   0.907020 0.615090 0.941240 -0.562367
O2    O     O_R   0.092980 0.384910 0.058760 -0.562380
O3    O     O_R   0.384910 0.907020 0.441240 -0.562334
O4    O     O_R   0.615090 0.092980 0.558760 -0.562363
O5    O     O_R   0.092980 0.384910 0.941240 -0.562372
O6    O     O_R   0.907020 0.615090 0.058760 -0.562320
O7    O     O_R   0.615090 0.092980 0.441240 -0.562384
O8    O     O_R   0.384910 0.907020 0.558760 -0.562364
O9    O     O_R   0.907020 0.384910 0.058760 -0.578189
O10   O     O_R   0.092980 0.615090 0.941240 -0.578154
O11   O     O_R   0.384910 0.092980 0.558760 -0.578157
O12   O     O_R   0.615090 0.907020 0.441240 -0.578141
O13   O     O_R   0.092980 0.615090 0.058760 -0.578137
O14   O     O_R   0.907020 0.384910 0.941240 -0.578148
O15   O     O_R   0.615090 0.907020 0.558760 -0.578161
O16   O     O_R   0.384910 0.092980 0.441240 -0.578172
C1    C     C_3   0.000011 0.000049 0.250002 -0.104565
C2    C     C_3   0.000007 0.999982 0.750001 -0.104580
C3    C     C_R   0.001276 0.100434 0.207627 -0.094933
C4    C     C_R   0.998739 0.899592 0.792379 -0.095072
C5    C     C_R   0.899605 0.001254 0.707624 -0.095158
C6    C     C_R   0.100411 0.998805 0.292372 -0.095179
C7    C     C_R   0.998755 0.899630 0.207623 -0.095454
C8    C     C_R   0.001283 0.100372 0.792386 -0.095094
C9    C     C_R   0.100401 0.998716 0.707621 -0.095127
C10   C     C_R   0.899623 0.001327 0.292391 -0.095061
Cu1   Cu    Cu3+1 0.889520 0.500000 0.000000 1.097967
Cu2   Cu    Cu3+1 0.110480 0.500000 0.000000 1.097970
Cu3   Cu    Cu3+1 0.500000 0.889520 0.500000 1.097984
Cu4   Cu    Cu3+1 0.500000 0.110480 0.500000 1.097959
C11   C     C_R   0.000083 0.648559 0.921404 0.816500
C12   C     C_R   0.999915 0.351436 0.078592 0.816482
C13   C     C_R   0.351447 0.000081 0.421400 0.816497
C14   C     C_R   0.648559 0.999918 0.578597 0.816491
C15   C     C_R   0.999917 0.351438 0.921404 0.816508
C16   C     C_R   0.000086 0.648547 0.078604 0.816487
C17   C     C_R   0.648561 0.999916 0.421405 0.816485
C18   C     C_R   0.351442 0.000085 0.578597 0.816517
C19   C     C_R   0.084145 0.184488 0.206434 0.426538
C20   C     C_R   0.915893 0.815521 0.793550 0.426621
C21   C     C_R   0.815525 0.084094 0.706459 0.426525
C22   C     C_R   0.184482 0.915976 0.293521 0.426644
C23   C     C_R   0.915974 0.815494 0.206490 0.426443
C24   C     C_R   0.084124 0.184449 0.793558 0.426607
C25   C     C_R   0.184481 0.915877 0.706446 0.426529
C26   C     C_R   0.815531 0.084159 0.293567 0.426503
C27   C     C_R   0.078960 0.893941 0.838173 0.349499
C28   C     C_R   0.921023 0.106088 0.161851 0.349576
C29   C     C_R   0.894000 0.921126 0.338196 0.349492
C30   C     C_R   0.106041 0.078930 0.661823 0.349609
C31   C     C_R   0.921069 0.106020 0.838184 0.349512
C32   C     C_R   0.078898 0.894025 0.161783 0.349702
C33   C     C_R   0.106073 0.079009 0.338175 0.349592
C34   C     C_R   0.893960 0.921052 0.661815 0.349623
C35   C     C_R   0.079282 0.266868 0.165146 -0.112569
C36   C     C_R   0.920735 0.733133 0.834837 -0.112520
C37   C     C_R   0.733129 0.079243 0.665174 -0.112634
C38   C     C_R   0.266871 0.920773 0.334810 -0.112398
C39   C     C_R   0.920826 0.733077 0.165213 -0.112746
C40   C     C_R   0.079267 0.266851 0.834841 -0.112542
C41   C     C_R   0.266878 0.920745 0.665164 -0.112627
C42   C     C_R   0.733125 0.079267 0.334843 -0.112698
C43   C     C_R   0.080049 0.808829 0.877092 -0.104112
C44   C     C_R   0.919925 0.191190 0.122926 -0.103999
C45   C     C_R   0.808873 0.920003 0.377107 -0.104043
C46   C     C_R   0.191163 0.080037 0.622909 -0.104024
C47   C     C_R   0.919969 0.191144 0.877099 -0.104090
C48   C     C_R   0.080002 0.808879 0.122880 -0.104029
C49   C     C_R   0.191184 0.080067 0.377097 -0.104108
C50   C     C_R   0.808838 0.919959 0.622900 -0.104048
H1    H     H_    0.142233 0.327952 0.164168 0.196655
H2    H     H_    0.857792 0.672040 0.835798 0.196645
H3    H     H_    0.672029 0.142176 0.664215 0.196675
H4    H     H_    0.327958 0.857826 0.335750 0.196569
H5    H     H_    0.857924 0.671941 0.164276 0.196676
H6    H     H_    0.142202 0.327952 0.835802 0.196650
H7    H     H_    0.327979 0.857814 0.664196 0.196682
H8    H     H_    0.672010 0.142185 0.335810 0.196704
H9    H     H_    0.141011 0.807894 0.910756 0.195316
H10   H     H_    0.858942 0.192129 0.089273 0.195278
H11   H     H_    0.807957 0.859057 0.410777 0.195308
H12   H     H_    0.192090 0.140989 0.589243 0.195300
H13   H     H_    0.859012 0.192079 0.910765 0.195307
H14   H     H_    0.140895 0.807984 0.089182 0.195304
H15   H     H_    0.192125 0.141011 0.410771 0.195297
H16   H     H_    0.807910 0.859016 0.589225 0.195300
C51   C     C_R   0.999002 0.269598 0.123617 -0.149436
C52   C     C_R   0.000992 0.730406 0.876381 -0.149559
C53   C     C_R   0.730406 0.999003 0.623621 -0.149566
C54   C     C_R   0.269599 0.001000 0.376375 -0.149510
C55   C     C_R   0.001013 0.730393 0.123633 -0.149685
C56   C     C_R   0.999011 0.269581 0.876383 -0.149569
C57   C     C_R   0.269599 0.000997 0.623622 -0.149563
C58   C     C_R   0.730412 0.999014 0.376384 -0.149609
N1    N     N_R   0.180321 0.186418 0.241292 0.099583
O17   O     O_R   0.257223 0.117639 0.230823 -0.287203
O18   O     O_R   0.207523 0.276711 0.266293 -0.269843
N2    N     N_R   0.819751 0.813596 0.758674 0.099431
O19   O     O_R   0.742748 0.882217 0.769229 -0.286941
O20   O     O_R   0.792661 0.723343 0.733597 -0.269863
N3    N     N_R   0.813605 0.180256 0.741328 0.099608
O21   O     O_R   0.723319 0.207449 0.766330 -0.269865
O22   O     O_R   0.882366 0.257171 0.730855 -0.287149
N4    N     N_R   0.186359 0.819863 0.258628 0.099014
O23   O     O_R   0.118036 0.742648 0.269398 -0.286494
O24   O     O_R   0.276511 0.792996 0.233370 -0.269932
N5    N     N_R   0.819820 0.813580 0.241358 0.099532
O25   O     O_R   0.742833 0.882215 0.230802 -0.286936
O26   O     O_R   0.792701 0.723330 0.266422 -0.269877
N6    N     N_R   0.180277 0.186369 0.758690 0.099470
O27   O     O_R   0.257252 0.117715 0.769225 -0.286973
O28   O     O_R   0.207397 0.276621 0.733630 -0.269880
N7    N     N_R   0.186403 0.819705 0.741302 0.099629
O29   O     O_R   0.276701 0.792485 0.766286 -0.269852
O30   O     O_R   0.117612 0.742810 0.730834 -0.287165
N8    N     N_R   0.813597 0.180351 0.258720 0.099711
O31   O     O_R   0.882454 0.257200 0.269143 -0.287228
O32   O     O_R   0.723283 0.207620 0.233769 -0.269869
N9    N     N_R   0.157841 0.976113 0.849618 0.112570
O33   O     O_R   0.136970 0.043359 0.891325 -0.341616
O34   O     O_R   0.259025 0.952854 0.840718 -0.219136
N10   N     N_R   0.842119 0.023921 0.150436 0.112645
O35   O     O_R   0.740948 0.047185 0.159371 -0.219223
O36   O     O_R   0.862938 0.956645 0.108736 -0.341465
N11   N     N_R   0.976219 0.842308 0.349664 0.112505
O37   O     O_R   0.043438 0.863267 0.391370 -0.341668
O38   O     O_R   0.953025 0.741100 0.340794 -0.219122
N12   N     N_R   0.023836 0.157768 0.650360 0.112589
O39   O     O_R   0.047052 0.258972 0.659234 -0.219065
O40   O     O_R   0.956607 0.136826 0.608656 -0.341697
N13   N     N_R   0.842206 0.023836 0.849633 0.112545
O41   O     O_R   0.863099 0.956608 0.891341 -0.341677
O42   O     O_R   0.741016 0.047072 0.840738 -0.219135
N14   N     N_R   0.157615 0.976313 0.150240 0.112509
O43   O     O_R   0.258870 0.953242 0.159057 -0.218848
O44   O     O_R   0.136505 0.043444 0.108516 -0.341898
N15   N     N_R   0.023913 0.157896 0.349625 0.112636
O45   O     O_R   0.956672 0.137034 0.391331 -0.341611
O46   O     O_R   0.047175 0.259073 0.340721 -0.219090
N16   N     N_R   0.976167 0.842221 0.650337 0.112598
O47   O     O_R   0.952955 0.741012 0.659192 -0.219027
O48   O     O_R   0.043391 0.863181 0.608635 -0.341707

loop_
_geom_bond_atom_site_label_1
_geom_bond_atom_site_label_2
_geom_bond_distance
_ccdc_geom_bond_type
C23   N5    1.437794 S    
C47   H13   1.085131 S    
N3    O21   1.301841 A    
C9    C25   1.459296 A    
O12   Cu3   1.981903 S    
C2    C5    1.583178 S    
C32   N14   1.432869 S    
N1    O17   1.298250 A    
C33   C49   1.386293 A    
N12   O39   1.299873 A    
C22   C38   1.399151 A    
N4    O24   1.302044 A    
C37   C53   1.383286 A    
C43   H9    1.085130 S    
C34   N16   1.432837 S    
N15   O46   1.299807 A    
O9    Cu1   1.981936 S    
C1    C7    1.583318 S    
C29   C45   1.386312 A    
C26   C42   1.399187 A    
C33   N15   1.432787 S    
O8    Cu3   1.981891 S    
N16   O48   1.301181 A    
C28   N10   1.432796 S    
C5    C34   1.454742 A    
C4    C20   1.459239 A    
C41   C57   1.383300 A    
C36   C52   1.383337 A    
O3    C13   1.306214 A    
O16   Cu4   1.981855 S    
O1    C11   1.306201 A    
C48   C55   1.376546 A    
C7    C23   1.459238 A    
N8    O31   1.298156 A    
O2    C12   1.306212 A    
C37   H3    1.084492 S    
O12   C17   1.304397 A    
O3    Cu3   1.981881 S    
C9    C30   1.454743 A    
O9    C12   1.304375 A    
N6    O27   1.298193 A    
O10   C11   1.304407 A    
C19   C35   1.399142 A    
O11   Cu4   1.981902 S    
C41   H7    1.084494 S    
C20   C36   1.399179 A    
N5    O25   1.298244 A    
O13   Cu2   1.981819 S    
C35   H1    1.084498 S    
O14   Cu1   1.981821 S    
O15   C14   1.304366 A    
C32   C48   1.386300 A    
C23   C39   1.399216 A    
C15   C56   1.453964 S    
C8    C31   1.454722 A    
C27   N9    1.432778 S    
N3    O22   1.298226 A    
O7    Cu4   1.981892 S    
C44   H10   1.085123 S    
C2    C9    1.583158 S    
O8    C18   1.306201 A    
N4    O23   1.298711 A    
O15   Cu3   1.981853 S    
C6    C33   1.454670 A    
N5    O26   1.301877 A    
C40   C56   1.383325 A    
O4    C14   1.306218 A    
C48   H14   1.085133 S    
N16   O47   1.299870 A    
O13   C16   1.304386 A    
C10   C29   1.454746 A    
O14   C15   1.304406 A    
C31   N13   1.432779 S    
C3    C28   1.454670 A    
N14   O44   1.301209 A    
C36   H2    1.084497 S    
C12   C51   1.453963 S    
C40   H6    1.084498 S    
C27   C43   1.386301 A    
N12   O40   1.301179 A    
O11   C18   1.304385 A    
Cu3   Cu4   2.731321 S    
O16   C13   1.304382 A    
C46   H12   1.085129 S    
O5    Cu2   1.981809 S    
C30   C46   1.386308 A    
C45   H11   1.085127 S    
O6    Cu1   1.981807 S    
C34   C50   1.386301 A    
O7    C17   1.306186 A    
C31   C47   1.386293 A    
C38   C54   1.383366 A    
C19   N1    1.437862 S    
N9    O34   1.299879 A    
C3    C19   1.459305 A    
N8    O32   1.301855 A    
C46   C57   1.376571 A    
C5    C21   1.459302 A    
C16   C55   1.454010 S    
C45   C58   1.376545 A    
N2    O20   1.301886 A    
C42   C58   1.383287 A    
N11   O37   1.301164 A    
C8    C24   1.459253 A    
C2    C8    1.583117 S    
C50   C53   1.376578 A    
C30   N12   1.432832 S    
C1    C10   1.583222 S    
N10   O36   1.301165 A    
C49   C54   1.376630 A    
C50   H16   1.085128 S    
C39   H5    1.084495 S    
C49   H15   1.085126 S    
C38   H4    1.084505 S    
O1    Cu1   1.981933 S    
N7    O29   1.301874 A    
C39   C55   1.383298 A    
O10   Cu2   1.981936 S    
C21   N3    1.437833 S    
C11   C52   1.453998 S    
C44   C51   1.376619 A    
C42   H8    1.084497 S    
N13   O42   1.299866 A    
C22   N4    1.437642 S    
N9    O33   1.301171 A    
N1    O18   1.301880 A    
N14   O43   1.299909 A    
C29   N11   1.432816 S    
N15   O45   1.301141 A    
C1    C6    1.583034 S    
C26   N8    1.437922 S    
C14   C53   1.453980 S    
C21   C37   1.399182 A    
C13   C54   1.453992 S    
C20   N2    1.437758 S    
C7    C32   1.454808 A    
C6    C22   1.459122 A    
C24   C40   1.399165 A    
O5    C15   1.306185 A    
C18   C57   1.453980 S    
C25   C41   1.399181 A    
C47   C56   1.376575 A    
C1    C3    1.583030 S    
O6    C16   1.306228 A    
C17   C58   1.453976 S    
C2    C4    1.583124 S    
C35   C51   1.383299 A    
N6    O28   1.301871 A    
C4    C27   1.454717 A    
C28   C44   1.386319 A    
C10   C26   1.459349 A    
C25   N7    1.437847 S    
C43   C52   1.376589 A    
N2    O19   1.298256 A    
Cu1   Cu2   2.731343 S    
N11   O38   1.299849 A    
O2    Cu2   1.981933 S    
N10   O35   1.299862 A    
O4    Cu4   1.981879 S    
N13   O41   1.301162 A    
N7    O30   1.298245 A    
C24   N6    1.437788 S    
