data_mof_unit_45759.cif
_audit_creation_date              2012-12-10T18:57:13-0500
_audit_creation_method            fapswitch 2.2
_symmetry_space_group_name_H-M    P1
_symmetry_Int_Tables_number       1
_space_group_crystal_system       triclinic
_cell_length_a                    8.768737
_cell_length_b                    10.897665
_cell_length_c                    9.595963
_cell_angle_alpha                 92.824898
_cell_angle_beta                  98.301215
_cell_angle_gamma                 90.460051
_cell_volume                      906.16184425

loop_
_atom_site_label
_atom_site_type_symbol
_atom_type_description
_atom_site_fract_x
_atom_site_fract_y
_atom_site_fract_z
_atom_type_partial_charge
C1    C     C_R   0.502911 0.262843 0.497238 0.818260
C2    C     C_R   0.456621 0.930638 0.375360 -0.202015
C3    C     C_R   0.504282 0.872893 0.502707 -0.081778
C4    C     C_R   0.575828 0.946073 0.618321 0.052144
C5    C     C_3   0.542454 0.959523 0.766754 -0.398804
C6    C     C_3   0.552677 0.096883 0.759981 -0.038099
C7    C     C_R   0.613903 0.560684 0.092709 0.244748
C8    C     C_R   0.399954 0.427119 0.054740 0.216815
C9    C     C_R   0.400625 0.427888 0.907067 -0.075772
C10   C     C_R   0.610296 0.563419 0.944716 0.193517
C11   C     C_3   0.626045 0.699288 0.956534 0.146030
C12   C     C_R   0.204294 0.503880 0.463481 0.768057
C13   C     C_3   0.649354 0.694478 0.115062 -0.516907
C14   C     C_R   0.499830 0.738227 0.502333 0.787647
C15   C     C_R   0.796031 0.501271 0.535958 0.903677
C16   C     C_2   0.038243 0.513916 0.441916 0.253970
C17   C     C_2   0.962151 0.500113 0.552811 -0.391368
C18   C     C_R   0.581188 0.072706 0.612525 0.104513
C19   C     C_R   0.517494 0.130548 0.492276 -0.115501
C20   C     C_R   0.464837 0.058344 0.369706 -0.164725
Cu1   Cu    Cu3+1 0.499990 0.499980 0.640670 0.987883
Cu2   Cu    Cu3+1 0.500010 0.500020 0.359330 1.007337
H1    H     H_    0.318854 0.371031 0.836265 0.159487
H2    H     H_    0.726782 0.734620 0.911785 0.137307
H3    H     H_    0.770684 0.712748 0.163949 0.201552
H4    H     H_    0.563135 0.748287 0.164158 0.225280
H5    H     H_    0.022487 0.484524 0.657448 0.142658
H6    H     H_    0.420602 0.100165 0.272475 0.194930
H7    H     H_    0.406269 0.877841 0.281263 0.161592
H8    H     H_    0.423060 0.929108 0.775495 0.232386
H9    H     H_    0.637343 0.924549 0.842591 0.243950
H10   H     H_    0.440949 0.142237 0.768434 0.159310
N1    N     N_R   0.500980 0.500930 0.148050 -0.209104
N2    N     N_R   0.500990 0.500890 0.852140 -0.186149
O1    O     O_R   0.500000 0.319640 0.618810 -0.582296
O2    O     O_R   0.500020 0.319680 0.381230 -0.557128
O3    O     O_R   0.274830 0.499980 0.591380 -0.601206
O4    O     O_R   0.274850 0.500020 0.353800 -0.571262
O5    O     O_R   0.499980 0.680320 0.618770 -0.534837
O6    O     O_R   0.500000 0.680360 0.381190 -0.607071
O7    O     O_R   0.725150 0.499980 0.646200 -0.592541
O8    O     O_R   0.725170 0.500020 0.408620 -0.497446
O9    O     O_3   0.960266 0.539177 0.310142 -0.705463
H11   H     H_    0.034138 0.556647 0.244567 0.338149
O10   O     O_3   0.485326 0.753765 0.905369 -0.720815
H12   H     H_    0.400541 0.719258 0.950788 0.332484
I1    I     I_    0.749477 0.179963 0.890156 -0.325719
I2    I     I_    0.235011 0.305203 0.115518 -0.337678

loop_
_geom_bond_atom_site_label_1
_geom_bond_atom_site_label_2
_ccdc_geom_bond_type
C8    C9    A    
C7    C10   A    
C6    H10   S    
O9    H11   S    
C8    I2    S    
Cu1   O1    S    
C11   C13   S    
C15   O8    A    
C19   C20   A    
Cu1   O5    S    
C4    C18   A    
C2    C3    A    
Cu2   O6    S    
C10   N2    A    
O10   H12   S    
C7    N1    A    
C16   O9    S    
C13   H3    S    
Cu2   O8    S    
C3    C14   S    
C2    H7    S    
Cu1   O7    S    
C5    C6    S    
C18   C19   A    
C8    N1    A    
C12   O4    A    
C9    N2    A    
C6    C18   S    
C13   H4    S    
C11   O10   S    
C1    C19   S    
C10   C11   S    
C14   O6    A    
C3    C4    A    
C17   H5    S    
C11   H2    S    
C7    C13   S    
Cu2   O2    S    
C15   O7    A    
Cu1   O3    S    
C5    H8    S    
C6    I1    S    
C12   O3    A    
C15   C17   S    
Cu2   N1    S    
C16   C17   D    
Cu1   N2    S    
C20   H6    S    
C1    O1    A    
C14   O5    A    
Cu1   Cu2   S    
C2    C20   A    
C9    H1    S    
C12   C16   S    
C1    O2    A    
C4    C5    S    
C5    H9    S    
Cu2   O4    S    
