data_mof_unit_12343.cif
_audit_creation_date              2012-12-10T17:14:11-0500
_audit_creation_method            fapswitch 2.2
_symmetry_space_group_name_H-M    P1
_symmetry_Int_Tables_number       1
_space_group_crystal_system       triclinic
_cell_length_a                    15.870897
_cell_length_b                    12.984418
_cell_length_c                    11.769609
_cell_angle_alpha                 99.557074
_cell_angle_beta                  93.825387
_cell_angle_gamma                 91.329295
_cell_volume                      2384.9743853

loop_
_atom_site_label
_atom_site_type_symbol
_atom_type_description
_atom_site_fract_x
_atom_site_fract_y
_atom_site_fract_z
_atom_type_partial_charge
C1    C     C_R   0.496008 0.299589 0.479145 0.772374
C2    C     C_3   0.953023 0.418670 0.566074 -0.495358
C3    C     C_3   0.916927 0.503196 0.499434 0.221410
C4    C     C_3   0.954403 0.612042 0.559563 0.283203
C5    C     C_3   0.053101 0.613216 0.559166 -0.175439
C6    C     C_1   0.824702 0.501157 0.499453 -0.057938
C7    C     C_1   0.175287 0.502569 0.500437 -0.059555
C8    C     C_1   0.250792 0.501201 0.500613 -0.126978
C9    C     C_R   0.488716 0.812800 0.532930 -0.121422
C10   C     C_R   0.494924 0.186397 0.468376 -0.105059
C11   C     C_R   0.550672 0.023932 0.378350 -0.190126
C12   C     C_R   0.340346 0.500004 0.500216 0.833381
C13   C     C_R   0.543470 0.130760 0.385569 -0.206175
C14   C     C_R   0.448864 0.133878 0.541780 -0.023661
C15   C     C_R   0.461408 0.026423 0.540120 0.089766
C16   C     C_R   0.511830 0.971949 0.456664 0.153739
C17   C     C_R   0.523252 0.865738 0.452237 -0.327406
C18   C     C_R   0.442479 0.866722 0.620707 0.423162
C19   C     C_R   0.427367 0.972557 0.621895 -0.253013
C20   C     C_R   0.398165 0.437793 0.028528 0.329293
C21   C     C_R   0.410623 0.442125 0.149554 -0.113688
C22   C     C_R   0.548806 0.516074 0.151264 0.583805
C23   C     C_R   0.498241 0.700377 0.521186 0.863035
C24   C     C_R   0.537841 0.515123 0.029981 -0.080346
C25   C     C_R   0.461826 0.477200 0.967764 -0.086878
C26   C     C_R   0.452991 0.477430 0.846089 0.017365
C27   C     C_R   0.588030 0.561351 0.853733 0.201843
C28   C     C_R   0.601596 0.553107 0.970230 -0.345835
C29   C     C_R   0.659632 0.500011 0.499794 0.834896
C30   C     C_3   0.050407 0.418019 0.564621 -0.428676
C31   C     C_3   0.041962 0.479534 0.373020 -0.156950
C32   C     C_3   0.943778 0.479845 0.373647 -0.321774
C33   C     C_1   0.749186 0.500355 0.499526 -0.160159
C34   C     C_3   0.082823 0.504409 0.499768 0.142247
Cu1   Cu    Cu3+1 0.506190 0.507730 0.615930 0.983409
Cu2   Cu    Cu3+1 0.493810 0.492270 0.384070 0.967899
H1    H     H_    0.925697 0.340218 0.526232 0.196675
H2    H     H_    0.079500 0.428814 0.654554 0.180448
H3    H     H_    0.935168 0.433993 0.657065 0.173600
H4    H     H_    0.559807 0.824484 0.385993 0.137994
H5    H     H_    0.589081 0.982513 0.314029 0.133842
H6    H     H_    0.389696 0.011731 0.688125 0.183497
H7    H     H_    0.577556 0.170626 0.327858 0.158416
H8    H     H_    0.396215 0.444103 0.796401 0.163622
H9    H     H_    0.069339 0.339996 0.521300 0.197100
H10   H     H_    0.661456 0.581591 0.014674 0.166990
H11   H     H_    0.360162 0.413938 0.194819 0.169915
H12   H     H_    0.059147 0.398958 0.335223 0.107472
H13   H     H_    0.916991 0.401928 0.330882 0.137484
H14   H     H_    0.915998 0.537470 0.323042 0.228084
H15   H     H_    0.073631 0.673033 0.508185 0.229729
H16   H     H_    0.934861 0.622801 0.650375 0.033499
N1    N     N_R   0.515490 0.519350 0.790130 -0.198954
N2    N     N_R   0.484510 0.480650 0.209890 -0.240267
O1    O     O_R   0.504390 0.354460 0.582000 -0.610867
O2    O     O_R   0.493940 0.341410 0.386200 -0.574494
O3    O     O_R   0.384660 0.506540 0.597940 -0.579143
O4    O     O_R   0.374210 0.493480 0.402140 -0.594019
O5    O     O_R   0.506060 0.658590 0.613800 -0.498808
O6    O     O_R   0.495610 0.645540 0.418000 -0.613079
O7    O     O_R   0.625790 0.506520 0.597860 -0.578500
O8    O     O_R   0.615340 0.493460 0.402060 -0.527188
O9    O     O_3   0.921250 0.690218 0.499560 -0.560288
C35   C     C_3   0.915351 0.785567 0.575776 0.074750
H17   H     H_    0.978019 0.812183 0.620501 0.167471
H18   H     H_    0.869012 0.777254 0.640953 0.144473
C36   C     C_3   0.884686 0.868598 0.507217 -0.744659
H19   H     H_    0.820920 0.845597 0.464649 0.237595
H20   H     H_    0.881055 0.944429 0.565987 0.195241
H21   H     H_    0.929096 0.878042 0.440328 0.264962
O10   O     O_3   0.403605 0.813064 0.696323 -0.547967
C37   C     C_3   0.443140 0.843132 0.808478 0.078445
H22   H     H_    0.431904 0.926393 0.842968 0.118378
H23   H     H_    0.512466 0.831220 0.808882 0.176060
C38   C     C_3   0.406285 0.776317 0.888851 -0.689681
H24   H     H_    0.414774 0.692458 0.855643 0.261041
H25   H     H_    0.438849 0.796546 0.976522 0.178543
H26   H     H_    0.337768 0.790062 0.894516 0.260651
C39   C     C_2   0.384449 0.189408 0.613190 0.277204
H27   H     H_    0.398821 0.264658 0.666707 0.095069
O11   O     O_2   0.312948 0.151758 0.610042 -0.545809
C40   C     C_2   0.654836 0.619369 0.806966 0.401367
H28   H     H_    0.720608 0.602557 0.825027 0.021616
O12   O     O_2   0.638272 0.691585 0.756105 -0.557094
O13   O     O_3   0.321464 0.401562 0.971952 -0.577966
C41   C     C_3   0.322507 0.291610 0.944573 0.027338
H29   H     H_    0.326285 0.256106 0.024594 0.144932
H30   H     H_    0.376728 0.266130 0.892348 0.133840
C42   C     C_3   0.241334 0.251278 0.873552 -0.706854
H31   H     H_    0.235674 0.285854 0.793260 0.260974
H32   H     H_    0.241890 0.164869 0.849961 0.221651
H33   H     H_    0.185947 0.272712 0.924329 0.235019
O14   O     O_3   0.628410 0.539659 0.206414 -0.559869
C43   C     C_3   0.642088 0.648981 0.238369 0.045318
H34   H     H_    0.620624 0.673784 0.325380 0.184392
H35   H     H_    0.609506 0.695131 0.177635 0.111805
C44   C     C_3   0.736534 0.675463 0.246299 -0.778160
H36   H     H_    0.763418 0.649527 0.162075 0.239510
H37   H     H_    0.747572 0.761251 0.270986 0.201311
H38   H     H_    0.769578 0.636396 0.312736 0.274096
C45   C     C_2   0.076012 0.550264 0.295110 0.351160
H39   H     H_    0.130376 0.526785 0.247005 0.081503
O15   O     O_2   0.045483 0.634648 0.287980 -0.514767
C46   C     C_2   0.093404 0.645584 0.680517 0.292364
H40   H     H_    0.078145 0.602822 0.748619 0.085651
O16   O     O_2   0.142907 0.720736 0.703266 -0.508054

loop_
_geom_bond_atom_site_label_1
_geom_bond_atom_site_label_2
_ccdc_geom_bond_type
O14   C43   S    
Cu1   N1    S    
C30   H9    S    
Cu1   Cu2   S    
C3    C6    S    
C46   O16   D    
C44   H36   S    
C26   H8    S    
C7    C8    T    
C22   N2    A    
O13   C41   S    
C15   C19   A    
C4    O9    S    
C28   H10   S    
C45   H39   S    
C4    H16   S    
C31   C45   S    
C1    O2    A    
Cu2   O4    S    
C21   N2    A    
C41   H30   S    
C20   C25   A    
C15   C16   A    
C29   C33   S    
C30   H2    S    
Cu1   O5    S    
C18   C19   A    
C2    H3    S    
C16   C17   A    
C42   H32   S    
C19   H6    S    
C12   O4    A    
C5    C46   S    
C45   O15   D    
C20   O13   S    
C43   H34   S    
C37   C38   S    
Cu2   O8    S    
C46   H40   S    
C44   H37   S    
C23   O6    A    
C29   O7    A    
C30   C34   S    
Cu1   O1    S    
C36   H19   S    
C35   C36   S    
C24   C25   A    
C37   H23   S    
C10   C14   A    
C39   O11   D    
C41   H29   S    
C9    C23   S    
C43   C44   S    
C25   C26   A    
C41   C42   S    
O9    C35   S    
C36   H20   S    
C17   H4    S    
C35   H18   S    
C23   O5    A    
C38   H24   S    
Cu2   O2    S    
C11   C16   A    
C31   C32   S    
C8    C12   S    
C5    C34   S    
C31   C34   S    
Cu1   O7    S    
C14   C39   S    
C42   H33   S    
C43   H35   S    
C38   H25   S    
C32   H14   S    
C12   O3    A    
C9    C17   A    
C40   O12   D    
C31   H12   S    
C22   O14   S    
C22   C24   A    
C3    C4    S    
C26   N1    A    
C13   H7    S    
C44   H38   S    
C18   O10   S    
C29   O8    A    
C27   C40   S    
C1    C10   S    
C24   C28   A    
C37   H22   S    
Cu2   O6    S    
C10   C13   A    
C27   N1    A    
C6    C33   T    
Cu1   O3    S    
C2    C30   S    
C36   H21   S    
C35   H17   S    
C2    C3    S    
C1    O1    A    
O10   C37   S    
C11   C13   A    
C2    H1    S    
C7    C34   S    
C11   H5    S    
C3    C32   S    
C38   H26   S    
C32   H13   S    
Cu2   N2    S    
C39   H27   S    
C9    C18   A    
C4    C5    S    
C20   C21   A    
C40   H28   S    
C27   C28   A    
C14   C15   A    
C5    H15   S    
C42   H31   S    
C21   H11   S    
