data_mof_unit_16319.cif
_audit_creation_date              2012-12-10T17:31:12-0500
_audit_creation_method            fapswitch 2.2
_symmetry_space_group_name_H-M    P1
_symmetry_Int_Tables_number       1
_space_group_crystal_system       triclinic
_cell_length_a                    12.170528
_cell_length_b                    12.834954
_cell_length_c                    15.405459
_cell_angle_alpha                 84.774193
_cell_angle_beta                  115.114185
_cell_angle_gamma                 95.437157
_cell_volume                      2165.70079164

loop_
_atom_site_label
_atom_site_type_symbol
_atom_type_description
_atom_site_fract_x
_atom_site_fract_y
_atom_site_fract_z
_atom_type_partial_charge
C1    C     C_R   0.475348 0.299753 0.497116 0.869956
C2    C     C_R   0.524194 0.700440 0.502247 0.868545
C3    C     C_R   0.651194 0.488803 0.115332 -0.231693
C4    C     C_R   0.416686 0.630422 0.907458 -0.236570
C5    C     C_R   0.732404 0.468412 0.078600 -0.238397
C6    C     C_R   0.334402 0.648912 0.944101 -0.244485
C7    C     C_R   0.538821 0.812947 0.503005 -0.046964
C8    C     C_R   0.458839 0.187651 0.494531 -0.049555
C9    C     C_R   0.373767 0.022915 0.533244 -0.217918
C10   C     C_R   0.621062 0.977867 0.461719 -0.216299
C11   C     C_R   0.374206 0.131328 0.522839 -0.211094
C12   C     C_R   0.620682 0.869645 0.471979 -0.221841
C13   C     C_R   0.537630 0.136248 0.470790 -0.278274
C14   C     C_R   0.459667 0.864336 0.526610 -0.273999
C15   C     C_R   0.538695 0.028838 0.481762 0.186048
C16   C     C_R   0.457267 0.971786 0.514446 0.183412
C17   C     C_R   0.002905 0.586795 0.397071 -0.341471
C18   C     C_R   0.981173 0.387276 0.578418 -0.346425
C19   C     C_R   0.122083 0.577424 0.407557 -0.021737
C20   C     C_R   0.863696 0.398467 0.570267 -0.020332
C21   C     C_R   0.158604 0.462703 0.546072 0.188368
C22   C     C_R   0.846749 0.548754 0.463874 0.197146
C23   C     C_R   0.576163 0.496655 0.679694 0.868071
C24   C     C_R   0.424508 0.505633 0.320127 0.855585
C25   C     C_R   0.032444 0.456926 0.526645 0.046806
C26   C     C_R   0.958511 0.529690 0.459997 0.050900
C27   C     C_R   0.626827 0.500592 0.783385 -0.051093
C28   C     C_R   0.381955 0.524267 0.216832 -0.059941
C29   C     C_R   0.775246 0.450885 0.941790 -0.207231
C30   C     C_R   0.264102 0.622810 0.070284 -0.205580
C31   C     C_R   0.736415 0.455820 0.842718 -0.195396
C32   C     C_R   0.282597 0.584579 0.162806 -0.196616
C33   C     C_R   0.562264 0.548047 0.822955 -0.280724
C34   C     C_R   0.457375 0.497671 0.176621 -0.279036
C35   C     C_R   0.595104 0.538738 0.921670 0.093942
C36   C     C_R   0.449609 0.545161 0.089395 0.096728
C37   C     C_R   0.702368 0.487384 0.981256 0.173122
C38   C     C_R   0.348539 0.605431 0.033981 0.175890
C39   C     C_R   0.517594 0.569217 0.960939 0.071752
C40   C     C_R   0.539525 0.533639 0.056162 0.068760
H1    H     H_    0.945584 0.637540 0.338677 0.170296
H2    H     H_    0.031227 0.323817 0.625365 0.163253
H3    H     H_    0.222977 0.605835 0.193352 0.150329
H4    H     H_    0.789305 0.421251 0.812528 0.154103
H5    H     H_    0.858140 0.412936 0.986981 0.139175
H6    H     H_    0.187301 0.669801 0.028976 0.137939
H7    H     H_    0.679305 0.469036 0.190835 0.142648
H8    H     H_    0.400545 0.667752 0.837925 0.143250
H9    H     H_    0.397168 0.820539 0.551952 0.156354
H10   H     H_    0.600996 0.180020 0.446331 0.158871
N1    N     N_R   0.799120 0.480200 0.517090 -0.107614
N2    N     N_R   0.200880 0.519800 0.482910 -0.105948
O1    O     O_R   0.580150 0.341050 0.504560 -0.621135
O2    O     O_R   0.419850 0.658950 0.495440 -0.618335
O3    O     O_R   0.388090 0.353760 0.493600 -0.627736
O4    O     O_R   0.611910 0.646240 0.506400 -0.636045
O5    O     O_R   0.650890 0.490020 0.640860 -0.612331
O6    O     O_R   0.349110 0.509980 0.359140 -0.612171
O7    O     O_R   0.458830 0.502730 0.629890 -0.629444
O8    O     O_R   0.541170 0.497270 0.370110 -0.623648
Zn1   Zn    Zn3+2 0.628240 0.491510 0.507320 0.925382
Zn2   Zn    Zn3+2 0.371760 0.508490 0.492680 0.928459
H11   H     H_    0.815695 0.431929 0.125547 0.149280
H12   H     H_    0.258687 0.696594 0.901417 0.145996
H13   H     H_    0.825932 0.343795 0.609666 0.141999
H14   H     H_    0.153012 0.619715 0.357206 0.136962
H15   H     H_    0.525519 0.442992 0.217424 0.150907
H16   H     H_    0.482155 0.586007 0.774284 0.140484
H17   H     H_    0.680779 0.831080 0.452266 0.156756
H18   H     H_    0.311789 0.170776 0.539875 0.148209
H19   H     H_    0.309912 0.979388 0.557153 0.136958
H20   H     H_    0.683857 0.021377 0.436656 0.137803
C41   C     C_3   0.802741 0.658350 0.431435 -0.414982
C42   C     C_3   0.696869 0.666650 0.331018 -0.279345
C43   C     C_3   0.712494 0.763211 0.270581 -0.932940
H21   H     H_    0.721187 0.835767 0.307718 0.260158
H22   H     H_    0.794242 0.759116 0.256698 0.261205
H23   H     H_    0.631702 0.766818 0.200454 0.266066
H24   H     H_    0.688288 0.596260 0.291535 0.225729
H25   H     H_    0.611002 0.673166 0.338052 0.243414
H26   H     H_    0.783586 0.688744 0.487352 0.204599
H27   H     H_    0.879439 0.714124 0.433736 0.184147
C44   C     C_3   0.243311 0.431938 0.649380 -0.371503
C45   C     C_3   0.291535 0.322653 0.663596 -0.331925
C46   C     C_3   0.348369 0.285964 0.769648 -0.903480
H28   H     H_    0.423835 0.342175 0.811211 0.278907
H29   H     H_    0.385288 0.208038 0.777655 0.251917
H30   H     H_    0.279017 0.278822 0.799277 0.261632
H31   H     H_    0.216408 0.265204 0.623788 0.200962
H32   H     H_    0.362284 0.323563 0.636918 0.260986
H33   H     H_    0.313476 0.494411 0.680494 0.211112
H34   H     H_    0.195802 0.433998 0.696823 0.179974

loop_
_geom_bond_atom_site_label_1
_geom_bond_atom_site_label_2
_ccdc_geom_bond_type
O6    Zn2   S    
C12   H17   S    
C8    C13   A    
C5    C37   A    
C1    C8    S    
C41   C42   S    
C2    C7    S    
N1    Zn1   S    
C11   H18   S    
C46   H28   S    
C27   C33   A    
C23   O7    A    
C44   H34   S    
C30   C38   A    
C17   C26   A    
C35   C37   A    
C9    C16   A    
C20   N1    A    
C10   C15   A    
C18   H2    S    
C14   H9    S    
C15   C16   A    
O3    Zn2   S    
C5    H11   S    
C19   H14   S    
C6    H12   S    
C1    O1    A    
C17   C19   A    
O1    Zn1   S    
C19   N2    A    
C7    C14   A    
C21   C44   S    
C6    C38   A    
C23   C27   S    
C18   C20   A    
C28   C34   A    
C42   H25   S    
C18   C25   A    
C45   H32   S    
C41   H26   S    
C46   H29   S    
C7    C12   A    
C31   H4    S    
C27   C31   A    
C9    H19   S    
C20   H13   S    
C36   C40   A    
C45   C46   S    
C4    C6    A    
C2    O2    A    
C39   C40   A    
O2    Zn2   S    
C25   C26   A    
C29   H5    S    
O8    Zn1   S    
C35   C39   A    
C43   H21   S    
C9    C11   A    
C44   C45   S    
C4    C39   A    
C28   C32   A    
C24   O8    A    
C43   H22   S    
C10   C12   A    
C3    C40   A    
C42   H24   S    
C13   C15   A    
C14   C16   A    
C45   H31   S    
C41   H27   S    
C4    H8    S    
C46   H30   S    
C23   O5    A    
C21   C25   A    
O7    Zn2   S    
C30   H6    S    
C24   C28   S    
C3    C5    A    
C34   H15   S    
O5    Zn1   S    
C44   H33   S    
C36   C38   A    
C1    O3    A    
C29   C31   A    
C2    O4    A    
C30   C32   A    
C8    C11   A    
C3    H7    S    
C33   C35   A    
C32   H3    S    
C34   C36   A    
C43   H23   S    
C17   H1    S    
C13   H10   S    
C42   C43   S    
C24   O6    A    
C22   C26   A    
C29   C37   A    
O4    Zn1   S    
N2    Zn2   S    
C22   C41   S    
C21   N2    A    
C33   H16   S    
C22   N1    A    
C10   H20   S    
