data_mof_unit_29290.cif
_audit_creation_date              2013-03-05T15:40:26-0500
_audit_creation_method            fapswitch 2.2
_symmetry_space_group_name_H-M    P1
_symmetry_Int_Tables_number       1
_space_group_crystal_system       triclinic
_cell_length_a                    7.728867
_cell_length_b                    8.57656
_cell_length_c                    10.726554
_cell_angle_alpha                 91.208742
_cell_angle_beta                  86.960028
_cell_angle_gamma                 93.456938
_cell_volume                      708.625261883

loop_
_atom_site_label
_atom_site_type_symbol
_atom_site_description
_atom_site_fract_x
_atom_site_fract_y
_atom_site_fract_z
_atom_type_partial_charge
O1    O     O_R   0.389250 0.738570 0.508280 -0.581902
O2    O     O_R   0.678390 0.711630 0.486650 -0.636498
C1    C     C_R   0.545594 0.794716 0.494425 1.026606
O3    O     O_R   0.355400 0.513470 0.694050 -0.602044
O4    O     O_R   0.644540 0.486530 0.672420 -0.622425
C2    C     C_R   0.506201 0.511213 0.739828 0.944749
Zn1   Zn    Zn3+2 0.306930 0.517990 0.514440 0.991955
Zn2   Zn    Zn3+2 0.693070 0.482010 0.485560 0.960878
O5    O     O_R   0.321610 0.288370 0.513350 -0.622547
O6    O     O_R   0.610750 0.261430 0.491720 -0.616678
O7    O     O_R   0.355460 0.513470 0.327580 -0.654201
O8    O     O_R   0.644600 0.486530 0.305950 -0.632971
C3    C     C_R   0.454215 0.205178 0.501355 0.960289
C4    C     C_R   0.493462 0.491661 0.259808 0.862675
C5    C     C_R   0.272754 0.709908 0.894459 0.343887
C6    C     C_R   0.110219 0.733067 0.954169 -0.194791
H1    H     H_    0.023093 0.812393 0.916837 0.192201
C7    C     C_R   0.060064 0.656552 0.064026 -0.228482
H2    H     H_    0.932389 0.670913 0.107800 0.177302
C8    C     C_R   0.177203 0.567872 0.121106 -0.150366
H3    H     H_    0.129100 0.509135 0.204786 0.169323
C9    C     C_R   0.345544 0.549141 0.065746 0.065285
C10   C     C_R   0.380951 0.599067 0.943238 -0.022989
C11   C     C_R   0.518294 0.530108 0.872921 -0.127880
C12   C     C_R   0.645878 0.452244 0.932564 -0.030094
H4    H     H_    0.730581 0.380476 0.105411 0.169555
C13   C     C_R   0.628542 0.434614 0.059077 -0.252916
C14   C     C_R   0.481974 0.483960 0.126491 -0.109967
C15   C     C_2   0.569955 0.957969 0.491161 -0.330989
H5    H     H_    0.702537 0.008687 0.486334 0.175334
C16   C     C_2   0.429860 0.041874 0.497681 -0.293034
H6    H     H_    0.297345 0.991150 0.501178 0.201042
N1    N     N_2   0.950330 0.457950 0.466250 -0.181471
H7    H     H_    0.013561 0.382009 0.406681 0.178771
N2    N     N_2   0.049670 0.542050 0.533750 -0.161043
H8    H     H_    0.986359 0.617306 0.593916 0.217335
C17   C     C_1   0.796359 0.388262 0.868679 0.234513
N3    N     N_1   0.916997 0.337236 0.818155 -0.158225
N4    N     N_R   0.333761 0.811024 0.794245 0.199409
O9    O     O_R   0.223394 0.881310 0.730848 -0.422027
O10   O     O_R   0.497622 0.855852 0.781963 -0.437572

loop_
_geom_bond_atom_site_label_1
_geom_bond_atom_site_label_2
_geom_bond_distance
_ccdc_geom_bond_type
O4    Zn2   2.019505 S    
C10   C11   1.420377 A    
C4    C14   1.437359 S    
C15   H5    1.087880 S    
C12   C13   1.367233 A    
N2    H8    1.029343 S    
Zn2   O8    1.983701 S    
C2    C11   1.440722 S    
C5    C10   1.428298 A    
O2    C1    1.282488 A    
N4    O10   1.301849 A    
C6    C7    1.386732 A    
C9    C14   1.417140 A    
C8    H3    1.076459 S    
Zn1   O7    2.019505 S    
C5    N4    1.437420 S    
H4    C13   1.086301 S    
C17   N3    1.157669 T    
O3    Zn1   1.983701 S    
O3    C2    1.289870 A    
N1    N2    1.266544 D    
C8    C9    1.417918 A    
N1    H7    1.029094 S    
C7    C8    1.390854 A    
Zn2   N1    2.010702 S    
O4    C2    1.284392 A    
O7    C4    1.279522 A    
C5    C6    1.402536 A    
Zn1   O5    1.979188 S    
C13   C14   1.394017 A    
C11   C12   1.411365 A    
C15   C16   1.333775 D    
C7    H2    1.082798 S    
N4    O9    1.301654 A    
C1    C15   1.402384 S    
O5    C3    1.283102 A    
C9    C10   1.398764 A    
C12   C17   1.449119 S    
O1    Zn1   1.960561 S    
Zn1   N2    2.010703 S    
C3    C16   1.401890 S    
Zn2   O6    1.960561 S    
O2    Zn2   1.979188 S    
C16   H6    1.087433 S    
O8    C4    1.296098 A    
C6    H1    1.082596 S    
O1    C1    1.275892 A    
O6    C3    1.274990 A    
