data_mof_unit_5739.cif
_audit_creation_date              2012-12-10T16:58:23-0500
_audit_creation_method            fapswitch 2.2
_symmetry_space_group_name_H-M    P1
_symmetry_Int_Tables_number       1
_space_group_crystal_system       triclinic
_cell_length_a                    7.78389
_cell_length_b                    8.600151
_cell_length_c                    23.412043
_cell_angle_alpha                 91.993971
_cell_angle_beta                  85.415051
_cell_angle_gamma                 92.797144
_cell_volume                      1559.63564963

loop_
_atom_site_label
_atom_site_type_symbol
_atom_type_description
_atom_site_fract_x
_atom_site_fract_y
_atom_site_fract_z
_atom_type_partial_charge
C1    C     C_R   0.543986 0.793915 0.498749 0.971490
C2    C     C_R   0.649108 0.486018 0.292269 -0.208925
C3    C     C_R   0.353805 0.513766 0.766843 -0.095480
C4    C     C_R   0.646236 0.486481 0.233159 -0.095454
C5    C     C_R   0.509966 0.499138 0.791221 0.317375
C6    C     C_R   0.490050 0.500959 0.208779 0.317336
C7    C     C_2   0.563226 0.954867 0.507578 -0.134004
C8    C     C_2   0.436774 0.045133 0.492422 -0.134007
C9    C     C_R   0.501508 0.500186 0.610599 0.865469
C10   C     C_R   0.498493 0.499819 0.389401 0.865474
C11   C     C_R   0.425825 0.371625 0.120013 0.516158
C12   C     C_R   0.456014 0.206085 0.501251 0.971496
C13   C     C_R   0.574198 0.628472 0.879985 0.516163
C14   C     C_R   0.553132 0.630372 0.120135 0.516592
C15   C     C_R   0.446874 0.369731 0.879864 0.516601
C16   C     C_R   0.559409 0.632029 0.060528 -0.020448
C17   C     C_R   0.440601 0.368073 0.939471 -0.020453
C18   C     C_R   0.496749 0.499724 0.030121 -0.060942
C19   C     C_R   0.503264 0.500377 0.969878 -0.060942
C20   C     C_R   0.427875 0.367047 0.059877 -0.014386
C21   C     C_R   0.572141 0.633053 0.940121 -0.014390
C22   C     C_R   0.627779 0.762760 0.031089 -0.237494
C23   C     C_R   0.663702 0.485062 0.756765 -0.093888
C24   C     C_R   0.372231 0.237342 0.968910 -0.237495
C25   C     C_R   0.634948 0.764820 0.971407 0.103942
C26   C     C_R   0.365066 0.235280 0.028592 0.103943
C27   C     C_R   0.336284 0.514855 0.243234 -0.093866
C28   C     C_R   0.661324 0.485313 0.697566 -0.216284
C29   C     C_R   0.338657 0.514573 0.302432 -0.216264
C30   C     C_R   0.504759 0.499913 0.672721 -0.037403
C31   C     C_R   0.495247 0.500119 0.327279 -0.037405
C32   C     C_R   0.350928 0.514198 0.707733 -0.208898
H1    H     H_    0.676476 0.864805 0.054245 0.195125
H2    H     H_    0.764969 0.475444 0.206179 0.139054
H3    H     H_    0.833427 0.921238 0.954677 0.186295
H4    H     H_    0.635938 0.996218 0.958731 0.188478
H5    H     H_    0.166588 0.078862 0.045321 0.186291
H6    H     H_    0.364076 0.003884 0.041269 0.188484
H7    H     H_    0.800138 0.066271 0.514948 0.215912
H8    H     H_    0.658790 0.080753 0.575397 0.200250
H9    H     H_    0.199862 0.933729 0.485052 0.215913
H10   H     H_    0.341209 0.919247 0.424603 0.200256
H11   H     H_    0.995291 0.390366 0.404144 0.169256
H12   H     H_    0.323532 0.135298 0.945754 0.195123
H13   H     H_    0.984352 0.247919 0.451593 0.174517
H14   H     H_    0.004701 0.609622 0.595857 0.169266
H15   H     H_    0.015653 0.752077 0.548411 0.174513
H16   H     H_    0.784363 0.473591 0.775948 0.137810
H17   H     H_    0.215601 0.526206 0.224051 0.137815
H18   H     H_    0.781511 0.473932 0.671425 0.157089
H19   H     H_    0.218446 0.525808 0.328572 0.157072
H20   H     H_    0.228618 0.525650 0.689585 0.157077
H21   H     H_    0.771439 0.474688 0.310417 0.157075
H22   H     H_    0.235096 0.524941 0.793825 0.139043
N1    N     N_R   0.488175 0.501479 0.148160 -0.368220
N2    N     N_3   0.966339 0.638959 0.556021 -0.307861
N3    N     N_R   0.511840 0.498621 0.851839 -0.368229
N4    N     N_2   0.950330 0.457950 0.484560 -0.011141
N5    N     N_2   0.049670 0.542050 0.515440 -0.011142
N6    N     N_3   0.706844 0.901326 0.943288 -0.365281
N7    N     N_3   0.293169 0.098775 0.056710 -0.365278
N8    N     N_3   0.703660 0.008870 0.540997 -0.458579
N9    N     N_3   0.296339 0.991130 0.459003 -0.458579
N10   N     N_3   0.033660 0.361038 0.443980 -0.307868
O1    O     O_R   0.389250 0.738570 0.503790 -0.648243
O2    O     O_2   0.635797 0.752242 0.849502 -0.510547
O3    O     O_2   0.611348 0.756397 0.150152 -0.539699
O4    O     O_2   0.388643 0.243712 0.849847 -0.539693
O5    O     O_R   0.610750 0.261430 0.496210 -0.648242
O6    O     O_R   0.678390 0.711620 0.493890 -0.595476
O7    O     O_R   0.321610 0.288380 0.506110 -0.595475
O8    O     O_R   0.355400 0.513520 0.588790 -0.633831
O9    O     O_R   0.644600 0.486480 0.411210 -0.633829
O10   O     O_R   0.644550 0.486570 0.578900 -0.613710
O11   O     O_R   0.355450 0.513430 0.421100 -0.613707
O12   O     O_2   0.364245 0.247847 0.150495 -0.510551
Zn1   Zn    Zn3+2 0.306930 0.518000 0.506610 0.959927
Zn2   Zn    Zn3+2 0.693070 0.482000 0.493390 0.959927

loop_
_geom_bond_atom_site_label_1
_geom_bond_atom_site_label_2
_ccdc_geom_bond_type
C12   O5    A    
C27   C29   A    
C9    O8    A    
C6    N1    S    
N5    Zn1   S    
C7    C8    D    
O6    Zn2   S    
C19   C21   A    
C26   N7    S    
C24   C26   A    
C11   O12   S    
C10   O9    A    
C13   N3    A    
H8    N8    S    
C18   C19   A    
H7    N8    S    
C32   H20   S    
C17   C19   A    
C28   H18   S    
C10   C31   S    
C22   C25   A    
C1    O1    A    
C14   O3    S    
C25   N6    S    
H6    N7    S    
C14   N1    A    
C15   N3    A    
O5    Zn2   S    
H11   N10   S    
C13   O2    S    
N4    N10   S    
C4    H2    S    
C11   C20   A    
C17   C24   A    
O1    Zn1   S    
C4    C6    A    
H4    N6    S    
N4    N5    D    
O9    Zn2   S    
H3    N6    S    
C2    C4    A    
C7    N8    S    
O8    Zn1   S    
C10   O11   A    
C6    C27   A    
C5    C23   A    
C8    C12   S    
C13   C21   A    
C23   C28   A    
O11   Zn1   S    
C9    C30   S    
C12   O7    A    
C24   H12   S    
C14   C16   A    
C9    O10   A    
H9    N9    S    
O7    Zn1   S    
C11   N1    A    
C29   H19   S    
C15   C17   A    
C22   H1    S    
C21   C25   A    
C16   C22   A    
C23   H16   S    
C1    C7    S    
C3    C5    A    
C2    H21   S    
H5    N7    S    
H13   N10   S    
C1    O6    A    
N2    N5    S    
C5    N3    S    
C28   C30   A    
C29   C31   A    
C30   C32   A    
C20   C26   A    
C15   O4    S    
C3    H22   S    
C18   C20   A    
C3    C32   A    
N4    Zn2   S    
C8    N9    S    
C16   C18   A    
O10   Zn2   S    
H14   N2    S    
C2    C31   A    
H10   N9    S    
C27   H17   S    
H15   N2    S    
