data_mof_unit_44297.cif
_audit_creation_date              2012-12-10T19:16:20-0500
_audit_creation_method            fapswitch 2.2
_symmetry_space_group_name_H-M    P1
_symmetry_Int_Tables_number       1
_space_group_crystal_system       triclinic
_cell_length_a                    11.00762
_cell_length_b                    9.975739
_cell_length_c                    28.456221
_cell_angle_alpha                 90.402849
_cell_angle_beta                  89.301336
_cell_angle_gamma                 90.175853
_cell_volume                      3124.42982192

loop_
_atom_site_label
_atom_site_type_symbol
_atom_type_description
_atom_site_fract_x
_atom_site_fract_y
_atom_site_fract_z
_atom_type_partial_charge
C1    C     C_R   0.258223 0.500124 0.502554 0.901924
C2    C     C_R   0.377521 0.510748 0.279726 0.108139
C3    C     C_R   0.500093 0.505499 0.251676 -0.052646
C4    C     C_R   0.521466 0.507040 0.097588 -0.135878
C5    C     C_R   0.411222 0.503453 0.122405 -0.080392
C6    C     C_R   0.302762 0.497876 0.098585 -0.198668
C7    C     C_R   0.630610 0.512879 0.123274 -0.112825
C8    C     C_R   0.491150 0.495943 0.353717 -0.101429
C9    C     C_R   0.511040 0.502803 0.642726 -0.071557
C10   C     C_R   0.409838 0.523952 0.973594 0.068951
C11   C     C_R   0.632695 0.515079 0.972740 -0.011830
C12   C     C_R   0.495063 0.500319 0.406238 0.918638
C13   C     C_R   0.522243 0.516626 0.948474 0.074892
C14   C     C_R   0.303095 0.544982 0.947969 -0.190839
C15   C     C_R   0.302481 0.529765 0.900418 -0.181011
C16   C     C_R   0.410671 0.513906 0.875319 0.008132
C17   C     C_R   0.523037 0.516043 0.898652 -0.110560
C18   C     C_R   0.634921 0.510391 0.872219 -0.180151
C19   C     C_R   0.624209 0.493181 0.822742 0.575183
C20   C     C_R   0.407183 0.505434 0.826766 0.573050
C21   C     C_R   0.385118 0.506411 0.714232 -0.009806
C22   C     C_R   0.399269 0.499415 0.666082 -0.244045
C23   C     C_R   0.742448 0.500218 0.502483 0.916705
C24   C     C_R   0.622201 0.503978 0.665440 -0.319082
C25   C     C_R   0.630346 0.503053 0.713683 0.012598
C26   C     C_R   0.507788 0.508426 0.744242 -0.350179
C27   C     C_R   0.407876 0.513886 0.023205 -0.065787
C28   C     C_R   0.520675 0.510089 0.047499 0.018305
C29   C     C_R   0.632460 0.511736 0.022625 0.056118
C30   C     C_R   0.298346 0.503195 0.050355 0.506909
C31   C     C_R   0.741844 0.510406 0.098278 0.568462
C32   C     C_R   0.741122 0.519914 0.946438 -0.248377
C33   C     C_R   0.748146 0.512657 0.897873 0.541793
C34   C     C_R   0.508208 0.500692 0.592220 0.857522
C35   C     C_R   0.741139 0.506240 0.048629 -0.344980
C36   C     C_3   0.073108 0.624217 0.532504 -0.400149
C37   C     C_3   0.073489 0.377326 0.531767 -0.409471
C38   C     C_3   0.931305 0.629418 0.533368 0.602557
C39   C     C_3   0.932051 0.370865 0.532011 0.604172
C40   C     C_3   0.071996 0.499964 0.455132 -0.428136
C41   C     C_3   0.121197 0.500864 0.505454 -0.124078
C42   C     C_3   0.880195 0.500580 0.504392 -0.172593
C43   C     C_3   0.933040 0.501953 0.452149 0.213390
C44   C     C_3   0.381162 0.079737 0.483485 -0.238078
C45   C     C_3   0.380702 0.919479 0.483990 -0.238293
C46   C     C_3   0.590297 0.078238 0.465963 -0.365579
C47   C     C_3   0.589152 0.919992 0.465439 -0.360366
C48   C     C_3   0.518976 0.082102 0.547457 0.481538
C49   C     C_3   0.521177 0.920707 0.547262 0.470825
C50   C     C_R   0.409259 0.508377 0.171373 0.567822
C51   C     C_R   0.623777 0.526321 0.173579 0.612410
C52   C     C_R   0.614501 0.487011 0.281729 -0.064634
C53   C     C_R   0.600415 0.494719 0.330216 -0.226839
C54   C     C_R   0.382371 0.497611 0.327964 0.072127
H1    H     H_    0.705986 0.480564 0.271951 0.233784
H2    H     H_    0.828086 0.524815 0.962835 0.173895
H3    H     H_    0.705994 0.500430 0.645283 0.203711
H4    H     H_    0.577629 0.509287 0.733982 0.277163
H5    H     H_    0.826982 0.493988 0.031472 0.138541
H6    H     H_    0.114473 0.715193 0.516726 0.197128
H7    H     H_    0.116134 0.286439 0.516146 0.195778
H8    H     H_    0.107776 0.622550 0.569088 0.206197
H9    H     H_    0.107700 0.379872 0.568401 0.207956
H10   H     H_    0.433743 0.507640 0.258852 0.186519
H11   H     H_    0.111101 0.587322 0.436122 0.231813
H12   H     H_    0.103443 0.405078 0.439628 0.231619
H13   H     H_    0.360673 0.114842 0.447473 0.170164
H14   H     H_    0.357891 0.881491 0.448342 0.169632
H15   H     H_    0.304825 0.117553 0.505807 0.211938
H16   H     H_    0.305214 0.883916 0.507124 0.211248
H17   H     H_    0.574904 0.114972 0.429703 0.217343
H18   H     H_    0.569989 0.883922 0.429178 0.215244
H19   H     H_    0.608603 0.117000 0.559868 -0.020636
H20   H     H_    0.612816 0.889313 0.558512 -0.015902
H21   H     H_    0.680343 0.113358 0.474972 0.229935
H22   H     H_    0.679347 0.882546 0.472920 0.232056
H23   H     H_    0.218482 0.491889 0.117812 0.196390
H24   H     H_    0.317341 0.492357 0.646000 0.154685
H25   H     H_    0.417488 0.470748 0.741631 0.264933
H26   H     H_    0.216595 0.539005 0.882940 0.192371
H27   H     H_    0.218094 0.579841 0.962099 0.230073
H28   H     H_    0.686105 0.494589 0.347904 0.202001
N1    N     N_R   0.513839 0.513534 0.196790 -0.328030
N2    N     N_R   0.512724 0.508669 0.800855 -0.305464
N3    N     N_3   0.499750 0.138610 0.498940 -0.113752
N4    N     N_3   0.499750 0.861390 0.498940 -0.111572
O1    O     O_R   0.314910 0.616040 0.499990 -0.618004
O2    O     O_R   0.314910 0.383960 0.499990 -0.618457
O3    O     O_R   0.500140 0.616020 0.428740 -0.607436
O4    O     O_R   0.500140 0.383980 0.428740 -0.602365
O5    O     O_R   0.685320 0.616040 0.499970 -0.613489
O6    O     O_R   0.685320 0.383960 0.499970 -0.613575
O7    O     O_R   0.500090 0.616050 0.571230 -0.609164
O8    O     O_R   0.500090 0.383950 0.571230 -0.611603
O9    O     O_2   0.300385 0.502070 0.193629 -0.552654
O10   O     O_2   0.298696 0.499241 0.805775 -0.594040
O11   O     O_2   0.723425 0.559828 0.197931 -0.493486
O12   O     O_2   0.719515 0.448238 0.796784 -0.592434
Zn1   Zn    Zn3+2 0.500150 0.654960 0.499980 0.984065
Zn2   Zn    Zn3+2 0.500150 0.345040 0.499980 0.983206
I1    I     I_    0.214820 0.492060 0.354215 -0.289036
O13   O     O_3   0.846748 0.501633 0.124876 -0.568413
C55   C     C_3   0.955786 0.526226 0.100352 -0.172452
H29   H     H_    0.952529 0.619348 0.079469 0.165071
H30   H     H_    0.978728 0.437842 0.078658 0.168992
H31   H     H_    0.027788 0.540773 0.126490 0.212469
O14   O     O_3   0.868897 0.482267 0.883668 -0.633843
C56   C     C_3   0.914178 0.523342 0.838800 -0.111254
H32   H     H_    0.868938 0.616486 0.824722 0.158135
H33   H     H_    0.915711 0.431887 0.815164 0.235369
H34   H     H_    0.014616 0.547305 0.842402 0.157708
O15   O     O_3   0.894236 0.618616 0.581690 -0.561815
C57   C     C_3   0.831046 0.727910 0.601537 -0.283049
H35   H     H_    0.743555 0.741313 0.583775 0.177600
H36   H     H_    0.887400 0.820404 0.602489 0.187729
H37   H     H_    0.809597 0.705344 0.638732 0.180931
O16   O     O_3   0.895226 0.379354 0.580355 -0.562860
C58   C     C_3   0.831902 0.269136 0.599039 -0.277141
H38   H     H_    0.887440 0.176479 0.598758 0.188004
H39   H     H_    0.743829 0.257680 0.581515 0.178869
H40   H     H_    0.811363 0.289755 0.636586 0.184246
I2    I     I_    0.899897 0.827696 0.504787 -0.409123
I3    I     I_    0.903026 0.173806 0.501163 -0.404870
I4    I     I_    0.877439 0.656996 0.404007 -0.253837
I5    I     I_    0.870935 0.350756 0.402488 -0.265178
O17   O     O_3   0.422425 0.127468 0.578129 -0.570487
C59   C     C_3   0.458065 0.172736 0.623756 -0.142807
H41   H     H_    0.542453 0.233540 0.624677 0.143474
H42   H     H_    0.474562 0.094631 0.648755 0.117056
H43   H     H_    0.379903 0.228172 0.640293 0.181716
O18   O     O_3   0.428633 0.873114 0.579057 -0.570171
C60   C     C_3   0.471301 0.831789 0.623819 -0.127271
H44   H     H_    0.513224 0.907327 0.645370 0.083779
H45   H     H_    0.550588 0.765728 0.622557 0.143649
H46   H     H_    0.394529 0.785690 0.643837 0.189435
O19   O     O_3   0.183327 0.506346 0.032006 -0.657223
C61   C     C_3   0.147969 0.376083 0.018493 -0.401305
H47   H     H_    0.139038 0.310079 0.049461 0.184133
H48   H     H_    0.212321 0.330365 0.992746 0.197616
H49   H     H_    0.057895 0.381825 0.001516 0.204926

loop_
_geom_bond_atom_site_label_1
_geom_bond_atom_site_label_2
_ccdc_geom_bond_type
C10   C27   A    
C1    O1    A    
C21   C26   A    
C51   O11   S    
O17   C59   S    
C54   I1    S    
C33   O14   S    
C34   O7    A    
C43   I5    S    
C52   C53   A    
O18   C60   S    
C61   H48   S    
C23   C42   S    
O3    Zn1   S    
C12   O4    A    
C28   C29   A    
C47   H22   S    
C38   C42   S    
C5    C6    A    
C9    C22   A    
C15   C16   A    
C39   I3    S    
C56   H32   S    
C35   H5    S    
C18   C19   A    
C58   H38   S    
O15   C57   S    
C37   H9    S    
C40   C43   S    
C24   H3    S    
O14   C56   S    
C60   H44   S    
O7    Zn1   S    
C52   H1    S    
C16   C20   A    
C46   N3    S    
C1    O2    A    
C20   O10   S    
C40   H12   S    
C21   C22   A    
C27   C30   A    
C36   C41   S    
C4    C7    A    
C36   H8    S    
C49   N4    S    
O4    Zn2   S    
C46   H21   S    
C4    C28   A    
C19   O12   S    
C2    H10   S    
C50   N1    A    
C39   C42   S    
O1    Zn1   S    
C61   H49   S    
C7    C31   A    
C31   O13   S    
C12   O3    A    
C24   C25   A    
C22   H24   S    
C10   C14   A    
C8    C54   A    
C16   C17   A    
C6    H23   S    
C25   C26   A    
C39   O16   S    
C53   H28   S    
C58   H40   S    
C59   H42   S    
C49   O18   S    
C15   H26   S    
C14   C15   A    
O8    Zn2   S    
C8    C12   S    
C21   H25   S    
C45   H14   S    
C17   C18   A    
C44   H15   S    
C55   H30   S    
C38   I2    S    
N4    Zn1   S    
C46   H17   S    
O2    Zn2   S    
C1    C41   S    
C48   C49   S    
C6    C30   A    
C11   C32   A    
C30   O19   S    
C40   H11   S    
C20   N2    A    
C2    C54   A    
C9    C34   S    
C23   O5    A    
C5    C50   A    
C42   C43   S    
C38   O15   S    
C44   N3    S    
C51   N1    A    
C27   C28   A    
C44   C45   S    
O6    Zn2   S    
C57   H35   S    
C46   C47   S    
C40   C41   S    
C26   N2    S    
C45   H16   S    
C23   O6    A    
C48   H19   S    
C48   N3    S    
C34   O8    A    
O19   C61   S    
C36   H6    S    
C10   C13   A    
C8    C53   A    
C37   H7    S    
C3    C52   A    
C9    C24   A    
C59   H41   S    
C61   H47   S    
C29   C35   A    
C56   H34   S    
C13   C17   A    
C32   C33   A    
C57   H37   S    
C36   C38   S    
C45   N4    S    
C59   H43   S    
C7    C51   A    
C37   C39   S    
N3    Zn2   S    
O16   C58   S    
C3    N1    S    
C11   C13   A    
C60   H46   S    
C56   H33   S    
C2    C3    A    
C55   H31   S    
C31   C35   A    
C37   C41   S    
O13   C55   S    
C50   O9    S    
C18   C33   A    
C58   H39   S    
C47   H18   S    
C48   O17   S    
C4    C5    A    
C11   C29   A    
C60   H45   S    
C25   H4    S    
C55   H29   S    
C47   N4    S    
C49   H20   S    
C44   H13   S    
C14   H27   S    
O5    Zn1   S    
C43   I4    S    
C32   H2    S    
C19   N2    A    
C57   H36   S    
