data_mof_unit_11525.cif
_audit_creation_date              2012-12-10T19:09:35-0500
_audit_creation_method            fapswitch 2.2
_symmetry_space_group_name_H-M    P1
_symmetry_Int_Tables_number       1
_space_group_crystal_system       triclinic
_cell_length_a                    14.969489
_cell_length_b                    15.578286
_cell_length_c                    9.798873
_cell_angle_alpha                 89.918625
_cell_angle_beta                  89.761055
_cell_angle_gamma                 89.687432
_cell_volume                      2285.03109254

loop_
_atom_site_label
_atom_site_type_symbol
_atom_type_description
_atom_site_fract_x
_atom_site_fract_y
_atom_site_fract_z
_atom_type_partial_charge
C1    C     C_R   0.123766 0.381418 0.499896 0.876289
C2    C     C_R   0.125533 0.616796 0.499620 0.874590
C3    C     C_R   0.624176 0.882051 0.499857 0.924196
C4    C     C_R   0.624108 0.118131 0.499764 0.893523
C5    C     C_3   0.938927 0.430157 0.083748 0.601744
C6    C     C_3   0.936129 0.432444 0.917717 0.586933
C7    C     C_3   0.437801 0.931895 0.084178 0.708974
C8    C     C_3   0.430368 0.937856 0.920188 0.542521
C9    C     C_R   0.880347 0.377618 0.500269 0.875023
C10   C     C_R   0.880285 0.622238 0.499986 0.872287
C11   C     C_R   0.381167 0.877094 0.500259 0.963117
C12   C     C_R   0.381217 0.122874 0.500062 0.914849
C13   C     C_3   0.829451 0.247089 0.628444 -0.164422
C14   C     C_3   0.824777 0.250958 0.367354 -0.202622
C15   C     C_3   0.828447 0.752325 0.370326 -0.113574
C16   C     C_3   0.825267 0.748636 0.632811 -0.233604
C17   C     C_3   0.330507 0.746745 0.628048 -0.156327
C18   C     C_3   0.326053 0.752190 0.366393 -0.194691
C19   C     C_3   0.334466 0.256460 0.378663 -0.116562
C20   C     C_3   0.320562 0.244419 0.638859 -0.230220
C21   C     C_3   0.257960 0.675100 0.632193 0.677901
C22   C     C_3   0.254864 0.679571 0.362687 0.726886
C23   C     C_3   0.259886 0.326703 0.372742 0.653163
C24   C     C_3   0.246097 0.314566 0.640992 0.758031
C25   C     C_3   0.758153 0.174899 0.629093 0.705661
C26   C     C_3   0.748510 0.183757 0.359674 0.776566
C27   C     C_3   0.753364 0.821596 0.364612 0.686971
C28   C     C_3   0.752510 0.820444 0.634234 0.763937
C29   C     C_3   0.716235 0.346555 0.509878 0.150131
C30   C     C_3   0.716495 0.653516 0.495221 0.170899
C31   C     C_3   0.216990 0.845541 0.507148 0.128960
C32   C     C_3   0.218080 0.153354 0.483281 0.143854
C33   C     C_3   0.814928 0.306601 0.501440 -0.103898
C34   C     C_3   0.814889 0.693227 0.499557 -0.118031
C35   C     C_3   0.315952 0.806313 0.500855 -0.084906
C36   C     C_3   0.315585 0.193284 0.500153 -0.075856
C37   C     C_3   0.197297 0.682619 0.499456 -0.091131
C38   C     C_3   0.194706 0.314972 0.499637 -0.051335
C39   C     C_3   0.694780 0.184515 0.499684 -0.125561
C40   C     C_3   0.694450 0.815365 0.499301 -0.066151
C41   C     C_3   0.149030 0.770837 0.503867 -0.506459
C42   C     C_3   0.148254 0.227153 0.484137 -0.510551
C43   C     C_3   0.646949 0.272561 0.510825 -0.495353
C44   C     C_3   0.646676 0.727651 0.498921 -0.509313
C45   C     C_3   0.089945 0.482142 0.080104 0.153104
C46   C     C_3   0.088779 0.477097 0.918407 0.227449
C47   C     C_3   0.972802 0.586173 0.918904 0.181377
C48   C     C_3   0.964265 0.583180 0.080350 0.180546
C49   C     C_3   0.590004 0.984152 0.080351 0.112410
C50   C     C_3   0.587233 0.973276 0.919707 0.192201
C51   C     C_3   0.475032 0.086948 0.919182 0.200622
C52   C     C_3   0.464199 0.083322 0.081050 0.238784
H1    H     H_    0.819725 0.286763 0.721080 0.190246
H2    H     H_    0.816300 0.295180 0.279712 0.224973
H3    H     H_    0.822134 0.711177 0.278438 0.186817
H4    H     H_    0.814047 0.706006 0.722354 0.182002
H5    H     H_    0.320059 0.787757 0.719168 0.225086
H6    H     H_    0.310317 0.796773 0.281910 0.206681
H7    H     H_    0.331316 0.218491 0.282887 0.182978
H8    H     H_    0.307829 0.198643 0.723918 0.174735
H9    H     H_    0.103516 0.773894 0.593523 0.226411
H10   H     H_    0.104449 0.777539 0.414670 0.204511
H11   H     H_    0.108269 0.226346 0.389020 0.230371
H12   H     H_    0.098746 0.217765 0.567036 0.201798
H13   H     H_    0.605236 0.274471 0.604911 0.228593
H14   H     H_    0.597999 0.280516 0.426838 0.222679
H15   H     H_    0.600305 0.723716 0.410708 0.235022
H16   H     H_    0.602079 0.722290 0.589536 0.210114
H17   H     H_    0.112974 0.418524 0.118035 0.187792
H18   H     H_    0.105315 0.409694 0.890612 0.179172
H19   H     H_    0.906802 0.605353 0.878773 0.108889
H20   H     H_    0.892123 0.588918 0.102553 0.093752
H21   H     H_    0.616849 0.923996 0.125197 0.144208
H22   H     H_    0.598907 0.904045 0.899964 0.092918
H23   H     H_    0.409018 0.107046 0.878838 0.136499
H24   H     H_    0.390976 0.087159 0.100081 0.152006
N1    N     N_3   0.998760 0.500000 0.138610 -0.124743
N2    N     N_3   0.998760 0.500000 0.861390 -0.132322
N3    N     N_3   0.498760 0.000000 0.138610 -0.140399
N4    N     N_3   0.498760 0.000000 0.861390 -0.190892
O1    O     O_R   0.092530 0.407440 0.616040 -0.542652
O2    O     O_R   0.092530 0.407440 0.383960 -0.588988
O3    O     O_R   0.092530 0.592560 0.383960 -0.510739
O4    O     O_R   0.092530 0.592560 0.616040 -0.518286
O5    O     O_R   0.592530 0.907440 0.616040 -0.577612
O6    O     O_R   0.592530 0.907440 0.383960 -0.592809
O7    O     O_R   0.592530 0.092560 0.383960 -0.492896
O8    O     O_R   0.592530 0.092560 0.616040 -0.515506
O9    O     O_R   0.907330 0.407420 0.616040 -0.574292
O10   O     O_R   0.907330 0.407420 0.383960 -0.545123
O11   O     O_R   0.907330 0.592580 0.383960 -0.611109
O12   O     O_R   0.907330 0.592580 0.616040 -0.617794
O13   O     O_R   0.407330 0.907420 0.616040 -0.660927
O14   O     O_R   0.407330 0.907420 0.383960 -0.533173
O15   O     O_R   0.407330 0.092580 0.383960 -0.591384
O16   O     O_R   0.407330 0.092580 0.616040 -0.662402
Zn1   Zn    Zn3+2 0.999890 0.500000 0.654960 1.062024
Zn2   Zn    Zn3+2 0.999890 0.500000 0.345040 1.058893
Zn3   Zn    Zn3+2 0.499890 0.000000 0.654960 1.002123
Zn4   Zn    Zn3+2 0.499890 0.000000 0.345040 1.075513
N5    N     N_3   0.920506 0.211866 0.638415 -0.450916
H25   H     H_    0.926216 0.178546 0.730787 0.239005
H26   H     H_    0.966025 0.261951 0.645458 0.228953
N6    N     N_3   0.913657 0.212001 0.345845 -0.428662
H27   H     H_    0.926608 0.160978 0.411627 0.244250
H28   H     H_    0.963269 0.257706 0.359780 0.225029
N7    N     N_3   0.918042 0.789946 0.356770 -0.383556
H29   H     H_    0.928897 0.839756 0.425422 0.241654
H30   H     H_    0.966456 0.742860 0.372528 0.223200
N8    N     N_3   0.915415 0.783802 0.651418 -0.490132
H31   H     H_    0.962179 0.734232 0.656475 0.247814
H32   H     H_    0.917945 0.813492 0.747039 0.244501
N9    N     N_3   0.423167 0.715042 0.641019 -0.449884
H33   H     H_    0.432957 0.655086 0.596839 0.226691
H34   H     H_    0.436471 0.704835 0.744498 0.235224
N10   N     N_3   0.418114 0.724328 0.334885 -0.391587
H35   H     H_    0.438204 0.670151 0.387962 0.183936
H36   H     H_    0.420578 0.706115 0.232210 0.249068
N11   N     N_3   0.425694 0.291331 0.380341 -0.425735
H37   H     H_    0.431008 0.344260 0.444733 0.244623
H38   H     H_    0.441261 0.313646 0.282368 0.232922
N12   N     N_3   0.409019 0.281252 0.666639 -0.469333
H39   H     H_    0.458310 0.233877 0.664251 0.256350
H40   H     H_    0.409043 0.304652 0.766692 0.232536
O17   O     O_3   0.298024 0.593397 0.643233 -0.820714
H41   H     H_    0.249954 0.550469 0.648002 0.399498
O18   O     O_3   0.293024 0.597990 0.339754 -0.778408
H42   H     H_    0.331748 0.582070 0.416741 0.354158
O19   O     O_3   0.297106 0.409495 0.371902 -0.828695
H43   H     H_    0.250456 0.449451 0.338648 0.392863
O20   O     O_3   0.279948 0.396828 0.670778 -0.788262
H44   H     H_    0.328144 0.411025 0.605531 0.372015
O21   O     O_3   0.800366 0.094029 0.630864 -0.799349
H45   H     H_    0.753312 0.051084 0.646985 0.402113
O22   O     O_3   0.780594 0.101177 0.324782 -0.753631
H46   H     H_    0.812880 0.075527 0.402036 0.362245
O23   O     O_3   0.790495 0.904277 0.350951 -0.808225
H47   H     H_    0.745079 0.942389 0.309211 0.381422
O24   O     O_3   0.789394 0.902922 0.649701 -0.782185
H48   H     H_    0.835439 0.912456 0.578929 0.371727
O25   O     O_3   0.204821 0.688975 0.749351 -0.734405
H49   H     H_    0.242819 0.677677 0.830431 0.365149
O26   O     O_3   0.198353 0.697141 0.251444 -0.750132
H50   H     H_    0.234049 0.689974 0.166386 0.362024
O27   O     O_3   0.211859 0.314836 0.250273 -0.801207
H51   H     H_    0.252109 0.330388 0.173308 0.329085
O28   O     O_3   0.185563 0.292989 0.746234 -0.769838
H52   H     H_    0.216826 0.300926 0.834570 0.335275
O29   O     O_3   0.707410 0.184197 0.749806 -0.747731
H53   H     H_    0.747056 0.170083 0.827912 0.353652
O30   O     O_3   0.690340 0.209328 0.254177 -0.756242
H54   H     H_    0.722909 0.202958 0.166119 0.361263
O31   O     O_3   0.699762 0.804335 0.249341 -0.820347
H55   H     H_    0.736471 0.815782 0.166613 0.329172
O32   O     O_3   0.696971 0.805377 0.748389 -0.797255
H56   H     H_    0.732541 0.817158 0.831646 0.331117
N13   N     N_3   0.701903 0.398215 0.634307 -0.448006
H57   H     H_    0.699166 0.360979 0.722872 0.233895
H58   H     H_    0.751708 0.443927 0.645234 0.253689
N14   N     N_3   0.699447 0.403378 0.392409 -0.431469
H59   H     H_    0.638387 0.435096 0.407568 0.210226
H60   H     H_    0.691870 0.368630 0.302335 0.230683
N15   N     N_3   0.701221 0.602499 0.370576 -0.461019
H61   H     H_    0.751502 0.556911 0.356311 0.228945
H62   H     H_    0.697468 0.640418 0.282919 0.210600
N16   N     N_3   0.701499 0.596348 0.612809 -0.451828
H63   H     H_    0.694062 0.630958 0.703346 0.197326
H64   H     H_    0.640608 0.564797 0.599355 0.214605
N17   N     N_3   0.200318 0.895694 0.632254 -0.442048
H65   H     H_    0.197846 0.858074 0.720363 0.239075
H66   H     H_    0.248732 0.942522 0.643399 0.219666
N18   N     N_3   0.200836 0.903606 0.390645 -0.435741
H67   H     H_    0.141167 0.937286 0.407865 0.220941
H68   H     H_    0.190162 0.869850 0.300257 0.212910
N19   N     N_3   0.207893 0.105220 0.354479 -0.442928
H69   H     H_    0.255316 0.056397 0.345687 0.242129
H70   H     H_    0.211458 0.144442 0.268265 0.220672
N20   N     N_3   0.198504 0.093511 0.595863 -0.461365
H71   H     H_    0.187350 0.125968 0.687535 0.215971
H72   H     H_    0.138407 0.062219 0.574953 0.223745
O33   O     O_3   0.152263 0.542034 0.126612 -0.696259
H73   H     H_    0.212546 0.515841 0.116516 0.349051
O34   O     O_3   0.155913 0.527227 0.858969 -0.676182
H74   H     H_    0.213888 0.498419 0.878020 0.348641
O35   O     O_3   0.028297 0.652012 0.869466 -0.664308
H75   H     H_    0.083792 0.653709 0.923012 0.411023
O36   O     O_3   0.997527 0.655796 0.147830 -0.691516
H76   H     H_    0.061997 0.660592 0.132654 0.423071
O37   O     O_3   0.648754 0.049587 0.118506 -0.683176
H77   H     H_    0.710474 0.027340 0.105643 0.358542
O38   O     O_3   0.657183 0.016640 0.854233 -0.659259
H78   H     H_    0.713259 0.984981 0.875063 0.347506
O39   O     O_3   0.532749 0.151448 0.871882 -0.690547
H79   H     H_    0.590501 0.145946 0.918872 0.416174
O40   O     O_3   0.495848 0.155185 0.152777 -0.694790
H80   H     H_    0.555601 0.171185 0.120367 0.411779
O41   O     O_3   0.974624 0.350525 0.126747 -0.735174
H81   H     H_    0.928335 0.306000 0.113959 0.355301
O42   O     O_3   0.964907 0.352049 0.867581 -0.732263
H82   H     H_    0.918158 0.309326 0.889665 0.337054
O43   O     O_3   0.848359 0.444053 0.867223 -0.779496
H83   H     H_    0.824555 0.501486 0.888571 0.273183
O44   O     O_3   0.852466 0.435981 0.143147 -0.759348
H84   H     H_    0.814708 0.479975 0.099670 0.293673
O45   O     O_3   0.467706 0.850207 0.128588 -0.735519
H85   H     H_    0.517457 0.829449 0.070392 0.313532
O46   O     O_3   0.439642 0.854214 0.866689 -0.775047
H86   H     H_    0.488889 0.851565 0.799645 0.365479
O47   O     O_3   0.343027 0.965676 0.887960 -0.774374
H87   H     H_    0.343662 0.990061 0.795094 0.357859
O48   O     O_3   0.352108 0.944233 0.141470 -0.731171
H88   H     H_    0.314154 0.895947 0.110768 0.368091

loop_
_geom_bond_atom_site_label_1
_geom_bond_atom_site_label_2
_ccdc_geom_bond_type
C27   O31   S    
C9    C33   S    
O44   H84   S    
C16   C28   S    
N13   H57   S    
C3    O5    A    
N7    H30   S    
N17   H65   S    
C2    O4    A    
O28   H52   S    
C2    C37   S    
C41   H9    S    
C7    O45   S    
C13   C25   S    
C14   C33   S    
N6    H28   S    
N20   H71   S    
O35   H75   S    
C45   O33   S    
O22   H46   S    
N19   H70   S    
C4    O7    A    
C45   C46   S    
C52   O40   S    
C27   O23   S    
C5    C6    S    
O4    Zn1   S    
C32   C36   S    
C26   O30   S    
N15   H62   S    
C51   H23   S    
C38   C42   S    
C19   C36   S    
C50   H22   S    
C6    O42   S    
C26   C39   S    
C6    N2    S    
C49   O37   S    
C31   N18   S    
C28   C40   S    
C1    O1    A    
O26   H50   S    
O16   Zn3   S    
C29   C33   S    
N10   H35   S    
C23   O19   S    
C25   O29   S    
O43   H83   S    
C15   N7    S    
C5    O41   S    
N8    H31   S    
C26   O22   S    
C16   C34   S    
C51   N4    S    
C15   C27   S    
C18   H6    S    
N1    Zn2   S    
N15   H61   S    
O3    Zn2   S    
C22   O26   S    
C28   O32   S    
C24   C38   S    
O30   H54   S    
C12   O15   A    
C12   C36   S    
C52   N3    S    
C25   O21   S    
C18   C35   S    
O13   Zn3   S    
C15   C34   S    
C20   N12   S    
C11   O13   A    
C19   N11   S    
O42   H82   S    
N5    H26   S    
C29   C43   S    
C3    O6    A    
N16   H64   S    
O2    Zn2   S    
C30   C44   S    
C2    O3    A    
O41   H81   S    
C28   O24   S    
C41   H10   S    
C48   H20   S    
N6    H27   S    
N18   H68   S    
O12   Zn1   S    
O27   H51   S    
C29   N14   S    
C13   H1    S    
N11   H38   S    
C9    O9    A    
C32   N19   S    
C30   C34   S    
C16   N8    S    
O46   H86   S    
N5    H25   S    
C20   C24   S    
N3    Zn4   S    
C7    C8    S    
C30   N16   S    
C6    O43   S    
C51   O39   S    
C18   N10   S    
C46   N2    S    
O15   Zn4   S    
C39   C43   S    
C31   N17   S    
C19   H7    S    
C1    O2    A    
O33   H73   S    
C22   C37   S    
C45   H17   S    
C24   O28   S    
C17   C21   S    
C51   C52   S    
O9    Zn1   S    
C15   H3    S    
C48   N1    S    
C8    O46   S    
C30   N15   S    
O34   H74   S    
C16   H4    S    
O48   H88   S    
C13   C33   S    
O5    Zn3   S    
O21   H45   S    
C23   O27   S    
C14   N6    S    
C47   C48   S    
C4    C39   S    
O14   Zn4   S    
C27   C40   S    
C43   H13   S    
N2    Zn1   S    
O47   H87   S    
N20   H72   S    
C10   C34   S    
C14   C26   S    
C50   O38   S    
C47   H19   S    
C17   N9    S    
C1    C38   S    
C48   O36   S    
C11   O14   A    
C14   H2    S    
C3    C40   S    
C49   C50   S    
N4    Zn3   S    
O17   H41   S    
C5    N1    S    
C31   C35   S    
C44   H16   S    
C47   O35   S    
C10   O11   A    
N7    H29   S    
C21   O17   S    
O20   H44   S    
C42   H12   S    
N12   H40   S    
O6    Zn4   S    
N18   H67   S    
C19   C23   S    
C7    N3    S    
N9    H33   S    
N17   H66   S    
O38   H78   S    
O45   H85   S    
C31   C41   S    
C18   C22   S    
C29   N13   S    
C52   H24   S    
C46   O34   S    
C50   N4    S    
C9    O10   A    
C5    O44   S    
C7    O48   S    
N11   H37   S    
C4    O8    A    
C23   C38   S    
O23   H47   S    
N14   H59   S    
C11   C35   S    
C32   N20   S    
N12   H39   S    
C21   O25   S    
O36   H76   S    
N19   H69   S    
O29   H53   S    
C25   C39   S    
O24   H48   S    
C24   O20   S    
C22   O18   S    
N16   H63   S    
O1    Zn1   S    
C43   H14   S    
N10   H36   S    
C49   H21   S    
O11   Zn2   S    
C37   C41   S    
O37   H77   S    
N8    H32   S    
C46   H18   S    
O8    Zn3   S    
C10   O12   A    
O40   H80   S    
C20   C36   S    
C49   N3    S    
C8    O47   S    
C40   C44   S    
C21   C37   S    
N13   H58   S    
O39   H79   S    
C17   H5    S    
O32   H56   S    
C8    N4    S    
O7    Zn4   S    
C32   C42   S    
O19   H43   S    
C12   O16   A    
C44   H15   S    
C45   N1    S    
C17   C35   S    
C47   N2    S    
N9    H34   S    
C20   H8    S    
O25   H49   S    
C13   N5    S    
C42   H11   S    
O10   Zn2   S    
O18   H42   S    
N14   H60   S    
O31   H55   S    
