data_mof_unit_50517.cif
_audit_creation_date              2012-12-11T16:18:09-0500
_audit_creation_method            fapswitch 2.2
_symmetry_space_group_name_H-M    P1
_symmetry_Int_Tables_number       1
_space_group_crystal_system       triclinic
_cell_length_a                    14.059635
_cell_length_b                    14.066595
_cell_length_c                    30.091587
_cell_angle_alpha                 97.219831
_cell_angle_beta                  97.160118
_cell_angle_gamma                 61.264511
_cell_volume                      5162.84168538

loop_
_atom_site_label
_atom_site_type_symbol
_atom_type_description
_atom_site_fract_x
_atom_site_fract_y
_atom_site_fract_z
_atom_type_partial_charge
C1    C     C_R   0.386253 0.709418 0.441804 0.537954
C2    C     C_R   0.777572 0.270596 0.375173 0.258598
C3    C     C_R   0.805136 0.251570 0.330427 -0.153827
C4    C     C_R   0.398974 0.381201 0.426412 0.531986
C5    C     C_R   0.816106 0.329383 0.310295 -0.001750
C6    C     C_R   0.812961 0.421247 0.335654 0.267813
C7    C     C_R   0.786859 0.440408 0.380237 -0.155451
C8    C     C_R   0.849690 0.395337 0.161408 -0.130120
C9    C     C_R   0.876463 0.386555 0.117722 -0.176683
C10   C     C_R   0.869491 0.215455 0.102846 0.267518
C11   C     C_R   0.839794 0.226969 0.146988 -0.098735
C12   C     C_R   0.412169 0.262431 0.221326 0.287707
C13   C     C_R   0.835738 0.313570 0.176448 -0.006637
C14   C     C_1   0.827018 0.314843 0.223178 -0.002843
C15   C     C_1   0.822861 0.318954 0.262886 0.024061
C16   C     C_R   0.709900 0.405414 0.442289 0.561897
C17   C     C_R   0.892026 0.294377 0.088706 0.035983
C18   C     C_R   0.367349 0.761954 0.399938 0.018922
C19   C     C_R   0.453107 0.768422 0.383290 -0.126159
C20   C     C_R   0.446093 0.790537 0.338802 -0.107428
C21   C     C_R   0.353188 0.807243 0.310838 0.037721
C22   C     C_R   0.264202 0.809456 0.327969 -0.125144
C23   C     C_R   0.420450 0.268605 0.268332 -0.146700
C24   C     C_R   0.270977 0.787243 0.372424 -0.130227
C25   C     C_R   0.273541 0.806772 0.147739 -0.099357
C26   C     C_R   0.253875 0.835341 0.103266 0.256223
C27   C     C_R   0.381500 0.908107 0.118933 -0.184449
C28   C     C_R   0.389679 0.711613 0.568244 0.538922
C29   C     C_R   0.402776 0.876431 0.162572 -0.139048
C30   C     C_R   0.345076 0.830641 0.177494 -0.001117
C31   C     C_1   0.350362 0.819669 0.224348 -0.025188
C32   C     C_1   0.352034 0.814298 0.263880 -0.026498
C33   C     C_R   0.302181 0.893954 0.089719 0.026809
C34   C     C_R   0.334647 0.348720 0.292416 -0.000607
C35   C     C_R   0.363969 0.362308 0.592356 0.027730
C36   C     C_R   0.429919 0.265504 0.614451 0.226841
C37   C     C_R   0.412112 0.259984 0.658415 -0.107232
C38   C     C_R   0.325903 0.346245 0.679654 -0.056612
C39   C     C_R   0.252043 0.435678 0.656405 -0.122139
C40   C     C_R   0.401877 0.382918 0.552419 0.565730
C41   C     C_R   0.270864 0.446058 0.612912 0.225941
C42   C     C_R   0.217931 0.408482 0.834379 -0.116912
C43   C     C_R   0.209527 0.390827 0.877919 -0.129943
C44   C     C_R   0.393880 0.241361 0.879121 -0.124558
C45   C     C_R   0.318171 0.339246 0.198479 -0.001104
C46   C     C_R   0.402063 0.259345 0.835631 -0.115903
C47   C     C_R   0.312712 0.340143 0.812781 0.033314
C48   C     C_1   0.314894 0.345333 0.765947 -0.025981
C49   C     C_1   0.318109 0.346224 0.726435 -0.024285
C50   C     C_R   0.295723 0.303794 0.899856 0.016922
C51   C     C_1   0.761849 0.377167 0.612646 0.000515
C52   C     C_R   0.712926 0.407913 0.568561 0.547170
C53   C     C_R   0.779734 0.428686 0.729960 -0.124209
C54   C     C_R   0.796789 0.413027 0.775747 -0.161340
C55   C     C_R   0.889524 0.217163 0.758595 0.295350
C56   C     C_1   0.304244 0.326076 0.150447 -0.017778
C57   C     C_R   0.870056 0.233564 0.712465 -0.086117
C58   C     C_R   0.816563 0.339174 0.698238 -0.008115
C59   C     C_R   0.850739 0.307706 0.790238 0.046226
C60   C     C_1   0.876001 0.293754 0.837587 -0.014342
C61   C     C_1   0.791481 0.357027 0.651236 -0.046004
C62   C     C_1   0.904996 0.282622 0.876830 -0.002708
C63   C     C_1   0.375737 0.758529 0.613580 -0.030677
C64   C     C_1   0.366974 0.364904 0.380447 -0.018201
C65   C     C_R   0.348908 0.732927 0.724904 -0.110467
C66   C     C_R   0.338095 0.752873 0.771161 -0.107806
C67   C     C_1   0.348439 0.356017 0.340529 -0.027494
C68   C     C_R   0.342517 0.922582 0.769274 -0.123340
C69   C     C_R   0.353132 0.902722 0.722950 -0.113025
C70   C     C_R   0.355811 0.808038 0.700659 0.034559
C71   C     C_R   0.334665 0.847842 0.793431 0.024606
C72   C     C_1   0.315217 0.873304 0.840307 -0.065551
C73   C     C_1   0.366052 0.785957 0.653028 -0.071718
C74   C     C_1   0.293876 0.902675 0.878823 -0.012142
C75   C     C_R   0.949832 0.273558 0.047954 0.560354
C76   C     C_R   0.241441 0.426961 0.269681 0.280534
C77   C     C_R   0.275434 0.270398 0.065349 0.541751
C78   C     C_1   0.292149 0.305860 0.110805 -0.006036
C79   C     C_R   0.261320 0.953190 0.048617 0.551355
C80   C     C_R   0.952322 0.269049 0.922067 0.544386
C81   C     C_R   0.276504 0.266409 0.939687 0.540260
C82   C     C_R   0.261449 0.950974 0.922852 0.543097
C83   C     C_R   0.232730 0.420337 0.222562 -0.147774
C84   C     C_3   0.164669 0.603237 0.297056 -0.127958
C85   C     C_3   0.943894 0.029690 0.089879 -0.067163
C86   C     C_3   0.229088 0.705792 0.058541 -0.120440
C87   C     C_3   0.182267 0.633033 0.613962 -0.082111
C88   C     C_3   0.486818 0.105090 0.572818 -0.103120
C89   C     C_R   0.764800 0.368154 0.399919 -0.012784
C90   C     C_3   0.494153 0.085222 0.195176 -0.122501
C91   C     C_3   0.052491 0.066061 0.768011 -0.113209
C92   C     C_3   0.931558 0.478499 0.322638 -0.097095
C93   C     C_3   0.684486 0.172418 0.371246 -0.087832
Cr1   Cr    Cr6+3 0.581000 0.584320 0.508140 1.019389
Cr2   Cr    Cr6+3 0.339110 0.576430 0.496080 1.049656
Cr3   Cr    Cr6+3 0.579910 0.339270 0.495810 1.069203
Cr4   Cr    Cr6+3 0.082090 0.079210 0.982490 1.070520
Cr5   Cr    Cr6+3 0.082460 0.324610 0.994920 1.012062
Cr6   Cr    Cr6+3 0.323630 0.087860 0.996130 1.025638
H1    H     H_    0.813903 0.178220 0.310749 0.118194
H2    H     H_    0.148636 0.471480 0.816772 0.114005
H3    H     H_    0.475887 0.206506 0.818994 0.119553
H4    H     H_    0.468074 0.189412 0.676411 0.139653
H5    H     H_    0.736995 0.510711 0.719264 0.130357
H6    H     H_    0.768734 0.483160 0.799903 0.121797
H7    H     H_    0.351085 0.659283 0.707971 0.103500
H8    H     H_    0.358410 0.961279 0.704563 0.110156
H9    H     H_    0.494071 0.210889 0.285964 0.109389
H10   H     H_    0.892471 0.448636 0.107829 0.143973
H11   H     H_    0.153602 0.634333 0.263544 0.109759
H12   H     H_    0.191733 0.823056 0.306411 0.100519
H13   H     H_    0.243595 0.591843 0.314636 0.133926
H14   H     H_    0.098929 0.666153 0.317395 0.137027
H15   H     H_    0.823411 0.167098 0.158845 0.117839
H16   H     H_    0.021179 0.026503 0.105884 0.140985
H17   H     H_    0.965306 0.966135 0.061560 0.191025
H18   H     H_    0.903536 0.009329 0.113811 0.100406
H19   H     H_    0.250576 0.651444 0.086102 0.113374
H20   H     H_    0.302422 0.684336 0.040686 0.123186
H21   H     H_    0.170656 0.691506 0.034008 0.142919
H22   H     H_    0.229416 0.770398 0.159421 0.113814
H23   H     H_    0.203582 0.782932 0.384251 0.132098
H24   H     H_    0.182093 0.498971 0.672812 0.123268
H25   H     H_    0.146569 0.698596 0.590530 0.162877
H26   H     H_    0.260417 0.628605 0.629423 0.112654
H27   H     H_    0.123563 0.656739 0.639904 0.102553
H28   H     H_    0.421927 0.142840 0.545639 0.114907
H29   H     H_    0.459230 0.070432 0.596619 0.106308
H30   H     H_    0.557852 0.036851 0.556890 0.146361
H31   H     H_    0.461768 0.174134 0.895251 0.138760
H32   H     H_    0.415012 0.093757 0.179002 0.119703
H33   H     H_    0.509702 0.053996 0.228950 0.104972
H34   H     H_    0.528376 0.749338 0.403624 0.131788
H35   H     H_    0.559035 0.023830 0.174068 0.142678
H36   H     H_    0.088231 0.115423 0.787602 0.116301
H37   H     H_    0.070008 0.054066 0.732096 0.112452
H38   H     H_    0.093112 0.984763 0.781501 0.161826
H39   H     H_    0.895995 0.164167 0.687943 0.123211
H40   H     H_    0.330979 0.695145 0.789385 0.116249
H41   H     H_    0.338619 0.996995 0.786138 0.112868
H42   H     H_    0.845209 0.463351 0.184138 0.140252
H43   H     H_    0.987691 0.397126 0.307106 0.134273
H44   H     H_    0.955793 0.485640 0.359062 0.122030
H45   H     H_    0.459382 0.893586 0.185486 0.109228
H46   H     H_    0.939860 0.540286 0.306287 0.178451
H47   H     H_    0.777191 0.515737 0.398366 0.152286
H48   H     H_    0.717555 0.113611 0.341831 0.098690
H49   H     H_    0.611405 0.247929 0.360495 0.117637
H50   H     H_    0.657560 0.134116 0.393459 0.154797
H51   H     H_    0.421770 0.950579 0.109230 0.138931
H52   H     H_    0.159011 0.477750 0.204900 0.122476
H53   H     H_    0.515005 0.789442 0.325677 0.123868
H54   H     H_    0.132990 0.440457 0.893062 0.132701
O1    O     O_R   0.688580 0.499770 0.460490 -0.532952
O2    O     O_R   0.346150 0.177650 0.050510 -0.500008
O3    O     O_R   0.314200 0.996600 0.036060 -0.516517
O4    O     O_R   0.480400 0.672610 0.462660 -0.505731
O5    O     O_R   0.168690 0.969990 0.933130 -0.502641
O6    O     O_R   0.991920 0.175870 0.937430 -0.484696
O7    O     O_R   0.974010 0.342590 0.941330 -0.514533
O8    O     O_R   0.182630 0.317940 0.955040 -0.504639
O9    O     O_R   0.347320 0.174720 0.953250 -0.511870
O10   O     O_R   0.315290 0.993890 0.945900 -0.495158
O11   O     O_3   0.162730 0.163890 0.991180 -0.256554
O12   O     O_R   0.348600 0.476260 0.536540 -0.456612
O13   O     O_R   0.315310 0.685650 0.451800 -0.513934
O14   O     O_R   0.346220 0.474990 0.446280 -0.488607
O15   O     O_R   0.492270 0.312460 0.441630 -0.524401
O16   O     O_R   0.669740 0.350480 0.455640 -0.443683
O17   O     O_R   0.691150 0.501150 0.557860 -0.505949
O18   O     O_R   0.482790 0.673890 0.552920 -0.491678
O19   O     O_R   0.317880 0.687030 0.549170 -0.512912
O20   O     O_3   0.156621 0.506393 0.293382 -0.579838
O21   O     O_3   0.872447 0.131127 0.072633 -0.558065
O22   O     O_3   0.179003 0.816113 0.074729 -0.582300
O23   O     O_R   0.494840 0.313840 0.539010 -0.466738
O24   O     O_3   0.197258 0.534953 0.589424 -0.544937
O25   O     O_3   0.519295 0.180037 0.595371 -0.536549
O26   O     O_3   0.497867 0.184120 0.197691 -0.551688
O27   O     O_3   0.939976 0.113091 0.772805 -0.560487
O28   O     O_3   0.822532 0.499087 0.315584 -0.571093
O29   O     O_3   0.765695 0.193956 0.395477 -0.543002
O30   O     O_R   0.672120 0.351750 0.545910 -0.484939
O31   O     O_3   0.500010 0.500010 0.500010 -0.263067
O32   O     O_R   0.167510 0.972920 0.030390 -0.465891
O33   O     O_R   0.990840 0.178580 0.027590 -0.451710
O34   O     O_R   0.972840 0.345510 0.038590 -0.531162
O35   O     O_R   0.181550 0.320660 0.045200 -0.501799

loop_
_geom_bond_atom_site_label_1
_geom_bond_atom_site_label_2
_ccdc_geom_bond_type
C10   O21   S    
Cr2   O13   S    
C8    C13   A    
C55   C59   A    
C27   C29   A    
C16   O16   A    
C81   O9    A    
C93   H50   S    
C35   C36   A    
C51   C61   T    
C52   O30   A    
C69   H8    S    
C56   C78   T    
C39   C41   A    
C38   C49   S    
C77   C78   S    
C27   C33   A    
Cr4   O32   S    
C46   H3    S    
C12   C23   A    
C1    C18   S    
C37   C38   A    
C18   C24   A    
C5    C6    A    
Cr4   O6    S    
C62   C80   S    
C36   C37   A    
C74   C82   S    
C18   C19   A    
C88   H28   S    
C2    C3    A    
C92   O28   S    
C2    O29   S    
C30   C31   S    
C82   O5    A    
Cr2   O31   S    
C80   O7    A    
C82   O10   A    
C53   H5    S    
C44   H31   S    
C65   C70   A    
C7    C89   A    
C39   H24   S    
C93   H49   S    
C60   C62   T    
C86   O22   S    
C55   O27   S    
C92   H44   S    
C11   H15   S    
Cr5   O35   S    
C28   O18   A    
C79   O3    A    
C91   H38   S    
C3    H1    S    
C28   O19   A    
C66   H40   S    
C66   C71   A    
C45   C56   S    
C8    C9    A    
Cr6   O2    S    
C47   C48   S    
Cr3   O15   S    
C86   H20   S    
C29   C30   A    
C92   H43   S    
Cr2   O19   S    
C7    H47   S    
C90   H33   S    
C23   C34   A    
C58   C61   S    
C59   C60   S    
C13   C14   S    
Cr6   O3    S    
C45   C83   A    
Cr1   O31   S    
C88   H30   S    
Cr3   O31   S    
Cr2   O12   S    
C76   C83   A    
C44   C46   A    
C83   H52   S    
C54   C59   A    
C9    H10   S    
Cr4   O33   S    
C21   C32   S    
C75   O34   A    
C91   H37   S    
C6    O28   S    
C51   C52   S    
C64   C67   T    
C85   H16   S    
C36   O25   S    
C72   C74   T    
C52   O17   A    
C37   H4    S    
C68   C69   A    
C80   O6    A    
C63   C73   T    
C25   C26   A    
C53   C54   A    
C29   H45   S    
C84   H11   S    
C20   H53   S    
C77   O2    A    
C38   C39   A    
C2    C89   A    
Cr5   O34   S    
Cr1   O18   S    
C87   O24   S    
Cr6   O9    S    
C93   O29   S    
C26   C33   A    
C31   C32   T    
Cr1   O1    S    
Cr4   O11   S    
C91   O27   S    
C70   C73   S    
C24   H23   S    
C85   O21   S    
C86   H19   S    
C84   H13   S    
C85   H18   S    
C40   O12   A    
C8    H42   S    
Cr6   O10   S    
C90   H32   S    
C9    C17   A    
C48   C49   T    
Cr5   O7    S    
C22   H12   S    
Cr1   O4    S    
Cr3   O16   S    
C55   C57   A    
C16   O1    A    
C22   C24   A    
C68   H41   S    
C75   O33   A    
C42   C43   A    
Cr3   O30   S    
C84   O20   S    
C42   H2    S    
C65   H7    S    
C87   H26   S    
Cr5   O8    S    
C40   O23   A    
C41   O24   S    
C25   C30   A    
C46   C47   A    
C76   O20   S    
C79   O32   A    
Cr3   O23   S    
C54   H6    S    
C92   H46   S    
C90   O26   S    
C81   O8    A    
C85   H17   S    
C33   C79   S    
C12   C45   A    
C3    C5    A    
Cr2   O14   S    
C34   C67   S    
Cr5   O11   S    
C53   C58   A    
C43   C50   A    
C88   O25   S    
C6    C7    A    
C19   H34   S    
C4    C64   S    
C4    O14   A    
Cr4   O5    S    
C19   C20   A    
C1    O4    A    
C35   C40   S    
C71   C72   S    
C88   H29   S    
C84   H14   S    
C43   H54   S    
Cr1   O17   S    
C11   C13   A    
C57   C58   A    
C87   H25   S    
C1    O13   A    
C68   C71   A    
C90   H35   S    
C23   H9    S    
C57   H39   S    
C93   H48   S    
C42   C47   A    
C26   O22   S    
C69   C70   A    
C35   C41   A    
C5    C15   S    
C10   C11   A    
Cr6   O11   S    
C28   C63   S    
C4    O15   A    
C16   C89   S    
C12   O26   S    
C91   H36   S    
C20   C21   A    
C44   C50   A    
C65   C66   A    
C17   C75   S    
C77   O35   A    
C14   C15   T    
C86   H21   S    
C10   C17   A    
C21   C22   A    
C25   H22   S    
C87   H27   S    
C27   H51   S    
C50   C81   S    
C34   C76   A    
