data_mof_unit_46402.cif
_audit_creation_date              2012-12-11T14:14:58-0500
_audit_creation_method            fapswitch 2.2
_symmetry_space_group_name_H-M    P1
_symmetry_Int_Tables_number       1
_space_group_crystal_system       triclinic
_cell_length_a                    24.922125
_cell_length_b                    17.417439
_cell_length_c                    15.659779
_cell_angle_alpha                 90.809541
_cell_angle_beta                  129.410554
_cell_angle_gamma                 89.968972
_cell_volume                      5251.09476651

loop_
_atom_site_label
_atom_site_type_symbol
_atom_type_description
_atom_site_fract_x
_atom_site_fract_y
_atom_site_fract_z
_atom_type_partial_charge
C1    C     C_R   0.332492 0.405581 0.191578 0.774670
C2    C     C_R   0.654357 0.675117 0.513940 -0.050745
C3    C     C_R   0.825837 0.135051 0.501020 -0.086937
C4    C     C_R   0.154366 0.175104 0.513939 -0.047796
C5    C     C_R   0.351720 0.626249 0.138426 0.046170
C6    C     C_R   0.618736 0.683562 0.787127 0.052694
C7    C     C_R   0.851725 0.126263 0.138437 0.045788
C8    C     C_R   0.118723 0.183574 0.787100 0.052089
C9    C     C_2   0.673355 0.802936 0.474603 -0.072733
C10   C     C_2   0.249139 0.651597 0.545087 -0.042626
C11   C     C_2   0.173361 0.302914 0.474587 -0.070119
C12   C     C_R   0.653204 0.366827 0.768501 0.684514
C13   C     C_2   0.749141 0.151558 0.545180 -0.037395
C14   C     C_2   0.696776 0.740384 0.535720 -0.149010
C15   C     C_2   0.277418 0.678595 0.501647 -0.059411
C16   C     C_2   0.196785 0.240368 0.535715 -0.150973
C17   C     C_2   0.777355 0.178492 0.501603 -0.069880
C18   C     C_2   0.224791 0.350952 0.484018 0.039915
C19   C     C_2   0.710320 0.204486 0.560129 -0.113870
C20   C     C_2   0.724785 0.850970 0.484023 0.039461
C21   C     C_2   0.210280 0.704476 0.560011 -0.100087
C22   C     C_2   0.276484 0.315639 0.494465 0.068507
C23   C     C_R   0.832498 0.905572 0.191579 0.775070
C24   C     C_2   0.670312 0.254205 0.480265 -0.060850
C25   C     C_2   0.776473 0.815653 0.494459 0.068553
C26   C     C_2   0.170319 0.754249 0.480206 -0.079388
C27   C     C_2   0.647738 0.254128 0.864800 0.827430
C28   C     C_2   0.305992 0.356969 0.013701 0.801859
C29   C     C_2   0.147732 0.754115 0.864775 0.835743
C30   C     C_2   0.806020 0.856911 0.013734 0.802894
C31   C     C_2   0.697801 0.213025 0.878032 -0.323723
C32   C     C_2   0.237614 0.347705 0.957368 -0.285029
C33   C     C_2   0.197802 0.713018 0.878020 -0.328673
C34   C     C_R   0.153203 0.866825 0.768492 0.687077
C35   C     C_2   0.737634 0.847688 0.957371 -0.285481
C36   C     C_2   0.305951 0.654618 0.025410 -0.159665
C37   C     C_2   0.643458 0.757431 0.845638 -0.167562
C38   C     C_2   0.805955 0.154637 0.025425 -0.159509
C39   C     C_2   0.143440 0.257444 0.845613 -0.166568
C40   C     C_R   0.594051 0.366173 0.404006 0.445655
C41   C     C_R   0.389524 0.384280 0.589521 0.406738
C42   C     C_R   0.093997 0.866153 0.403965 0.369904
C43   C     C_R   0.889520 0.884284 0.589518 0.402214
C44   C     C_2   0.237620 0.659633 0.969048 -0.020348
C45   C     C_R   0.389448 0.609776 0.592619 0.465427
C46   C     C_2   0.697246 0.793836 0.864015 -0.068423
C47   C     C_2   0.737624 0.159644 0.969063 -0.024452
C48   C     C_2   0.197230 0.293853 0.864006 -0.068311
C49   C     C_R   0.671455 0.367019 0.588840 0.462543
C50   C     C_R   0.316544 0.384294 0.406018 0.469917
C51   C     C_R   0.171421 0.866987 0.588809 0.473612
C52   C     C_R   0.816541 0.884300 0.406017 0.471269
C53   C     C_R   0.560498 0.359270 0.757528 -0.057437
C54   C     C_R   0.421667 0.393786 0.196370 -0.091834
C55   C     C_R   0.060497 0.859266 0.757521 -0.050826
C56   C     C_R   0.598495 0.638943 0.415578 0.519642
C57   C     C_R   0.921690 0.893732 0.196412 -0.087120
C58   C     C_R   0.351724 0.380732 0.130986 -0.319850
C59   C     C_R   0.621091 0.322804 0.797306 -0.334303
C60   C     C_R   0.851741 0.880696 0.131008 -0.322670
C61   C     C_R   0.121090 0.822798 0.797293 -0.336835
C62   C     C_R   0.645281 0.324514 0.493217 -0.221850
C63   C     C_R   0.326606 0.357312 0.496452 -0.289692
C64   C     C_R   0.145198 0.824463 0.493174 -0.235985
C65   C     C_R   0.826599 0.857322 0.496449 -0.288581
C66   C     C_R   0.317902 0.614548 0.408517 -0.120705
C67   C     C_R   0.889423 0.109722 0.592611 0.466619
C68   C     C_R   0.673123 0.630684 0.598074 -0.155070
C69   C     C_R   0.817879 0.114495 0.408513 -0.128711
C70   C     C_R   0.173130 0.130675 0.598074 -0.162196
C71   C     C_R   0.420072 0.605317 0.195705 -0.010781
C72   C     C_R   0.557639 0.647101 0.747739 -0.003738
C73   C     C_R   0.920077 0.105331 0.195714 -0.008752
C74   C     C_R   0.057629 0.147108 0.747716 -0.002680
C75   C     C_R   0.653384 0.636133 0.766042 -0.073747
C76   C     C_R   0.333417 0.608039 0.202483 -0.007921
C77   C     C_R   0.153377 0.136143 0.766026 -0.071382
C78   C     C_R   0.098503 0.138933 0.415579 0.511961
C79   C     C_R   0.833420 0.108046 0.202489 -0.011991
C80   C     C_R   0.325886 0.635151 0.501035 -0.089494
F1    F     F_    0.273363 0.445338 0.142195 -0.690315
F2    F     F_    0.721640 0.365563 0.820257 -0.642759
F3    F     F_    0.773366 0.945327 0.142177 -0.690272
F4    F     F_    0.221637 0.865555 0.820229 -0.641688
F5    F     F_    0.624073 0.236098 0.920188 -0.656097
F6    F     F_    0.335725 0.331190 0.969961 -0.664160
F7    F     F_    0.124053 0.736071 0.920139 -0.645600
F8    F     F_    0.835762 0.831083 0.970031 -0.663109
H1    H     H_    0.751790 0.736130 0.606747 0.170067
H2    H     H_    0.655404 0.241692 0.399555 0.198851
H3    H     H_    0.781119 0.753554 0.496693 0.151108
H4    H     H_    0.155513 0.741856 0.399541 0.207285
H5    H     H_    0.213414 0.635136 0.000646 0.189669
H6    H     H_    0.718112 0.774387 0.824183 0.182910
H7    H     H_    0.713418 0.135143 0.000659 0.188943
H8    H     H_    0.218102 0.274411 0.824180 0.182839
H9    H     H_    0.716215 0.226827 0.833024 0.172028
H10   H     H_    0.213565 0.366452 0.992059 0.207959
H11   H     H_    0.216225 0.726828 0.833027 0.172433
H12   H     H_    0.269226 0.737062 0.472564 0.179829
H13   H     H_    0.713575 0.866473 0.992029 0.207885
H14   H     H_    0.329706 0.679591 0.993086 0.182534
H15   H     H_    0.622210 0.777567 0.884712 0.184797
H16   H     H_    0.829709 0.179615 0.993100 0.182663
H17   H     H_    0.122186 0.277575 0.884679 0.185015
H18   H     H_    0.524131 0.337483 0.765521 0.232676
H19   H     H_    0.447820 0.397000 0.163003 0.257486
H20   H     H_    0.024129 0.837476 0.765508 0.232398
H21   H     H_    0.947887 0.896836 0.163114 0.256086
H22   H     H_    0.271559 0.619625 0.323336 0.181722
H23   H     H_    0.251797 0.236119 0.606747 0.169294
H24   H     H_    0.720853 0.634870 0.681928 0.158338
H25   H     H_    0.771538 0.119568 0.323330 0.177383
H26   H     H_    0.220861 0.134857 0.681929 0.158961
H27   H     H_    0.442745 0.597301 0.156785 0.194002
H28   H     H_    0.517832 0.674686 0.743861 0.166733
H29   H     H_    0.942757 0.097330 0.156802 0.194675
H30   H     H_    0.017814 0.174690 0.743821 0.166510
H31   H     H_    0.705926 0.643576 0.797502 0.123375
H32   H     H_    0.282078 0.607709 0.178344 0.146816
H33   H     H_    0.205916 0.143594 0.797481 0.122954
H34   H     H_    0.769095 0.236919 0.472366 0.185302
H35   H     H_    0.782081 0.107717 0.178352 0.145025
H36   H     H_    0.618304 0.813438 0.410873 0.193594
H37   H     H_    0.256733 0.593191 0.573039 0.182599
H38   H     H_    0.118311 0.313410 0.410848 0.193828
H39   H     H_    0.756778 0.093182 0.573246 0.182461
H40   H     H_    0.653807 0.355250 0.244321 0.398549
H41   H     H_    0.353756 0.403496 0.781016 0.410290
H42   H     H_    0.191643 0.902738 0.369002 0.367275
H43   H     H_    0.853714 0.903373 0.780962 0.411021
H44   H     H_    0.826661 0.474067 0.810909 0.387100
H45   H     H_    0.217584 0.412594 0.472740 0.148278
H46   H     H_    0.172440 0.480293 0.157107 0.399531
H47   H     H_    0.326697 0.973990 0.810777 0.387873
H48   H     H_    0.672443 0.980292 0.157090 0.398359
H49   H     H_    0.428718 0.700191 0.837624 0.398833
H50   H     H_    0.505311 0.733715 0.150811 0.394333
H51   H     H_    0.928886 0.200206 0.837711 0.399000
H52   H     H_    0.005406 0.233665 0.150807 0.394882
H53   H     H_    0.719668 0.207306 0.637849 0.177258
H54   H     H_    0.717582 0.912612 0.472750 0.148060
H55   H     H_    0.219534 0.707196 0.637661 0.177117
H56   H     H_    0.281135 0.253541 0.496705 0.149080
N1    N     N_R   0.389060 0.424180 0.294540 -0.117667
N2    N     N_R   0.374530 0.423490 0.443400 -0.142744
N3    N     N_R   0.125470 0.923490 0.556600 -0.133000
N4    N     N_R   0.874530 0.923490 0.443400 -0.142313
N5    N     N_R   0.555250 0.423100 0.705420 -0.084223
N6    N     N_R   0.444750 0.423100 0.294580 -0.116344
N7    N     N_R   0.055250 0.923100 0.705420 -0.084810
N8    N     N_R   0.944750 0.923100 0.294580 -0.113112
N9    N     N_R   0.375210 0.577180 0.443400 -0.078059
N10   N     N_R   0.624790 0.577180 0.556600 -0.069163
N11   N     N_R   0.875210 0.077180 0.443400 -0.076371
N12   N     N_R   0.610940 0.424180 0.705460 -0.111964
N13   N     N_R   0.124790 0.077180 0.556600 -0.069466
N14   N     N_R   0.445430 0.577570 0.294580 -0.079618
N15   N     N_R   0.554570 0.577570 0.705420 -0.046784
N16   N     N_R   0.945430 0.077570 0.294580 -0.078813
N17   N     N_R   0.054570 0.077570 0.705420 -0.046827
N18   N     N_R   0.611620 0.576500 0.705460 -0.053329
N19   N     N_R   0.388380 0.576500 0.294540 -0.061778
N20   N     N_R   0.111620 0.076500 0.705460 -0.052881
N21   N     N_R   0.888380 0.076500 0.294540 -0.060844
N22   N     N_R   0.421010 0.576890 0.556640 -0.128822
N23   N     N_R   0.889060 0.924180 0.294540 -0.117037
N24   N     N_R   0.578990 0.576890 0.443360 -0.109403
N25   N     N_R   0.921010 0.076890 0.556640 -0.128965
N26   N     N_R   0.078990 0.076890 0.443360 -0.111360
N27   N     N_R   0.110940 0.924180 0.705460 -0.111779
N28   N     N_R   0.579670 0.423790 0.443360 -0.136215
N29   N     N_R   0.420330 0.423790 0.556640 -0.149627
N30   N     N_R   0.079670 0.923790 0.443360 -0.130416
N31   N     N_R   0.920330 0.923790 0.556640 -0.149665
N32   N     N_R   0.625470 0.423490 0.556600 -0.135883
Ni1   Ni    Ni4+2 0.383200 0.500680 0.370150 0.278447
Ni2   Ni    Ni4+2 0.616800 0.500680 0.629850 0.300557
Ni3   Ni    Ni4+2 0.883200 0.000680 0.370150 0.279634
Ni4   Ni    Ni4+2 0.116800 0.000680 0.629850 0.299316
Ni5   Ni    Ni4+2 0.512440 0.500680 0.370150 0.285863
Ni6   Ni    Ni4+2 0.487560 0.500680 0.629850 0.319832
Ni7   Ni    Ni4+2 0.012440 0.000680 0.370150 0.279645
Ni8   Ni    Ni4+2 0.987560 0.000680 0.629850 0.321628
O1    O     O_2   0.539148 0.302954 0.206770 -0.279000
O2    O     O_2   0.924090 0.802318 0.759729 -0.270767
O3    O     O_2   0.973089 0.932401 0.805013 -0.184724
O4    O     O_3   0.842288 0.915088 0.709352 -0.506828
O5    O     O_2   0.797392 0.318924 0.766457 -0.235923
O6    O     O_2   0.791232 0.394995 0.630517 -0.235652
O7    O     O_3   0.775658 0.466114 0.760162 -0.485381
O8    O     O_2   0.232123 0.335165 0.194903 -0.259394
O9    O     O_2   0.175756 0.366800 0.271533 -0.262470
O10   O     O_3   0.220385 0.480368 0.228496 -0.511267
O11   O     O_2   0.297348 0.818838 0.766367 -0.231112
O12   O     O_2   0.554117 0.443224 0.223980 -0.231038
O13   O     O_2   0.291187 0.894864 0.630391 -0.272263
O14   O     O_3   0.275691 0.966050 0.760092 -0.484890
O15   O     O_2   0.732125 0.835160 0.194907 -0.259222
O16   O     O_2   0.675755 0.866814 0.271528 -0.263159
O17   O     O_3   0.720389 0.980368 0.228476 -0.512588
O18   O     O_2   0.368877 0.566424 0.735629 -0.248260
O19   O     O_2   0.489085 0.578063 0.812602 -0.237797
O20   O     O_3   0.419110 0.702794 0.765860 -0.514474
O21   O     O_2   0.640221 0.691077 0.305805 -0.232431
O22   O     O_2   0.554541 0.588293 0.215863 -0.229064
O23   O     O_3   0.663227 0.360463 0.315839 -0.505581
O24   O     O_3   0.514424 0.725167 0.221391 -0.570932
O25   O     O_2   0.868916 0.066392 0.735713 -0.247911
O26   O     O_2   0.989103 0.078059 0.812599 -0.236085
O27   O     O_3   0.919103 0.202773 0.765837 -0.513707
O28   O     O_2   0.140281 0.190970 0.305843 -0.235534
O29   O     O_2   0.054572 0.088208 0.215931 -0.232527
O30   O     O_3   0.014480 0.225127 0.221358 -0.568846
O31   O     O_2   0.424086 0.302327 0.759741 -0.276011
O32   O     O_2   0.473089 0.432409 0.805011 -0.191464
O33   O     O_3   0.342287 0.415104 0.709343 -0.506115
O34   O     O_2   0.039479 0.803100 0.206802 -0.227834
O35   O     O_2   0.053983 0.943110 0.223305 -0.228162
O36   O     O_3   0.163112 0.860488 0.315027 -0.476047
S1    S     S_3+6 0.584554 0.368919 0.282092 -0.005576
S2    S     S_3+6 0.577361 0.659027 0.286791 -0.019229
S3    S     S_3+6 0.918008 0.110907 0.730133 -0.012273
S4    S     S_3+6 0.077401 0.158969 0.286811 -0.024865
S5    S     S_3+6 0.410483 0.383850 0.721069 0.009822
S6    S     S_3+6 0.084706 0.869093 0.282175 0.013574
S7    S     S_3+6 0.910483 0.883843 0.721068 0.014271
S8    S     S_3+6 0.761732 0.384982 0.688788 0.054005
S9    S     S_3+6 0.234098 0.389471 0.272214 0.008726
S10   S     S_3+6 0.261709 0.884904 0.688703 0.039360
S11   S     S_3+6 0.734099 0.889476 0.272208 0.008227
S12   S     S_3+6 0.418002 0.610934 0.730121 -0.013315

loop_
_geom_bond_atom_site_label_1
_geom_bond_atom_site_label_2
_ccdc_geom_bond_type
C26   H4    S    
N23   Ni3   S    
C21   C26   D    
C5    C36   S    
C11   C18   S    
O20   S12   S    
O7    S8    S    
N9    N22   A    
C1    N1    A    
N22   Ni6   S    
O9    S9    D    
C15   H12   S    
O4    S7    S    
N17   N20   A    
H47   O14   S    
C4    C70   A    
C53   C59   A    
N3    N30   A    
N7    N27   A    
N7    Ni8   S    
C54   N6    A    
O13   S10   D    
C70   H26   S    
C29   F7    S    
C6    C72   A    
C73   N16   A    
C69   H25   S    
C76   H32   S    
C72   N15   A    
C23   F3    S    
C54   H19   S    
C50   S9    S    
C75   N18   A    
O6    S8    D    
C6    C37   S    
C3    C69   A    
N5    N12   A    
O22   S2    D    
C2    C68   A    
C10   C15   D    
O28   S4    D    
O19   S12   D    
N26   Ni7   S    
O29   S4    D    
O33   S5    S    
C20   C25   D    
O24   S2    S    
N2    N29   A    
C29   C33   D    
O21   S2    D    
C78   N26   A    
C9    H36   S    
C40   C62   A    
C18   H45   S    
C36   H14   S    
C68   H24   S    
C27   F5    S    
O16   S11   D    
O15   S11   D    
H41   O33   S    
C44   H5    S    
C9    C20   S    
C22   H56   S    
C22   C63   S    
C12   C59   A    
N12   Ni2   S    
C53   H18   S    
C57   H21   S    
O2    S7    D    
C43   S7    S    
C30   C60   S    
N19   Ni1   S    
C38   H16   S    
C49   C62   A    
C45   S12   S    
C10   H37   S    
C45   N22   A    
N16   Ni7   S    
C26   C64   S    
N1    N6    A    
N20   Ni4   S    
H52   O30   S    
H43   O4    S    
C50   N2    A    
C77   N20   A    
N32   Ni2   S    
C52   N4    A    
O1    S1    D    
C51   S10   S    
C53   N5    A    
C50   C63   A    
C32   C48   S    
O10   S9    S    
N10   N24   A    
C49   S8    S    
O8    S9    D    
C34   F4    S    
C12   N12   A    
N3    Ni4   S    
H48   O17   S    
N11   Ni3   S    
N6    Ni5   S    
N9    Ni1   S    
C42   S6    S    
C10   C21   S    
C23   C60   A    
C74   H30   S    
C29   C61   S    
C25   H3    S    
N4    N31   A    
C73   H29   S    
C13   C19   S    
C27   C31   D    
C20   H54   S    
C28   C32   D    
C11   H38   S    
C75   H31   S    
C57   N8    A    
C21   H55   S    
C7    C73   A    
C42   N30   A    
C37   H15   S    
H50   O24   S    
C57   C60   A    
H51   O27   S    
C79   H35   S    
C71   H27   S    
C41   S5    S    
C79   N21   A    
N2    Ni1   S    
C33   H11   S    
N13   Ni4   S    
O35   S6    D    
C4    C16   S    
H46   O10   S    
C67   S3    S    
C9    C14   D    
C14   H1    S    
C4    C78   A    
N13   N26   A    
C74   N17   A    
O3    S7    D    
C11   C16   D    
N11   N25   A    
N25   Ni8   S    
C15   C80   S    
C46   H6    S    
C51   N3    A    
C43   C65   A    
O27   S3    S    
C56   N24   A    
C8    C74   A    
N15   N18   A    
C12   F2    S    
C69   N11   A    
N16   N21   A    
C66   H22   S    
N8    Ni7   S    
H42   O36   S    
H44   O7    S    
C38   C47   D    
O30   S4    S    
N14   N19   A    
C2    C56   A    
C23   N23   A    
C30   C35   D    
C8    C39   S    
N29   Ni6   S    
O23   S1    S    
N4    Ni3   S    
N10   Ni2   S    
C28   F6    S    
C8    C77   A    
O25   S3    D    
N27   Ni4   S    
C36   C44   D    
O5    S8    D    
C41   C63   A    
O18   S12   D    
C30   F8    S    
C43   N31   A    
C31   H9    S    
C42   C64   A    
C40   N28   A    
N8    N23   A    
C7    C79   A    
C54   C58   A    
C39   H17   S    
C71   N14   A    
C41   N29   A    
C24   C62   S    
O26   S3    D    
C48   H8    S    
C18   C22   D    
C33   C44   S    
C3    C67   A    
C51   C64   A    
O12   S1    D    
C35   H13   S    
C24   H2    S    
N30   Ni7   S    
C66   N9    A    
O14   S10   S    
C52   S11   S    
C55   N7    A    
H40   O23   S    
H49   O20   S    
C28   C58   S    
C66   C80   A    
C72   H28   S    
C68   N10   A    
O32   S5    D    
C13   C17   D    
C55   H20   S    
C70   N13   A    
C5    C76   A    
C19   C24   D    
C40   S1    S    
C5    C71   A    
C27   C59   S    
C1    C58   A    
C56   S2    S    
N5    Ni6   S    
N17   Ni8   S    
N21   Ni3   S    
C55   C61   A    
C7    C38   S    
C32   H10   S    
C3    C17   S    
C45   C80   A    
C34   C61   A    
N15   Ni6   S    
C67   N25   A    
C2    C14   S    
N14   Ni5   S    
N18   Ni2   S    
C77   H33   S    
C34   N27   A    
C13   H39   S    
C17   H34   S    
O17   S11   S    
O36   S6    S    
O11   S10   D    
C19   H53   S    
N24   Ni5   S    
N1    Ni1   S    
C25   C65   S    
C47   H7    S    
C39   C48   D    
C76   N19   A    
C31   C47   S    
O31   S5    D    
C37   C46   D    
N28   Ni5   S    
C35   C46   S    
C1    F1    S    
O34   S6    D    
C49   N32   A    
C52   C65   A    
N28   N32   A    
C16   H23   S    
C78   S4    S    
N31   Ni8   S    
C6    C75   A    
