data_mof_unit_67151.cif
_audit_creation_date              2013-03-05T15:58:57-0500
_audit_creation_method            fapswitch 2.2
_symmetry_space_group_name_H-M    P1
_symmetry_Int_Tables_number       1
_space_group_crystal_system       triclinic
_cell_length_a                    8.149472
_cell_length_b                    12.802142
_cell_length_c                    14.976154
_cell_angle_alpha                 96.484406
_cell_angle_beta                  97.478033
_cell_angle_gamma                 98.895415
_cell_volume                      1516.3648603

loop_
_atom_site_label
_atom_site_type_symbol
_atom_site_description
_atom_site_fract_x
_atom_site_fract_y
_atom_site_fract_z
_atom_type_partial_charge
P1    P     P_3+3 0.998730 0.403530 0.291970 0.452113
O1    O     O_2   0.827880 0.435260 0.277750 -0.360090
O2    O     O_3   0.100280 0.438960 0.391170 -0.405135
O3    O     O_3   0.625580 0.634130 0.333250 -0.341221
O4    O     O_2   0.717068 0.557571 0.184238 -0.388199
O5    O     O_3   0.953905 0.264132 0.269027 -0.589522
O6    O     O_3   0.677092 0.753820 0.188757 -0.500512
C1    C     C_3   0.603964 0.867686 0.078161 -0.988893
H1    H     H_    0.512351 0.919466 0.056792 0.222062
H2    H     H_    0.729943 0.917794 0.099210 0.276367
P2    P     P_3+3 0.687380 0.751030 0.571310 0.451450
P3    P     P_3+3 0.103443 0.828848 0.381635 0.474060
O7    O     O_2   0.857130 0.766340 0.543890 -0.376462
O8    O     O_3   0.056550 0.691050 0.379010 -0.388620
O9    O     O_2   0.970332 0.878348 0.428963 -0.365665
O10   O     O_3   0.723608 0.774746 0.690270 -0.597233
O11   O     O_3   0.067028 0.856155 0.269442 -0.513480
C2    C     C_3   0.094953 0.768295 0.211493 0.540552
H3    H     H_    0.995766 0.698182 0.210970 0.159316
H4    H     H_    0.220149 0.747145 0.232925 -0.020646
C3    C     C_3   0.087901 0.795323 0.115068 -1.034325
H5    H     H_    0.101208 0.724622 0.068151 0.231815
H6    H     H_    0.966259 0.819995 0.092565 0.297363
C4    C     C_3   0.284156 0.781894 0.659618 0.449577
H7    H     H_    0.371081 0.737625 0.626630 0.100321
H8    H     H_    0.171118 0.782398 0.609755 0.108011
C5    C     C_3   0.372369 0.896393 0.692771 -1.016338
H9    H     H_    0.503539 0.897328 0.724343 0.256668
H10   H     H_    0.372925 0.944118 0.635604 0.244826
H11   H     H_    0.307212 0.935073 0.744445 0.280502
Ba1   Ba    Ba6+2 0.843750 0.550210 0.455600 1.552825
C6    C     C_3   0.931330 0.219799 0.348471 0.346894
H12   H     H_    0.812594 0.236962 0.368909 0.105466
H13   H     H_    0.035936 0.251028 0.404708 0.147095
C7    C     C_3   0.922459 0.099819 0.328662 -0.884948
H14   H     H_    0.827693 0.066758 0.267983 0.263454
H15   H     H_    0.887190 0.061191 0.387601 0.241015
H16   H     H_    0.046688 0.081847 0.315158 0.260537
C8    C     C_3   0.770791 0.685784 0.725925 0.459885
H17   H     H_    0.879041 0.662556 0.696131 0.096524
H18   H     H_    0.664818 0.617778 0.712439 0.142042
C9    C     C_3   0.820232 0.715234 0.828143 -1.040927
H19   H     H_    0.943534 0.768921 0.843228 0.262600
H20   H     H_    0.831258 0.643107 0.860775 0.233940
H21   H     H_    0.723878 0.755215 0.857455 0.268852
P4    P     P_3+3 0.190990 0.596560 0.708040 0.444652
O12   O     O_2   0.361830 0.564780 0.722310 -0.381055
O13   O     O_3   0.089430 0.561130 0.608830 -0.408088
O14   O     O_3   0.564130 0.365960 0.666760 -0.340968
O15   O     O_3   0.236734 0.735625 0.734395 -0.576429
P5    P     P_3+3 0.096220 0.174699 0.629189 0.465078
O16   O     O_3   0.601940 0.368240 0.453770 -0.393937
O17   O     O_3   0.133170 0.309040 0.621000 -0.394670
O18   O     O_2   0.223072 0.123640 0.577845 -0.368692
O19   O     O_3   0.152299 0.158660 0.743310 -0.527858
Ba2   Ba    Ba6+2 0.346090 0.449880 0.544410 1.546849
P6    P     P_3+3 0.592735 0.627825 0.215696 0.462446
C10   C     C_3   0.550978 0.810486 0.156889 0.522329
H22   H     H_    0.426884 0.759962 0.132987 0.012755
H23   H     H_    0.609655 0.810670 0.017959 0.241377
O20   O     O_3   0.587780 0.631850 0.546230 -0.405044
C11   C     C_3   0.418325 0.280672 0.267179 0.460937
H24   H     H_    0.290811 0.288686 0.282193 0.088453
H25   H     H_    0.505451 0.357578 0.289864 0.125896
C12   C     C_3   0.411191 0.255999 0.164886 -1.048472
H26   H     H_    0.331256 0.177525 0.139615 0.262311
H27   H     H_    0.358333 0.318288 0.130263 0.232004
H28   H     H_    0.539343 0.253442 0.148226 0.258212
P7    P     P_3+3 0.509798 0.233028 0.426862 0.421777
O21   O     O_2   0.332590 0.233690 0.456160 -0.386108
O22   O     O_3   0.473807 0.196731 0.308732 -0.573202
H29   H     H_    0.192169 0.860981 0.112367 0.241923
C13   C     C_3   0.133187 0.251455 0.797986 0.562481
H30   H     H_    0.218941 0.321431 0.783745 0.166091
H31   H     H_    0.002522 0.266167 0.784261 -0.038110
C14   C     C_3   0.176791 0.240839 0.898377 -0.975506
H32   H     H_    0.250236 0.316916 0.936039 0.237944
H33   H     H_    0.060411 0.222444 0.928521 0.239956
H34   H     H_    0.252867 0.177044 0.907584 0.285794
P8    P     P_3+3 0.603167 0.370042 0.784484 0.446503
C15   C     C_3   0.639151 0.179898 0.823060 0.341191
H35   H     H_    0.767286 0.226042 0.844083 0.029130
O23   O     O_2   0.491549 0.445652 0.822637 -0.412347
O24   O     O_3   0.516063 0.245154 0.811088 -0.494762
H36   H     H_    0.637860 0.128364 0.757963 0.073633
C16   C     C_3   0.599738 0.110103 0.897237 -0.629815
H37   H     H_    0.505085 0.038528 0.867887 0.200885
H38   H     H_    0.543690 0.155983 0.949421 0.200921
C17   C     C_R   0.824970 0.428305 0.829689 0.143182
C18   C     C_R   0.895284 0.437025 0.922505 -0.000834
C19   C     C_R   0.041298 0.452736 0.108716 -0.005875
C20   C     C_R   0.877467 0.397694 0.076794 -0.092267
C21   C     C_R   0.805058 0.391774 0.986447 -0.219313
C22   C     C_R   0.111640 0.464292 0.202384 0.224699
H39   H     H_    0.801516 0.358628 0.121046 0.161333
H40   H     H_    0.676698 0.351244 0.967676 0.164815
C23   C     C_R   0.276185 0.518940 0.228845 -0.505602
C24   C     C_R   0.082186 0.530310 0.795264 0.251244
C25   C     C_R   0.153421 0.540362 0.888450 -0.051256
C26   C     C_R   0.062097 0.491228 0.951747 0.025554
C27   C     C_R   0.317284 0.593252 0.919032 -0.128692
C28   C     C_R   0.400044 0.584700 0.004247 -0.056683
C29   C     C_R   0.308358 0.546808 0.072219 -0.085699
C30   C     C_R   0.136962 0.497920 0.044682 0.012669
C31   C     C_R   0.376258 0.558723 0.166231 0.146444
C32   C     C_R   0.921670 0.470880 0.767399 -0.520539
H41   H     H_    0.389457 0.635478 0.874772 0.179046
H42   H     H_    0.329155 0.528063 0.299918 0.182474
H43   H     H_    0.867545 0.462764 0.696571 0.180697
C33   C     C_R   0.777603 0.182575 0.537597 -0.484136
C34   C     C_R   0.421072 0.813322 0.470117 -0.485596
C35   C     C_R   0.382365 0.991025 0.447250 -0.168136
C36   C     C_R   0.319001 0.882670 0.438427 0.186787
C37   C     C_R   0.580673 0.851543 0.519993 0.303150
C38   C     C_R   0.647417 0.963758 0.533163 -0.081631
C39   C     C_R   0.548073 0.032704 0.490458 -0.040033
C40   C     C_R   0.616450 0.141818 0.492036 0.278221
C41   C     C_R   0.875631 0.117627 0.580175 0.163686
C42   C     C_R   0.808835 0.011264 0.583957 -0.133564
H44   H     H_    0.301784 0.040684 0.416746 0.178447
H45   H     H_    0.829841 0.265460 0.536926 0.167121
H46   H     H_    0.371798 0.728654 0.460040 0.167548
C43   C     C_1   0.534470 0.892801 0.229163 0.069868
N1    N     N_1   0.522755 0.960343 0.284554 -0.068466
C44   C     C_R   0.756272 0.076308 0.941663 0.175649
C45   C     C_R   0.821412 0.114291 0.033184 -0.130905
C46   C     C_R   0.974904 0.090881 0.071593 -0.112813
C47   C     C_R   0.064379 0.029805 0.019053 -0.129248
C48   C     C_R   0.998600 0.989535 0.928874 -0.078381
C49   C     C_R   0.843983 0.011493 0.890475 -0.117807
H47   H     H_    0.755008 0.163135 0.074420 0.124339
H48   H     H_    0.025778 0.121368 0.141597 0.168935
H49   H     H_    0.185934 0.014929 0.047634 0.118118
H50   H     H_    0.070179 0.943949 0.888291 0.130254
H51   H     H_    0.794604 0.980993 0.820294 0.124022
C50   C     C_1   0.580639 0.605729 0.012087 0.196988
N2    N     N_1   0.725237 0.623272 0.016150 -0.058597
C51   C     C_1   0.908406 0.960903 0.647196 0.261796
N3    N     N_1   0.993026 0.924558 0.699075 -0.061390

loop_
_geom_bond_atom_site_label_1
_geom_bond_atom_site_label_2
_geom_bond_distance
_ccdc_geom_bond_type
C27   H41   1.077784 S    
P6    C31   1.863560 S    
C45   C46   1.397488 A    
C5    H10   1.106612 S    
C2    C3    1.518491 S    
C13   H30   1.106679 S    
Ba1   O20   2.894292 S    
O5    C6    1.395963 S    
C7    H14   1.109388 S    
C4    C5    1.526040 S    
C26   C30   1.432684 A    
Ba1   O16   2.804093 S    
P8    O24   1.756531 S    
C47   C48   1.394960 A    
C33   C41   1.388796 A    
C37   C38   1.436998 A    
C43   N1    1.152853 T    
C8    H18   1.107691 S    
C10   C43   1.457489 S    
C27   C28   1.387767 A    
C5    H9    1.108878 S    
C7    H15   1.107680 S    
C4    H8    1.109128 S    
C2    H3    1.109736 S    
C33   H45   1.082169 S    
C16   H38   1.112027 S    
C38   C39   1.434337 A    
P1    Ba1   3.409735 S    
P5    C41   1.852966 S    
C39   C40   1.418010 A    
P1    O1    1.505402 D    
O2    Ba2   2.818423 S    
P8    C17   1.852688 S    
P7    O22   1.751830 S    
P2    C37   1.843401 S    
C41   C42   1.396390 A    
C11   H25   1.111024 S    
O16   P7    1.756219 S    
C1    C10   1.530551 S    
C46   H48   1.080632 S    
C23   H42   1.081505 S    
C44   C49   1.403391 A    
C49   H51   1.080616 S    
C1    H1    1.112673 S    
C12   H27   1.109875 S    
C17   C32   1.400601 A    
C14   H34   1.109130 S    
Ba1   Ba2   4.477287 S    
C19   C30   1.429146 A    
O6    C10   1.411188 S    
C2    H4    1.112267 S    
C15   C16   1.537514 S    
C23   C31   1.407947 A    
P4    C24   1.879115 S    
P2    Ba1   3.437768 S    
C3    H5    1.109605 S    
C16   C44   1.507301 S    
C13   H31   1.106985 S    
P7    O21   1.563984 D    
C9    H20   1.102577 S    
P8    O23   1.540627 D    
C33   C40   1.391772 A    
C18   C26   1.416346 A    
C35   C36   1.388406 A    
C15   H35   1.104611 S    
C8    C9    1.519874 S    
C4    O15   1.395000 S    
P4    O13   1.584269 S    
C3    H29   1.107230 S    
P1    O5    1.750279 S    
C6    C7    1.519766 S    
C7    H16   1.110687 S    
C14   H32   1.110284 S    
C29   C31   1.426301 A    
C19   C20   1.405170 A    
C35   H44   1.077373 S    
C16   H37   1.109075 S    
P1    C22   1.894082 S    
C22   C23   1.397708 A    
C10   H22   1.104730 S    
C20   H39   1.076258 S    
O1    Ba1   2.871025 S    
P1    O2    1.584114 S    
C9    H21   1.111104 S    
C6    H13   1.107954 S    
O3    P6    1.736689 S    
C34   H46   1.082401 S    
C11   H24   1.108839 S    
P2    O10   1.751142 S    
C25   C26   1.421871 A    
P3    O9    1.546612 D    
C12   H28   1.109322 S    
O11   C2    1.407199 S    
C34   C36   1.387864 A    
C4    H7    1.104133 S    
O2    Ba1   2.909561 S    
C25   C27   1.393787 A    
P3    O8    1.741152 S    
C12   H26   1.106541 S    
C21   H40   1.079422 S    
Ba2   O21   2.908741 S    
Ba1   O13   2.817682 S    
C3    H6    1.109036 S    
C44   C45   1.406111 A    
C13   C14   1.525523 S    
C9    H19   1.106975 S    
C46   C47   1.396030 A    
C35   C39   1.413796 A    
C15   O24   1.407991 S    
C18   C21   1.403596 A    
C48   C49   1.398172 A    
O17   Ba2   2.755929 S    
O13   Ba2   2.910393 S    
P4    O12   1.505639 D    
C11   C12   1.520490 S    
C42   C51   1.439020 S    
O7    Ba1   2.908424 S    
C14   H33   1.106877 S    
C50   N2    1.157224 T    
P2    O20   1.592500 S    
O14   Ba2   2.802970 S    
P4    O15   1.749880 S    
C38   C42   1.437571 A    
C24   C32   1.393768 A    
O14   P8    1.743667 S    
O4    P6    1.538804 D    
O19   C13   1.405970 S    
P5    O18   1.545831 D    
C6    H12   1.098150 S    
O8    Ba1   2.755361 S    
C47   H49   1.080358 S    
C1    H23   1.104781 S    
C19   C22   1.426846 A    
P2    O7    1.484236 D    
C45   H47   1.081506 S    
P7    C40   1.849889 S    
C20   C21   1.392799 A    
C11   O22   1.405204 S    
P3    C36   1.840781 S    
C34   C37   1.398870 A    
P5    O19   1.754131 S    
C28   C29   1.423825 A    
C28   C50   1.441412 S    
O3    Ba1   2.803614 S    
C51   N3    1.156334 T    
O10   C8    1.396222 S    
C48   H50   1.080607 S    
C8    H17   1.104257 S    
P3    O11   1.751682 S    
C1    H2    1.109652 S    
C24   C25   1.423601 A    
P4    Ba2   3.410272 S    
C29   C30   1.426256 A    
Ba2   O20   2.803560 S    
P5    O17   1.720667 S    
C17   C18   1.418050 A    
O6    P6    1.764486 S    
C15   H36   1.111638 S    
O16   Ba2   2.893551 S    
O12   Ba2   2.871582 S    
C5    H11   1.108046 S    
C32   H43   1.081505 S    
