data_mof_unit_36845.cif
_audit_creation_date              2012-12-10T17:27:09-0500
_audit_creation_method            fapswitch 2.2
_symmetry_space_group_name_H-M    P1
_symmetry_Int_Tables_number       1
_space_group_crystal_system       triclinic
_cell_length_a                    18.33315
_cell_length_b                    17.951782
_cell_length_c                    11.968883
_cell_angle_alpha                 89.963913
_cell_angle_beta                  83.428061
_cell_angle_gamma                 90.377027
_cell_volume                      3913.13888323

loop_
_atom_site_label
_atom_site_type_symbol
_atom_type_description
_atom_site_fract_x
_atom_site_fract_y
_atom_site_fract_z
_atom_type_partial_charge
C1    C     C_R   0.397501 0.098040 0.524198 1.015400
C2    C     C_R   0.534675 0.007708 0.017972 0.037652
C3    C     C_R   0.965240 0.494045 0.982166 0.022231
C4    C     C_R   0.034675 0.507708 0.017972 0.037642
C5    C     C_R   0.586952 0.012195 0.823423 0.084419
C6    C     C_R   0.413159 0.987390 0.176536 0.113678
C7    C     C_R   0.086952 0.512197 0.823423 0.084416
C8    C     C_R   0.913159 0.487389 0.176536 0.113660
C9    C     C_R   0.595958 0.016597 0.937706 -0.199060
C10   C     C_R   0.404014 0.984425 0.062290 -0.157320
C11   C     C_R   0.095957 0.516599 0.937706 -0.199049
C12   C     C_R   0.601565 0.900994 0.475964 0.955737
C13   C     C_R   0.904014 0.484423 0.062290 -0.157332
C14   C     C_R   0.458988 0.990789 0.866599 0.120676
C15   C     C_R   0.540760 0.011704 0.133622 0.092278
C16   C     C_R   0.958988 0.490787 0.866599 0.120678
C17   C     C_R   0.040760 0.511704 0.133622 0.092312
C18   C     C_R   0.653591 0.159492 0.457167 -0.237292
C19   C     C_R   0.350724 0.834437 0.535419 -0.198931
C20   C     C_R   0.337799 0.150804 0.540839 -0.265921
C21   C     C_R   0.659456 0.846565 0.458756 -0.236819
C22   C     C_R   0.153596 0.659488 0.457164 -0.237309
C23   C     C_R   0.598126 0.102550 0.476845 1.012414
C24   C     C_R   0.850722 0.334439 0.535419 -0.198925
C25   C     C_R   0.837797 0.650802 0.540838 -0.265954
C26   C     C_R   0.159460 0.346569 0.458755 -0.236812
C27   C     C_R   0.323377 0.705101 0.582305 0.256150
C28   C     C_R   0.704885 0.271523 0.367138 0.316969
C29   C     C_R   0.758940 0.782403 0.349587 0.261418
C30   C     C_R   0.236675 0.213507 0.649130 0.370288
C31   C     C_R   0.823381 0.205100 0.582285 0.256139
C32   C     C_R   0.204909 0.771504 0.367110 0.317013
C33   C     C_R   0.258955 0.282418 0.349592 0.261344
C34   C     C_R   0.401677 0.896987 0.523027 0.947258
C35   C     C_R   0.736677 0.713509 0.649133 0.370278
C36   C     C_R   0.358688 0.772286 0.606218 0.247388
C37   C     C_R   0.646289 0.220685 0.384836 0.301835
C38   C     C_R   0.709453 0.842229 0.359748 0.270000
C39   C     C_R   0.287803 0.154949 0.639937 0.323949
C40   C     C_R   0.858691 0.272284 0.606206 0.247382
C41   C     C_R   0.146308 0.720671 0.384807 0.301892
C42   C     C_R   0.209464 0.342241 0.359753 0.269997
C43   C     C_R   0.787805 0.654951 0.639941 0.323958
C44   C     C_R   0.301087 0.832547 0.455933 -0.167310
C45   C     C_R   0.897501 0.598040 0.524198 1.015350
C46   C     C_R   0.715158 0.151127 0.513483 -0.175236
C47   C     C_R   0.665179 0.799128 0.548996 -0.165635
C48   C     C_R   0.329998 0.196382 0.449096 -0.130474
C49   C     C_R   0.801076 0.332557 0.455944 -0.167322
C50   C     C_R   0.215156 0.651127 0.513498 -0.175225
C51   C     C_R   0.165181 0.299129 0.548992 -0.165632
C52   C     C_R   0.829989 0.696374 0.449091 -0.130421
C53   C     C_R   0.258317 0.770530 0.443252 -0.050521
C54   C     C_R   0.766782 0.207745 0.511542 -0.024888
C55   C     C_R   0.724364 0.752385 0.549923 -0.065898
C56   C     C_R   0.101566 0.400995 0.475964 0.955747
C57   C     C_R   0.270757 0.242920 0.448453 -0.055291
C58   C     C_R   0.758305 0.270541 0.443263 -0.050506
C59   C     C_R   0.266784 0.707741 0.511551 -0.024894
C60   C     C_R   0.224368 0.252388 0.549921 -0.065891
C61   C     C_R   0.770748 0.742911 0.448450 -0.055279
C62   C     C_R   0.098126 0.602550 0.476844 1.012388
C63   C     C_R   0.901676 0.396988 0.523027 0.947257
C64   C     C_R   0.465240 0.994046 0.982166 0.022237
H1    H     H_    0.366238 0.979407 0.238952 0.174199
H2    H     H_    0.293676 0.882233 0.407276 0.222217
H3    H     H_    0.370809 0.194639 0.376535 0.263526
H4    H     H_    0.623482 0.800456 0.620419 0.256370
H5    H     H_    0.218210 0.603267 0.567827 0.220029
H6    H     H_    0.793662 0.382247 0.407299 0.222214
H7    H     H_    0.870795 0.694627 0.376524 0.263527
H8    H     H_    0.123481 0.300452 0.620411 0.256373
H9    H     H_    0.650042 0.026777 0.962935 0.198820
H10   H     H_    0.349956 0.974190 0.036973 0.203736
H11   H     H_    0.150041 0.526781 0.962935 0.198827
H12   H     H_    0.634007 0.019273 0.760957 0.167085
H13   H     H_    0.849957 0.474187 0.036973 0.203737
H14   H     H_    0.501873 0.336747 0.283982 0.407372
H15   H     H_    0.335029 0.717077 0.856091 0.374246
H16   H     H_    0.201134 0.040653 0.873280 0.402037
H17   H     H_    0.834390 0.933771 0.248019 0.370876
H18   H     H_    0.002019 0.836657 0.283413 0.407508
H19   H     H_    0.835043 0.217057 0.856065 0.374239
H20   H     H_    0.701145 0.540664 0.873301 0.402041
H21   H     H_    0.334399 0.433799 0.248058 0.370853
H22   H     H_    0.971808 0.140604 0.572729 0.356490
H23   H     H_    0.866238 0.479406 0.238952 0.174213
H24   H     H_    0.195681 0.746332 0.122980 0.360583
H25   H     H_    0.204089 0.251438 0.123958 0.372371
H26   H     H_    0.586789 0.733319 0.875904 0.405544
H27   H     H_    0.471798 0.640599 0.572778 0.356487
H28   H     H_    0.695615 0.246379 0.123018 0.360552
H29   H     H_    0.704047 0.751407 0.123979 0.372360
H30   H     H_    0.086778 0.233307 0.875888 0.405544
H31   H     H_    0.134006 0.519277 0.760957 0.167085
H32   H     H_    0.593090 0.023720 0.163384 0.189348
H33   H     H_    0.406233 0.981652 0.837118 0.209022
H34   H     H_    0.093090 0.523722 0.163384 0.189362
H35   H     H_    0.906234 0.481647 0.837118 0.209016
H36   H     H_    0.718220 0.103260 0.567796 0.220026
N1    N     N_R   0.480750 0.000000 0.209750 -0.131651
N2    N     N_R   0.519250 1.000000 0.790250 -0.127960
N3    N     N_R   0.980750 0.500000 0.209750 -0.131656
N4    N     N_R   0.019250 0.500000 0.790250 -0.127958
O1    O     O_R   0.418020 0.076820 0.422210 -0.611731
O2    O     O_R   0.569630 0.923170 0.391410 -0.576065
O3    O     O_R   0.569630 0.076830 0.391410 -0.559497
O4    O     O_R   0.430370 0.923170 0.608590 -0.534372
O5    O     O_R   0.930370 0.576830 0.608590 -0.568402
O6    O     O_R   0.069630 0.423170 0.391410 -0.576073
O7    O     O_R   0.069630 0.576830 0.391410 -0.559461
O8    O     O_R   0.930370 0.423170 0.608590 -0.534371
O9    O     O_2   0.549481 0.193994 0.236597 -0.257077
O10   O     O_2   0.500213 0.223245 0.430560 -0.355239
O11   O     O_3   0.552424 0.331449 0.304424 -0.420068
O12   O     O_R   0.581980 0.923180 0.577790 -0.612010
O13   O     O_2   0.483881 0.789669 0.700293 -0.264890
O14   O     O_2   0.374244 0.850652 0.792289 -0.299489
O15   O     O_3   0.386022 0.709897 0.820621 -0.401555
O16   O     O_2   0.302194 0.009209 0.689790 -0.323399
O17   O     O_2   0.334848 0.101545 0.827289 -0.274430
O18   O     O_3   0.196896 0.075548 0.810239 -0.436248
O19   O     O_2   0.663548 0.901380 0.174948 -0.262066
O20   O     O_2   0.700610 0.989433 0.314255 -0.334146
O21   O     O_3   0.802366 0.920680 0.189581 -0.400302
O22   O     O_2   0.049546 0.693969 0.236507 -0.257317
O23   O     O_R   0.581980 0.076820 0.577790 -0.651980
O24   O     O_2   0.000222 0.723227 0.430443 -0.354989
O25   O     O_3   0.052462 0.831428 0.304331 -0.420156
O26   O     O_2   0.983890 0.289659 0.700266 -0.264898
O27   O     O_2   0.874259 0.350638 0.792285 -0.299493
O28   O     O_3   0.886036 0.209881 0.820593 -0.401564
O29   O     O_2   0.802196 0.509213 0.689802 -0.323399
O30   O     O_2   0.834859 0.601553 0.827289 -0.274428
O31   O     O_3   0.696904 0.575557 0.810258 -0.436246
O32   O     O_2   0.163567 0.401399 0.174951 -0.262072
O33   O     O_2   0.200611 0.489446 0.314278 -0.334154
O34   O     O_R   0.418020 0.923180 0.422210 -0.655494
O35   O     O_3   0.302381 0.420709 0.189611 -0.400285
O36   O     O_2   0.812049 0.090926 0.728940 -0.238184
O37   O     O_2   0.850436 0.060590 0.532218 -0.274595
O38   O     O_3   0.945809 0.123075 0.645190 -0.386239
O39   O     O_2   0.187975 0.906298 0.275608 -0.206581
O40   O     O_2   0.296945 0.836214 0.203053 -0.331130
O41   O     O_3   0.172333 0.795094 0.141346 -0.421742
O42   O     O_2   0.376362 0.281362 0.192505 -0.209786
O43   O     O_2   0.302416 0.167528 0.212312 -0.295281
O44   O     O_3   0.251303 0.278975 0.110780 -0.366595
O45   O     O_R   0.918020 0.576820 0.422210 -0.611730
O46   O     O_2   0.738017 0.720467 0.876566 -0.160362
O47   O     O_2   0.690549 0.827976 0.785000 -0.284855
O48   O     O_3   0.609302 0.708677 0.806459 -0.453285
O49   O     O_2   0.312031 0.590941 0.728984 -0.238189
O50   O     O_2   0.350425 0.560585 0.532270 -0.274631
O51   O     O_3   0.445797 0.623076 0.645240 -0.386241
O52   O     O_2   0.687933 0.406328 0.275684 -0.206555
O53   O     O_2   0.796897 0.336253 0.203070 -0.331168
O54   O     O_3   0.672271 0.295140 0.141401 -0.421575
O55   O     O_2   0.876333 0.781328 0.192475 -0.209907
O56   O     O_R   0.081980 0.423180 0.577790 -0.612002
O57   O     O_2   0.802382 0.667499 0.212322 -0.295288
O58   O     O_3   0.751262 0.778941 0.110783 -0.366601
O59   O     O_2   0.238005 0.220458 0.876565 -0.160400
O60   O     O_2   0.190539 0.327969 0.785003 -0.284858
O61   O     O_3   0.109295 0.208667 0.806444 -0.453271
O62   O     O_R   0.081980 0.576820 0.577790 -0.651994
O63   O     O_R   0.918020 0.423180 0.422210 -0.655495
O64   O     O_R   0.430370 0.076830 0.608590 -0.568397
S1    S     S_3+6 0.559813 0.241007 0.337535 0.092130
S2    S     S_3+6 0.216705 0.829841 0.245413 0.088299
S3    S     S_3+6 0.299397 0.251240 0.214554 0.113277
S4    S     S_3+6 0.694774 0.744318 0.783602 0.116953
S5    S     S_3+6 0.356937 0.617213 0.623211 0.098899
S6    S     S_3+6 0.716662 0.329874 0.245457 0.088355
S7    S     S_3+6 0.799367 0.751212 0.214548 0.113272
S8    S     S_3+6 0.194766 0.244311 0.783599 0.116945
S9    S     S_3+6 0.402477 0.781835 0.731093 0.094364
S10   S     S_3+6 0.282450 0.083094 0.743419 0.085297
S11   S     S_3+6 0.717252 0.915559 0.258429 0.085055
S12   S     S_3+6 0.059846 0.740988 0.337455 0.092147
S13   S     S_3+6 0.902487 0.281825 0.731075 0.094357
S14   S     S_3+6 0.782456 0.583099 0.743428 0.085295
S15   S     S_3+6 0.217263 0.415577 0.258445 0.085042
S16   S     S_3+6 0.856949 0.117210 0.623169 0.098911
Zn1   Zn    Zn3+2 0.491750 1.000000 0.375560 1.063650
Zn2   Zn    Zn3+2 0.508250 0.000000 0.624440 1.075757
Zn3   Zn    Zn3+2 0.991750 0.500000 0.375560 1.063654
Zn4   Zn    Zn3+2 0.008250 0.500000 0.624440 1.075751

loop_
_geom_bond_atom_site_label_1
_geom_bond_atom_site_label_2
_ccdc_geom_bond_type
O10   S1    D    
O38   S16   S    
O18   S10   S    
C23   O3    A    
H20   O31   S    
C8    C13   A    
O40   S2    D    
C31   S16   S    
H25   O44   S    
C10   H10   S    
C32   C53   A    
C41   S12   S    
C44   H2    S    
H14   O11   S    
O11   S1    S    
C25   C43   A    
C53   C59   A    
C48   C57   A    
H16   O18   S    
O61   S8    S    
C7    C11   A    
O52   S6    D    
N2    Zn2   S    
O62   Zn4   S    
C33   C42   A    
C28   C37   A    
O4    Zn2   S    
C50   H5    S    
O30   S14   D    
C52   C61   A    
C37   S1    S    
O48   S4    S    
C45   O5    A    
C14   N2    A    
C22   C41   A    
O49   S5    D    
O44   S3    S    
C31   C40   A    
H28   O54   S    
C6    N1    A    
O1    Zn1   S    
C63   O8    A    
O16   S10   D    
O20   S11   D    
C46   H36   S    
C48   H3    S    
C5    N2    A    
C44   C53   A    
C16   N4    A    
C6    H1    S    
O46   S4    D    
C62   O7    A    
O13   S9    D    
H15   O15   S    
C29   C38   A    
O21   S11   S    
H24   O41   S    
O22   S12   D    
O24   S12   D    
C35   C43   A    
C17   H34   S    
H21   O35   S    
C3    C13   A    
O53   S6    D    
C22   C50   A    
O51   S5    S    
C63   O63   A    
C47   C55   A    
O63   Zn3   S    
C56   O6    A    
O55   S7    D    
O42   S3    D    
C35   S4    S    
C27   S5    S    
C9    H9    S    
C29   S7    S    
N1    Zn1   S    
O59   S8    D    
C18   C46   A    
H30   O61   S    
C30   S8    S    
C2    C64   A    
C13   H13   S    
O5    Zn4   S    
N4    Zn4   S    
O25   S12   S    
C29   C61   A    
O6    Zn3   S    
O64   Zn2   S    
C21   C38   A    
C35   C55   A    
C18   C23   S    
O34   Zn1   S    
N3    Zn3   S    
O43   S3    D    
O19   S11   D    
C15   H32   S    
C20   C39   A    
C57   C60   A    
O9    S1    D    
O58   S7    S    
C1    O64   A    
C19   C36   A    
O12   Zn2   S    
C12   C21   S    
C19   C34   S    
O47   S4    D    
C30   C60   A    
C4    C11   A    
C5    C9    A    
O28   S13   S    
C22   C62   S    
O23   Zn2   S    
C32   C41   A    
C14   C64   A    
C46   C54   A    
O36   S16   D    
C15   N1    A    
H18   O25   S    
C2    C15   A    
O39   S2    D    
C20   C48   A    
C26   C56   S    
C4    C17   A    
H26   O48   S    
C62   O62   A    
O45   Zn3   S    
C24   C63   S    
C49   H6    S    
C42   S15   S    
H27   O51   S    
C50   C59   A    
C3    C4    A    
C33   S3    S    
C25   C45   S    
C47   H4    S    
C39   S10   S    
O35   S15   S    
C19   C44   A    
H22   O38   S    
C14   H33   S    
C23   O23   A    
C40   S13   S    
C54   C58   A    
C24   C49   A    
C26   C42   A    
C32   S2    S    
O41   S2    S    
C1    C20   S    
C33   C57   A    
C38   S11   S    
O50   S5    D    
H17   O21   S    
C18   C37   A    
C10   C64   A    
C36   S9    S    
O2    Zn1   S    
O26   S13   D    
O54   S6    S    
O8    Zn4   S    
C16   H35   S    
O17   S10   D    
O33   S15   D    
C28   C58   A    
C27   C36   A    
C7    H31   S    
O3    Zn1   S    
C43   S14   S    
O7    Zn3   S    
C7    N4    A    
O37   S16   D    
C34   O4    A    
C8    H23   S    
C5    H12   S    
C17   N3    A    
C25   C52   A    
H19   O28   S    
C56   O56   A    
C52   H7    S    
C11   H11   S    
C26   C51   A    
C12   O2    A    
O27   S13   D    
C28   S6    S    
H29   O58   S    
O57   S7    D    
C55   C61   A    
O32   S15   D    
C24   C40   A    
C34   O34   A    
C30   C39   A    
O60   S8    D    
C45   O45   A    
C31   C54   A    
C8    N3    A    
C6    C10   A    
C49   C58   A    
O14   S9    D    
O29   S14   D    
C51   H8    S    
O56   Zn4   S    
C27   C59   A    
C51   C60   A    
O15   S9    S    
O31   S14   S    
C21   C47   A    
C2    C9    A    
C3    C16   A    
C1    O1    A    
C12   O12   A    
