data_mof_unit_7598.cif
_audit_creation_date              2012-12-10T19:14:04-0500
_audit_creation_method            fapswitch 2.2
_symmetry_space_group_name_H-M    P1
_symmetry_Int_Tables_number       1
_space_group_crystal_system       triclinic
_cell_length_a                    13.004773
_cell_length_b                    15.972125
_cell_length_c                    14.755045
_cell_angle_alpha                 89.848218
_cell_angle_beta                  96.695976
_cell_angle_gamma                 89.925622
_cell_volume                      3043.90701103

loop_
_atom_site_label
_atom_site_type_symbol
_atom_type_description
_atom_site_fract_x
_atom_site_fract_y
_atom_site_fract_z
_atom_type_partial_charge
C1    C     C_R   0.499849 0.340872 0.500084 0.817336
C2    C     C_R   0.500058 0.659003 0.499903 0.805864
C3    C     C_R   0.588383 0.956033 0.531617 0.323623
C4    C     C_R   0.402647 0.042574 0.472068 0.360297
C5    C     C_1   0.499182 0.822687 0.499220 0.102986
C6    C     C_1   0.496033 0.176781 0.500996 0.070363
C7    C     C_1   0.498107 0.251853 0.500319 -0.198957
C8    C     C_1   0.499800 0.747792 0.499540 -0.194510
C9    C     C_R   0.589489 0.511507 0.960500 -0.324103
C10   C     C_R   0.405373 0.494391 0.039054 -0.294765
C11   C     C_R   0.496436 0.503152 0.902387 -0.115580
C12   C     C_R   0.498745 0.502533 0.096990 -0.109476
C13   C     C_R   0.402693 0.496887 0.942847 0.479374
C14   C     C_R   0.591034 0.513372 0.056630 0.470648
C15   C     C_1   0.498710 0.501024 0.802533 0.164915
C16   C     C_1   0.499363 0.500971 0.197223 0.202753
C17   C     C_R   0.299809 0.500729 0.482548 0.830951
C18   C     C_R   0.700174 0.499914 0.517462 0.832797
C19   C     C_R   0.813228 0.499596 0.528893 -0.154668
C20   C     C_R   0.186731 0.502621 0.471230 -0.151664
C21   C     C_R   0.021271 0.526029 0.380898 -0.291863
C22   C     C_R   0.978854 0.478979 0.619983 -0.269949
C23   C     C_R   0.129035 0.518623 0.385544 0.454955
C24   C     C_R   0.871034 0.483839 0.614333 0.439575
C25   C     C_R   0.135983 0.489077 0.548639 -0.327854
C26   C     C_R   0.864098 0.514794 0.452034 -0.306229
C27   C     C_R   0.028944 0.493098 0.542622 0.104916
C28   C     C_R   0.971268 0.511722 0.458256 0.110788
C29   C     C_R   0.406100 0.954900 0.467931 0.329802
C30   C     C_R   0.587122 0.043779 0.532285 0.323912
C31   C     C_R   0.498018 0.912203 0.499270 -0.224891
C32   C     C_R   0.494531 0.087118 0.502351 -0.221154
Cu1   Cu    Cu3+1 0.500030 0.500000 0.589220 0.981523
Cu2   Cu    Cu3+1 0.499970 0.500000 0.410780 0.982945
H1    H     H_    0.820077 0.527949 0.386708 0.173852
H2    H     H_    0.179803 0.475465 0.614165 0.181040
H3    H     H_    0.976769 0.543353 0.316972 0.139061
H4    H     H_    0.022942 0.463555 0.684726 0.149584
H5    H     H_    0.661720 0.516881 0.931259 0.169881
H6    H     H_    0.333452 0.486997 0.068606 0.165700
N1    N     N_1   0.500030 0.499980 0.276710 -0.163007
N2    N     N_1   0.499970 0.500020 0.723290 -0.161906
O1    O     O_R   0.500050 0.380310 0.575330 -0.555682
O2    O     O_R   0.499950 0.619690 0.424670 -0.567065
O3    O     O_R   0.500000 0.380310 0.424640 -0.578325
O4    O     O_R   0.500000 0.619690 0.575360 -0.579124
O5    O     O_R   0.349020 0.499990 0.563110 -0.595886
O6    O     O_R   0.650980 0.500010 0.436890 -0.584894
O7    O     O_R   0.348970 0.499990 0.412410 -0.545191
O8    O     O_R   0.651030 0.500010 0.587590 -0.539401
O9    O     O_3   0.822309 0.466175 0.690670 -0.588994
C33   C     C_3   0.836934 0.532793 0.754115 0.060728
H7    H     H_    0.761123 0.564431 0.756561 0.165868
H8    H     H_    0.892733 0.581816 0.736790 0.119275
C34   C     C_3   0.873936 0.497164 0.848550 -0.326260
H9    H     H_    0.815173 0.452687 0.869119 0.232900
H10   H     H_    0.947500 0.462296 0.845900 0.216862
C35   C     C_3   0.891596 0.566393 0.919728 -0.936880
H11   H     H_    0.954661 0.608595 0.903441 0.259178
H12   H     H_    0.913882 0.538240 0.988074 0.263948
H13   H     H_    0.819922 0.603778 0.921630 0.248130
O10   O     O_3   0.178968 0.536741 0.309636 -0.595580
C36   C     C_3   0.152628 0.477783 0.239034 0.051796
H14   H     H_    0.166869 0.507872 0.173683 0.162048
H15   H     H_    0.069401 0.459783 0.230842 0.126623
C37   C     C_3   0.221019 0.399459 0.252982 -0.338571
H16   H     H_    0.303635 0.417686 0.255370 0.244051
H17   H     H_    0.209350 0.368792 0.318701 0.207553
C38   C     C_3   0.195600 0.336884 0.175701 -0.900433
H18   H     H_    0.113798 0.316152 0.172982 0.260064
H19   H     H_    0.246746 0.281252 0.187538 0.268680
H20   H     H_    0.208222 0.365607 0.109252 0.258771
O11   O     O_3   0.310294 0.081579 0.438184 -0.570340
C39   C     C_3   0.266904 0.132193 0.503407 0.087157
H21   H     H_    0.185149 0.144223 0.475495 0.164743
H22   H     H_    0.303322 0.194809 0.508633 0.142625
C40   C     C_3   0.266024 0.092563 0.598863 -0.423247
H23   H     H_    0.226820 0.031009 0.592936 0.207410
H24   H     H_    0.346345 0.083360 0.632166 0.218606
C41   C     C_3   0.209058 0.148607 0.660260 -0.869842
H25   H     H_    0.127102 0.157081 0.630888 0.250458
H26   H     H_    0.247176 0.210793 0.668241 0.261548
H27   H     H_    0.210464 0.119218 0.728679 0.261008
O12   O     O_3   0.675961 0.913318 0.569512 -0.540733
C42   C     C_3   0.734780 0.888235 0.499360 0.102479
H28   H     H_    0.772507 0.943591 0.471958 0.098826
H29   H     H_    0.686748 0.857073 0.441619 0.122915
C43   C     C_3   0.820416 0.827738 0.537952 -0.339682
H30   H     H_    0.873595 0.816673 0.485410 0.167676
H31   H     H_    0.866024 0.856364 0.598397 0.222774
C44   C     C_3   0.777085 0.743575 0.565003 -0.773200
H32   H     H_    0.724140 0.752275 0.618104 0.272672
H33   H     H_    0.841719 0.701957 0.592866 0.219133
H34   H     H_    0.734514 0.712705 0.504515 0.226568
O13   O     O_3   0.322235 0.911566 0.424243 -0.558092
C45   C     C_3   0.261425 0.877441 0.488798 0.076771
H35   H     H_    0.196798 0.921230 0.496768 0.154154
H36   H     H_    0.305598 0.866113 0.557334 0.117461
C46   C     C_3   0.215024 0.794343 0.452439 -0.305680
H37   H     H_    0.165490 0.805555 0.386896 0.229923
H38   H     H_    0.278197 0.750742 0.439258 0.225899
C47   C     C_3   0.150022 0.753371 0.520014 -0.938957
H39   H     H_    0.198923 0.739183 0.585082 0.258454
H40   H     H_    0.116745 0.693863 0.491060 0.270758
H41   H     H_    0.085552 0.795393 0.533817 0.251937
O14   O     O_3   0.675058 0.085962 0.569606 -0.559192
C48   C     C_3   0.728083 0.119603 0.499306 0.086268
H42   H     H_    0.697217 0.182900 0.480337 0.155142
H43   H     H_    0.720844 0.080060 0.436621 0.103264
C49   C     C_3   0.842831 0.128105 0.534732 -0.316790
H44   H     H_    0.851279 0.168245 0.596590 0.236176
H45   H     H_    0.875431 0.065299 0.553937 0.219338
C50   C     C_3   0.903934 0.166908 0.462997 -0.931382
H46   H     H_    0.898305 0.127003 0.401077 0.257937
H47   H     H_    0.986673 0.172265 0.490947 0.251423
H48   H     H_    0.873863 0.230492 0.444051 0.264932
O15   O     O_3   0.684262 0.521445 0.111207 -0.605214
C51   C     C_3   0.711236 0.607079 0.115674 0.050694
H49   H     H_    0.650877 0.644142 0.145708 0.138895
H50   H     H_    0.720414 0.632218 0.046607 0.137535
C52   C     C_3   0.813832 0.616867 0.176410 -0.318711
H51   H     H_    0.803895 0.595029 0.246221 0.213183
H52   H     H_    0.874110 0.577652 0.149611 0.217932
C53   C     C_3   0.849750 0.707791 0.181076 -0.920946
H53   H     H_    0.862221 0.730696 0.112051 0.260887
H54   H     H_    0.923919 0.712433 0.226424 0.260873
H55   H     H_    0.791277 0.747945 0.209110 0.253881
O16   O     O_3   0.307465 0.487407 0.890968 -0.612873
C54   C     C_3   0.282215 0.559198 0.836178 0.051926
H56   H     H_    0.296597 0.545106 0.765018 0.172355
H57   H     H_    0.327434 0.616195 0.859679 0.121220
C55   C     C_3   0.167377 0.579203 0.836421 -0.333546
H58   H     H_    0.120859 0.522149 0.818439 0.224429
H59   H     H_    0.153275 0.599127 0.906030 0.218317
C56   C     C_3   0.132654 0.648656 0.768287 -0.941645
H60   H     H_    0.179733 0.705942 0.783684 0.259824
H61   H     H_    0.050230 0.664276 0.772550 0.253227
H62   H     H_    0.140713 0.627841 0.697697 0.265403

loop_
_geom_bond_atom_site_label_1
_geom_bond_atom_site_label_2
_ccdc_geom_bond_type
C56   H62   S    
C37   H17   S    
C34   H9    S    
C36   H15   S    
C38   H20   S    
O11   C39   S    
C6    C32   S    
O13   C45   S    
O16   C54   S    
C56   H60   S    
C40   H23   S    
C2    O4    A    
C39   H22   S    
Cu1   N2    S    
C50   H46   S    
C42   C43   S    
C37   C38   S    
C20   C25   A    
C35   H12   S    
C22   H4    S    
C45   C46   S    
C9    H5    S    
C17   C20   S    
C47   H41   S    
C10   H6    S    
C18   C19   S    
C38   H19   S    
C19   C26   A    
C51   H49   S    
C52   C53   S    
C5    C31   S    
C49   H44   S    
C13   O16   S    
C11   C15   S    
C1    O1    A    
C23   O10   S    
C12   C16   S    
C2    O2    A    
C55   H58   S    
C39   C40   S    
C45   H36   S    
C48   H42   S    
C20   C23   A    
C4    C29   A    
C33   C34   S    
C50   H48   S    
C35   H13   S    
C42   H29   S    
C37   H16   S    
C36   C37   S    
C30   O14   S    
Cu1   O4    S    
C48   H43   S    
C38   H18   S    
Cu2   N1    S    
C41   H27   S    
C33   H8    S    
C51   H50   S    
C40   H24   S    
C39   H21   S    
O9    C33   S    
Cu1   O1    S    
Cu2   O2    S    
O12   C42   S    
C41   H26   S    
C17   O7    A    
C44   H32   S    
C29   O13   S    
C35   H11   S    
C42   H28   S    
C51   C52   S    
C3    C30   A    
C47   H40   S    
C9    C14   A    
O10   C36   S    
C44   H33   S    
C46   H37   S    
C43   C44   S    
C14   O15   S    
C45   H35   S    
Cu1   Cu2   S    
C4    O11   S    
Cu2   O3    S    
C3    C31   A    
C9    C11   A    
C49   C50   S    
C52   H51   S    
C4    C32   A    
C10   C12   A    
C53   H55   S    
C46   H38   S    
C21   C28   A    
C43   H31   S    
C22   C27   A    
C21   C23   A    
Cu1   O5    S    
C48   C49   S    
C22   C24   A    
Cu2   O6    S    
C3    O12   S    
C33   H7    S    
C18   O8    A    
C53   H54   S    
C54   H56   S    
C40   C41   S    
C56   H61   S    
Cu2   O7    S    
C1    C7    S    
C2    C8    S    
C17   O5    A    
C15   N2    T    
C12   C14   A    
C41   H25   S    
C10   C13   A    
C18   O6    A    
C5    C8    T    
C6    C7    T    
C25   C27   A    
C26   C28   A    
C54   C55   S    
C34   H10   S    
C19   C24   A    
Cu1   O8    S    
C29   C31   A    
O15   C51   S    
C44   H34   S    
C30   C32   A    
C11   C13   A    
C1    O3    A    
C24   O9    S    
C55   C56   S    
C47   H39   S    
C49   H45   S    
C52   H52   S    
C25   H2    S    
C36   H14   S    
C26   H1    S    
C46   C47   S    
C21   H3    S    
C43   H30   S    
C55   H59   S    
O14   C48   S    
C34   C35   S    
C27   C28   A    
C50   H47   S    
C16   N1    T    
C53   H53   S    
C54   H57   S    
