data_mof_unit_15497.cif
_audit_creation_date              2012-12-11T15:06:37-0500
_audit_creation_method            fapswitch 2.2
_symmetry_space_group_name_H-M    P1
_symmetry_Int_Tables_number       1
_space_group_crystal_system       triclinic
_cell_length_a                    7.361691
_cell_length_b                    15.486026
_cell_length_c                    21.924624
_cell_angle_alpha                 90.0
_cell_angle_beta                  89.999954
_cell_angle_gamma                 86.058032
_cell_volume                      2493.56703332

loop_
_atom_site_label
_atom_site_type_symbol
_atom_type_description
_atom_site_fract_x
_atom_site_fract_y
_atom_site_fract_z
_atom_type_partial_charge
O1    O     O_R   0.390810 0.844810 0.447340 -0.539536
O2    O     O_R   0.109190 0.155190 0.947340 -0.539536
O3    O     O_R   0.890810 0.655190 0.552660 -0.534667
O4    O     O_R   0.609190 0.344810 0.052660 -0.534667
O5    O     O_R   0.720550 0.655820 0.440420 -0.545773
O6    O     O_R   0.779450 0.344180 0.940420 -0.545773
O7    O     O_R   0.220550 0.844180 0.559580 -0.546108
O8    O     O_R   0.279450 0.155820 0.059580 -0.546108
C1    C     C_R   0.557139 0.627230 0.426696 0.663580
C2    C     C_R   0.942861 0.372770 0.926696 0.663580
C3    C     C_R   0.048376 0.875197 0.571046 0.665651
C4    C     C_R   0.451624 0.124803 0.071046 0.665651
O9    O     O_R   0.720530 0.844130 0.440420 -0.544981
O10   O     O_R   0.779470 0.155870 0.940420 -0.544981
O11   O     O_R   0.220530 0.655870 0.559580 -0.542543
O12   O     O_R   0.279470 0.344130 0.059580 -0.542542
O13   O     O_R   0.890830 0.844810 0.552660 -0.540914
O14   O     O_R   0.609170 0.155190 0.052660 -0.540914
O15   O     O_R   0.390830 0.655190 0.447340 -0.532274
O16   O     O_R   0.109170 0.344810 0.947340 -0.532274
C5    C     C_R   0.548389 0.875523 0.429114 0.661196
C6    C     C_R   0.951611 0.124478 0.929114 0.661195
C7    C     C_R   0.057102 0.627189 0.573325 0.657966
C8    C     C_R   0.442898 0.372811 0.073326 0.657966
O17   O     O_3   0.557310 0.749980 0.536820 -0.378505
O18   O     O_3   0.942690 0.250020 0.036820 -0.378505
O19   O     O_3   0.057310 0.750020 0.463180 -0.377889
O20   O     O_3   0.442690 0.249980 0.963180 -0.377889
V1    V     V_3+5 0.832160 0.749980 0.493170 1.387312
V2    V     V_3+5 0.667840 0.250020 0.993170 1.387312
V3    V     V_3+5 0.332160 0.750020 0.506830 1.391582
V4    V     V_3+5 0.167840 0.249980 0.006830 1.391582
C9    C     C_R   0.854462 0.598901 0.861517 -0.206697
C10   C     C_R   0.645538 0.401099 0.361516 -0.206696
C11   C     C_R   0.513635 0.894809 0.132660 -0.185619
C12   C     C_R   0.986361 0.105191 0.632660 -0.185618
H1    H     H_    0.837663 0.717537 0.774437 0.122678
H2    H     H_    0.662335 0.282464 0.274437 0.122678
H3    H     H_    0.557777 0.775691 0.218907 0.117010
H4    H     H_    0.942217 0.224309 0.718907 0.117010
H5    H     H_    0.812369 0.664589 0.874424 0.102343
H6    H     H_    0.687630 0.335411 0.374424 0.102343
H7    H     H_    0.531475 0.828434 0.117468 0.096548
H8    H     H_    0.968518 0.171566 0.617468 0.096547
C13   C     C_R   0.936206 0.448755 0.886116 -0.062735
C14   C     C_R   0.563794 0.551245 0.386116 -0.062735
C15   C     C_R   0.473118 0.048608 0.111595 -0.084393
C16   C     C_R   0.026882 0.951392 0.611595 -0.084393
C17   C     C_R   0.130430 0.468020 0.592379 0.029841
C18   C     C_R   0.369569 0.531980 0.092379 0.029841
C19   C     C_R   0.507394 0.038033 0.412253 0.023480
C20   C     C_R   0.992606 0.961967 0.912254 0.023480
C21   C     C_R   0.150404 0.399916 0.635037 -0.162739
C22   C     C_R   0.349593 0.600084 0.135037 -0.162740
C23   C     C_R   0.483816 0.106960 0.370893 -0.141876
C24   C     C_R   0.016188 0.893041 0.870894 -0.141876
C25   C     C_R   0.104909 0.410976 0.696038 -0.211234
C26   C     C_R   0.395089 0.589023 0.196038 -0.211235
C27   C     C_R   0.479226 0.094280 0.308351 -0.207041
C28   C     C_R   0.020780 0.905720 0.808351 -0.207041
C29   C     C_R   0.031099 0.490757 0.718499 0.081619
C30   C     C_R   0.468900 0.509243 0.218499 0.081620
C31   C     C_R   0.500072 0.010915 0.282779 0.080865
C32   C     C_R   0.999931 0.989085 0.782779 0.080865
C33   C     C_R   0.011803 0.561875 0.676935 0.058203
C34   C     C_R   0.488196 0.438125 0.176935 0.058202
C35   C     C_R   0.523814 0.938905 0.323439 0.058463
C36   C     C_R   0.976187 0.061095 0.823438 0.058463
C37   C     C_R   0.976758 0.502214 0.781084 0.072193
C38   C     C_R   0.523242 0.497786 0.281083 0.072193
C39   C     C_R   0.497115 0.996813 0.218033 0.072813
C40   C     C_R   0.002887 0.003187 0.718033 0.072814
C41   C     C_R   0.906088 0.584697 0.800609 0.115613
C42   C     C_R   0.593912 0.415304 0.300609 0.115613
C43   C     C_R   0.517064 0.911127 0.195551 0.117297
C44   C     C_R   0.982935 0.088873 0.695550 0.117297
C45   C     C_R   0.890709 0.653945 0.759580 -0.219516
C46   C     C_R   0.609290 0.346055 0.259580 -0.219516
C47   C     C_R   0.540952 0.841462 0.235937 -0.219103
C48   C     C_R   0.959045 0.158537 0.735937 -0.219103
C49   C     C_R   0.942496 0.642976 0.699026 -0.195104
C50   C     C_R   0.557503 0.357024 0.199026 -0.195104
C51   C     C_R   0.544044 0.854848 0.298569 -0.183854
C52   C     C_R   0.955955 0.145152 0.798569 -0.183855
C53   C     C_R   0.989314 0.434829 0.825028 -0.240389
C54   C     C_R   0.510687 0.565171 0.325028 -0.240388
C55   C     C_R   0.476022 0.064697 0.174699 -0.239678
C56   C     C_R   0.023981 0.935303 0.674699 -0.239678
C57   C     C_R   0.869302 0.532534 0.905889 0.023040
C58   C     C_R   0.630698 0.467467 0.405889 0.023039
C59   C     C_R   0.491858 0.961905 0.089417 0.019176
C60   C     C_R   0.008139 0.038095 0.589417 0.019176
C61   C     C_R   0.063513 0.551074 0.614316 -0.112897
C62   C     C_R   0.436486 0.448926 0.114316 -0.112896
C63   C     C_R   0.526872 0.951914 0.388070 -0.133941
C64   C     C_R   0.973129 0.048086 0.888070 -0.133940
H9    H     H_    0.037311 0.369702 0.813184 0.101719
H10   H     H_    0.462692 0.630299 0.313184 0.101719
H11   H     H_    0.462057 0.131655 0.188324 0.101774
H12   H     H_    0.037949 0.868344 0.688324 0.101774
H13   H     H_    0.126357 0.354336 0.724232 0.117402
H14   H     H_    0.373640 0.645664 0.224232 0.117403
H15   H     H_    0.457897 0.152063 0.281311 0.114748
H16   H     H_    0.042113 0.847937 0.781311 0.114748
H17   H     H_    0.192940 0.334623 0.621439 0.109481
H18   H     H_    0.307056 0.665376 0.121439 0.109481
H19   H     H_    0.464769 0.172778 0.386803 0.102631
H20   H     H_    0.035237 0.827222 0.886803 0.102632
H21   H     H_    0.926948 0.699209 0.669715 0.120378
H22   H     H_    0.573050 0.300791 0.169715 0.120378
H23   H     H_    0.562702 0.798084 0.327277 0.112238
H24   H     H_    0.937296 0.201915 0.827277 0.112238
C65   C     C_R   0.825130 0.555410 0.971874 0.066409
C66   C     C_R   0.906631 0.509374 0.021905 -0.100215
C67   C     C_R   0.874755 0.536005 0.082019 -0.114280
C68   C     C_R   0.762962 0.609833 0.094002 -0.112827
C69   C     C_R   0.677221 0.655057 0.045995 -0.130571
C70   C     C_R   0.708926 0.629274 0.985859 -0.125250
H25   H     H_    0.009002 0.457666 0.016261 0.134991
H26   H     H_    0.942485 0.500919 0.119233 0.124856
H27   H     H_    0.740805 0.631452 0.140506 0.118373
H28   H     H_    0.583918 0.710098 0.055341 0.104191
H29   H     H_    0.634588 0.665949 0.950960 0.117813
C71   C     C_R   0.674869 0.444590 0.471874 0.066410
C72   C     C_R   0.593368 0.490625 0.521904 -0.100215
C73   C     C_R   0.625243 0.463995 0.582018 -0.114280
C74   C     C_R   0.737035 0.390167 0.594001 -0.112827
C75   C     C_R   0.822778 0.344943 0.545994 -0.130571
C76   C     C_R   0.791073 0.370726 0.485858 -0.125250
H30   H     H_    0.490997 0.542334 0.516261 0.134991
H31   H     H_    0.557512 0.499080 0.619233 0.124856
H32   H     H_    0.759193 0.368548 0.640505 0.118373
H33   H     H_    0.916081 0.289903 0.555340 0.104190
H34   H     H_    0.865412 0.334051 0.450960 0.117813
C77   C     C_R   0.484373 0.938081 0.022683 0.065446
C78   C     C_R   0.559861 0.988645 0.977198 -0.132965
C79   C     C_R   0.547614 0.968278 0.915386 -0.103625
C80   C     C_R   0.472386 0.892565 0.897742 -0.098028
C81   C     C_R   0.405508 0.838747 0.941885 -0.139548
C82   C     C_R   0.406440 0.861773 0.003622 -0.113642
H35   H     H_    0.641368 0.039876 0.989090 0.155659
H36   H     H_    0.603771 0.009324 0.881300 0.127616
H37   H     H_    0.467723 0.875027 0.850003 0.113874
H38   H     H_    0.350742 0.779933 0.927465 0.119548
H39   H     H_    0.343279 0.820462 0.035990 0.111193
C83   C     C_R   0.015625 0.061919 0.522683 0.065445
C84   C     C_R   0.940138 0.011355 0.477197 -0.132965
C85   C     C_R   0.952387 0.031721 0.415386 -0.103626
C86   C     C_R   0.027615 0.107434 0.397742 -0.098027
C87   C     C_R   0.094491 0.161252 0.441885 -0.139548
C88   C     C_R   0.093557 0.138227 0.503622 -0.113643
H40   H     H_    0.858630 0.960124 0.489090 0.155660
H41   H     H_    0.896232 0.990675 0.381300 0.127616
H42   H     H_    0.032280 0.124972 0.350002 0.113874
H43   H     H_    0.149254 0.220067 0.427465 0.119548
H44   H     H_    0.156716 0.179538 0.535989 0.111193
C89   C     C_R   0.171840 0.447368 0.525809 0.066575
C90   C     C_R   0.289637 0.374703 0.510292 -0.128748
C91   C     C_R   0.319229 0.350650 0.449747 -0.130183
C92   C     C_R   0.229462 0.396284 0.402718 -0.110565
C93   C     C_R   0.115549 0.468850 0.416168 -0.113052
C94   C     C_R   0.085693 0.493678 0.476763 -0.095070
H45   H     H_    0.367131 0.337636 0.544280 0.118620
H46   H     H_    0.414444 0.296659 0.439446 0.102373
H47   H     H_    0.249935 0.375965 0.355865 0.121090
H48   H     H_    0.044369 0.504187 0.379747 0.122487
H49   H     H_    0.981222 0.543991 0.483568 0.137682
C95   C     C_R   0.328159 0.552632 0.025809 0.066575
C96   C     C_R   0.210361 0.625296 0.010292 -0.128749
C97   C     C_R   0.180769 0.649349 0.949747 -0.130183
C98   C     C_R   0.270537 0.603715 0.902718 -0.110564
C99   C     C_R   0.384452 0.531149 0.916168 -0.113052
C100  C     C_R   0.414308 0.506322 0.976763 -0.095069
H50   H     H_    0.132867 0.662363 0.044279 0.118620
H51   H     H_    0.085552 0.703339 0.939446 0.102372
H52   H     H_    0.250065 0.624034 0.855865 0.121090
H53   H     H_    0.455633 0.495813 0.879747 0.122487
H54   H     H_    0.518779 0.456009 0.983568 0.137682
C101  C     C_R   0.515679 0.060319 0.479364 0.061614
C102  C     C_R   0.592335 0.136708 0.499290 -0.111973
C103  C     C_R   0.594328 0.158220 0.561321 -0.137184
C104  C     C_R   0.528888 0.103052 0.604862 -0.100542
C105  C     C_R   0.453295 0.027822 0.586337 -0.105180
C106  C     C_R   0.440087 0.009037 0.524283 -0.129950
H55   H     H_    0.653859 0.179274 0.467388 0.111833
H56   H     H_    0.648838 0.216881 0.576438 0.118805
H57   H     H_    0.534384 0.119306 0.652817 0.117564
H58   H     H_    0.397401 0.985994 0.619971 0.129151
H59   H     H_    0.357379 0.958725 0.511674 0.156805
C107  C     C_R   0.984320 0.939681 0.979364 0.061614
C108  C     C_R   0.907665 0.863291 0.999290 -0.111972
C109  C     C_R   0.905671 0.841779 0.061321 -0.137186
C110  C     C_R   0.971110 0.896947 0.104862 -0.100542
C111  C     C_R   0.046701 0.972178 0.086338 -0.105179
C112  C     C_R   0.059909 0.990963 0.024284 -0.129953
H60   H     H_    0.846142 0.820726 0.967387 0.111832
H61   H     H_    0.851163 0.783117 0.076438 0.118806
H62   H     H_    0.965614 0.880692 0.152817 0.117564
H63   H     H_    0.102594 0.014005 0.119972 0.129150
H64   H     H_    0.142616 0.041276 0.011675 0.156805

loop_
_geom_bond_atom_site_label_1
_geom_bond_atom_site_label_2
_ccdc_geom_bond_type
C99   H53   S    
O17   V3    S    
C39   C43   A    
C79   H36   S    
C52   H24   S    
O1    C5    A    
C73   C74   A    
C23   C27   A    
O19   V1    S    
O13   V1    S    
C96   C97   A    
O3    C7    A    
C84   C85   A    
C10   H6    S    
C21   H17   S    
C40   C44   A    
O15   V3    S    
C75   C76   A    
C104  C105  A    
C66   C67   A    
C36   C52   A    
C77   C78   A    
C103  C104  A    
C99   C100  A    
O7    C3    A    
C11   C43   A    
C36   C64   A    
C32   C36   A    
O9    V1    S    
C112  H64   S    
C8    C62   S    
C80   H37   S    
C22   C26   A    
O4    C8    A    
C97   C98   A    
C25   H13   S    
C110  H62   S    
O1    V3    S    
C68   C69   A    
C30   C38   A    
O2    V4    S    
O3    V1    S    
C74   H32   S    
C24   H20   S    
C12   C44   A    
C108  H60   S    
C100  H54   S    
C72   H30   S    
C1    O15   A    
C89   C90   A    
C111  H63   S    
C2    O16   A    
C19   C63   A    
C38   C42   A    
C105  H58   S    
C96   H50   S    
C16   C56   A    
C37   C41   A    
O14   V2    S    
C11   H7    S    
C55   H11   S    
C66   H25   S    
C48   C52   A    
C34   C62   A    
C65   C70   A    
C12   C60   A    
O11   C7    A    
C111  C112  A    
C1    C14   S    
O12   C8    A    
C86   H42   S    
C35   C63   A    
C17   C89   S    
C3    C16   S    
C77   C82   A    
C6    C64   S    
O10   V2    S    
C4    C15   S    
C19   C101  S    
C40   C56   A    
C93   C94   A    
O5    V1    S    
C97   H51   S    
C95   C100  A    
C31   C35   A    
O7    V3    S    
C68   H27   S    
C30   C34   A    
C60   C83   S    
C108  C109  A    
O8    V4    S    
C103  H56   S    
C16   C60   A    
C85   C86   A    
C102  H55   S    
C21   C25   A    
O18   V4    S    
C18   C62   A    
C5    C63   S    
C88   H44   S    
H1    C45   S    
C24   C28   A    
C23   H19   S    
C83   C88   A    
H3    C47   S    
C98   H52   S    
C13   C53   A    
C69   H28   S    
C10   C58   A    
C107  C108  A    
O5    C1    A    
C78   H35   S    
C9    C57   A    
C34   C50   A    
C81   H38   S    
C46   C50   A    
C33   C49   A    
C91   C92   A    
C91   H46   S    
C57   C65   S    
C45   C49   A    
O8    C4    A    
C2    C13   S    
H4    C48   S    
O9    C5    A    
C20   C107  S    
C35   C51   A    
C22   H18   S    
C25   C29   A    
C70   H29   S    
C98   C99   A    
C56   H12   S    
C83   C84   A    
C26   C30   A    
C10   C42   A    
C39   C55   A    
C107  C112  A    
C9    C41   A    
C95   C96   A    
O6    V2    S    
C31   C39   A    
C67   H26   S    
C87   H43   S    
C18   C95   S    
C72   C73   A    
C51   H23   S    
C27   C31   A    
C12   H8    S    
C85   H41   S    
C74   C75   A    
C38   C54   A    
C50   H22   S    
C37   C53   A    
C102  C103  A    
C65   C66   A    
O16   V4    S    
C29   C37   A    
C3    O13   A    
C58   C71   S    
C13   C57   A    
C87   C88   A    
C15   C59   A    
C90   H45   S    
C44   C48   A    
C49   H21   S    
C78   C79   A    
C82   H39   S    
O6    C2    A    
C81   C82   A    
O11   V3    S    
C14   C58   A    
C101  C102  A    
O12   V4    S    
H2    C46   S    
C79   C80   A    
C69   C70   A    
C28   C32   A    
C9    H5    S    
C109  C110  A    
O2    C6    A    
C92   H47   S    
C84   H40   S    
C27   H15   S    
C18   C22   A    
C28   H16   S    
C86   C87   A    
C109  H61   S    
C47   C51   A    
O10   C6    A    
C105  C106  A    
C90   C91   A    
C20   C24   A    
C73   H31   S    
C17   C21   A    
C26   H14   S    
O20   V2    S    
C33   C61   A    
C71   C76   A    
C20   C64   A    
C19   C23   A    
C104  H57   S    
C32   C40   A    
C29   C33   A    
C54   H10   S    
C92   C93   A    
C76   H34   S    
C53   H9    S    
C80   C81   A    
C93   H48   S    
C94   H49   S    
C101  C106  A    
C7    C61   S    
C59   C77   S    
C110  C111  A    
C42   C46   A    
C4    O14   A    
C41   C45   A    
C106  H59   S    
C17   C61   A    
C75   H33   S    
C43   C47   A    
C89   C94   A    
O4    V2    S    
C67   C68   A    
C15   C55   A    
C71   C72   A    
C14   C54   A    
C11   C59   A    
