data_mof_unit_65878.cif
_audit_creation_date              2012-12-11T16:01:47-0500
_audit_creation_method            fapswitch 2.2
_symmetry_space_group_name_H-M    P1
_symmetry_Int_Tables_number       1
_space_group_crystal_system       triclinic
_cell_length_a                    6.960641
_cell_length_b                    20.140753
_cell_length_c                    21.716451
_cell_angle_alpha                 92.821201
_cell_angle_beta                  89.124849
_cell_angle_gamma                 90.569517
_cell_volume                      3040.31134281

loop_
_atom_site_label
_atom_site_type_symbol
_atom_type_description
_atom_site_fract_x
_atom_site_fract_y
_atom_site_fract_z
_atom_type_partial_charge
O1    O     O_R   0.616490 0.310280 0.688420 -0.521892
O2    O     O_R   0.383510 0.689720 0.311580 -0.521892
O3    O     O_R   0.286290 0.319340 0.804930 -0.522975
O4    O     O_R   0.713710 0.680660 0.195070 -0.522975
O5    O     O_R   0.115970 0.195830 0.805340 -0.528779
O6    O     O_R   0.884030 0.804170 0.194660 -0.528779
C1    C     C_R   0.454871 0.337132 0.827608 0.723257
C2    C     C_R   0.545129 0.662868 0.172392 0.723257
O7    O     O_R   0.286780 0.317900 0.688830 -0.522562
O8    O     O_R   0.713220 0.682100 0.311170 -0.522562
O9    O     O_R   0.116460 0.194390 0.688410 -0.521105
O10   O     O_R   0.883540 0.805610 0.311590 -0.521105
C3    C     C_R   0.457481 0.335690 0.666338 0.694762
C4    C     C_R   0.542519 0.664310 0.333662 0.694761
O11   O     O_R   0.616000 0.311730 0.805350 -0.519602
O12   O     O_R   0.384000 0.688270 0.194650 -0.519602
O13   O     O_3   0.449750 0.212530 0.746880 -0.350535
O14   O     O_3   0.550250 0.787470 0.253120 -0.350534
V1    V     V_3+5 0.174900 0.260570 0.746880 1.441816
V2    V     V_3+5 0.825100 0.739430 0.253120 1.441816
O15   O     O_R   0.786740 0.186770 0.688820 -0.522713
O16   O     O_R   0.213260 0.813230 0.311180 -0.522713
C5    C     C_R   0.956103 0.168642 0.666616 0.717894
C6    C     C_R   0.043897 0.831358 0.333384 0.717893
O17   O     O_R   0.786260 0.188210 0.804930 -0.527840
O18   O     O_R   0.213740 0.811790 0.195070 -0.527840
C7    C     C_R   0.953447 0.173403 0.824475 0.738565
C8    C     C_R   0.046553 0.826597 0.175525 0.738565
V3    V     V_3+5 0.674900 0.245540 0.746880 1.454835
V4    V     V_3+5 0.325100 0.754460 0.253120 1.454835
O19   O     O_3   0.949920 0.293580 0.746880 -0.360476
O20   O     O_3   0.050080 0.706420 0.253120 -0.360476
C9    C     C_3   0.039280 0.033088 0.052913 0.627714
C10   C     C_3   0.960720 0.966912 0.947086 0.627714
C11   C     C_3   0.859065 0.042319 0.014571 0.598237
C12   C     C_3   0.140935 0.957681 0.985429 0.598237
H1    H     H_    0.693934 0.938287 0.010656 0.237619
H2    H     H_    0.306066 0.061713 0.989344 0.237619
C13   C     C_1   0.959979 0.126988 0.870021 -0.151903
C14   C     C_1   0.040021 0.873012 0.129979 -0.151903
C15   C     C_3   0.168919 0.033771 0.994475 -0.405188
C16   C     C_3   0.831081 0.966229 0.005524 -0.405188
C17   C     C_3   0.986055 0.042258 0.956427 -0.254877
C18   C     C_3   0.013945 0.957742 0.043573 -0.254877
C19   C     C_1   0.969752 0.088259 0.909008 0.173289
C20   C     C_1   0.030248 0.911741 0.090992 0.173289
C21   C     C_1   0.032373 0.884050 0.384712 -0.194598
C22   C     C_1   0.967627 0.115949 0.615288 -0.194598
C23   C     C_1   0.020902 0.927348 0.427554 0.018966
C24   C     C_1   0.979098 0.072652 0.572446 0.018966
C25   C     C_1   0.006277 0.978463 0.478497 0.018267
C26   C     C_1   0.993723 0.021537 0.521503 0.018268
C27   C     C_1   0.465309 0.388488 0.880485 -0.199101
C28   C     C_1   0.534691 0.611512 0.119515 -0.199101
C29   C     C_1   0.477242 0.430228 0.924811 0.023223
C30   C     C_1   0.522758 0.569772 0.075189 0.023223
C31   C     C_1   0.493128 0.479349 0.977693 0.021225
C32   C     C_1   0.506872 0.520651 0.022307 0.021225
C33   C     C_1   0.471043 0.387147 0.614796 -0.199016
C34   C     C_1   0.528957 0.612853 0.385204 -0.199016
C35   C     C_1   0.481855 0.429052 0.572299 0.022084
C36   C     C_1   0.518145 0.570948 0.427701 0.022084
C37   C     C_1   0.494664 0.479109 0.521304 0.008722
C38   C     C_1   0.505336 0.520891 0.478696 0.008722
F1    F     F_    0.715068 0.087524 0.028946 -0.618123
F2    F     F_    0.284932 0.912475 0.971054 -0.618123
F3    F     F_    0.077414 0.066261 0.108703 -0.599189
F4    F     F_    0.922586 0.933739 0.891297 -0.599190

loop_
_geom_bond_atom_site_label_1
_geom_bond_atom_site_label_2
_ccdc_geom_bond_type
V4    O20   S    
C8    C14   S    
O3    V1    S    
O5    V1    S    
C30   C32   S    
O17   C7    A    
C4    C34   S    
O10   C6    A    
C27   C29   T    
O3    C1    A    
C24   C26   S    
C10   C16   S    
O4    C2    A    
C13   C19   T    
V1    O19   S    
O10   V2    S    
C1    O11   A    
C12   C15   S    
C9    C15   S    
C2    O12   A    
O16   V4    S    
O13   V3    S    
O17   V3    S    
C14   C20   T    
C22   C24   T    
C15   C17   S    
O5    C7    A    
O9    V1    S    
C31   C32   T    
C16   C18   S    
O6    V2    S    
H2    C15   S    
C3    C33   S    
O16   C6    A    
C34   C36   T    
O18   C8    A    
C9    C11   S    
C18   C20   S    
O11   V3    S    
C10   C12   S    
C29   C31   S    
O15   C5    A    
V2    O20   S    
O14   V4    S    
O2    C4    A    
C28   C30   T    
C12   C18   S    
C1    C27   S    
O1    C3    A    
O2    V4    S    
O1    V3    S    
O12   V4    S    
C37   C38   T    
O4    V2    S    
C6    C21   S    
C11   C17   S    
C7    C13   S    
C9    F3    S    
O14   V2    S    
C21   C23   T    
C11   C16   S    
O8    C4    A    
C33   C35   T    
C10   F4    S    
H1    C16   S    
C35   C37   S    
C11   F1    S    
O7    C3    A    
C2    C28   S    
C36   C38   S    
C5    C22   S    
C12   F2    S    
O13   V1    S    
V3    O19   S    
C9    C18   S    
O15   V3    S    
C17   C19   S    
O7    V1    S    
O6    C8    A    
C10   C17   S    
C25   C26   T    
O9    C5    A    
O8    V2    S    
C23   C25   S    
O18   V4    S    
