data_mof_unit_48067.cif
_audit_creation_date              2012-12-11T14:07:45-0500
_audit_creation_method            fapswitch 2.2
_symmetry_space_group_name_H-M    P1
_symmetry_Int_Tables_number       1
_space_group_crystal_system       triclinic
_cell_length_a                    19.935192
_cell_length_b                    16.918933
_cell_length_c                    15.671412
_cell_angle_alpha                 90.191647
_cell_angle_beta                  52.61565
_cell_angle_gamma                 89.486095
_cell_volume                      4199.478568

loop_
_atom_site_label
_atom_site_type_symbol
_atom_type_description
_atom_site_fract_x
_atom_site_fract_y
_atom_site_fract_z
_atom_type_partial_charge
C1    C     C_R   0.331127 0.165102 0.060417 0.349623
C2    C     C_R   0.654402 0.817126 0.066769 0.050179
C3    C     C_3   0.145473 0.819213 0.815252 -0.334641
C4    C     C_R   0.195811 0.657861 0.008557 0.079022
C5    C     C_R   0.153813 0.316706 0.067332 0.057240
C6    C     C_R   0.689993 0.856147 0.675133 -0.137468
C7    C     C_R   0.643501 0.171699 0.681225 -0.108668
C8    C     C_R   0.190551 0.357214 0.675522 -0.129568
C9    C     C_R   0.118313 0.681116 0.692913 -0.086530
C10   C     C_3   0.264042 0.214958 0.447196 -0.510023
C11   C     C_3   0.175015 0.859372 0.508140 -0.504015
C12   C     C_3   0.765514 0.719090 0.440760 -0.507903
C13   C     C_R   0.386112 0.799857 0.983036 0.559555
C14   C     C_3   0.688162 0.358543 0.516874 -0.462274
C15   C     C_3   0.204374 0.262602 0.549565 -0.419215
C16   C     C_3   0.119261 0.808086 0.609140 -0.376089
C17   C     C_3   0.705835 0.760311 0.548768 -0.413609
C18   C     C_3   0.643401 0.305559 0.616880 -0.421625
C19   C     C_3   0.380652 0.222167 0.467493 -0.400880
C20   C     C_3   0.304788 0.794725 0.466502 -0.392707
C21   C     C_3   0.877466 0.718147 0.469698 -0.384515
C22   C     C_3   0.823812 0.286460 0.443049 -0.415974
C23   C     C_3   0.870831 0.829846 0.368508 0.590268
C24   C     C_R   0.831053 0.664870 0.060537 0.353150
C25   C     C_3   0.724333 0.237530 0.400634 0.564398
C26   C     C_3   0.365865 0.329321 0.368301 0.580459
C27   C     C_3   0.226564 0.732872 0.398089 0.572262
C28   C     C_3   0.357122 0.238693 0.390991 0.232059
C29   C     C_3   0.256038 0.812298 0.419995 0.214444
C30   C     C_3   0.858666 0.739079 0.389398 0.222917
C31   C     C_3   0.762767 0.312145 0.417154 0.207710
C32   C     C_3   0.754878 0.815686 0.571151 0.379801
C33   C     C_3   0.686090 0.222383 0.585860 0.380382
C34   C     C_3   0.254484 0.316250 0.571860 0.378791
C35   C     C_R   0.881892 0.301033 0.986910 0.566390
C36   C     C_3   0.164831 0.728156 0.593984 0.374036
C37   C     C_3   0.820982 0.767858 0.573005 -0.381634
C38   C     C_3   0.780045 0.230699 0.537745 -0.400954
C39   C     C_3   0.318972 0.266276 0.574761 -0.376864
C40   C     C_3   0.254831 0.739506 0.560943 -0.431251
C41   C     C_R   0.344144 0.837141 0.221199 0.700891
C42   C     C_R   0.415398 0.202837 0.200255 0.675778
C43   C     C_R   0.842694 0.339778 0.221742 0.697557
C44   C     C_R   0.916856 0.703043 0.198569 0.656915
C45   C     C_3   0.805976 0.874828 0.476344 -0.563241
C46   C     C_R   0.637067 0.896003 0.099274 -0.138277
C47   C     C_3   0.679960 0.185509 0.499780 -0.584978
C48   C     C_3   0.306829 0.374962 0.476923 -0.572055
C49   C     C_3   0.175181 0.683052 0.499843 -0.600666
C50   C     C_2   0.262484 0.700186 0.996631 -0.134235
C51   C     C_2   0.199837 0.261580 0.084325 -0.141922
C52   C     C_2   0.737460 0.217834 0.032018 -0.133030
C53   C     C_2   0.700930 0.762167 0.083049 -0.135855
C54   C     C_2   0.785223 0.263394 0.945373 -0.196398
C55   C     C_2   0.712408 0.686220 0.050367 -0.140482
C56   C     C_2   0.306949 0.752409 0.917473 -0.180824
C57   C     C_R   0.646695 0.098339 0.087089 -0.120754
C58   C     C_2   0.212161 0.185882 0.050497 -0.142353
C59   C     C_R   0.368063 0.887312 0.895487 -0.242991
C60   C     C_R   0.332526 0.087406 0.946240 -0.220126
C61   C     C_R   0.862766 0.389853 0.901609 -0.239641
C62   C     C_R   0.832558 0.587573 0.946143 -0.215823
C63   C     C_R   0.414136 0.108506 0.298183 -0.248373
C64   C     C_R   0.360854 0.920612 0.315807 -0.215691
C65   C     C_R   0.916102 0.609252 0.296637 -0.247624
C66   C     C_R   0.860027 0.423255 0.315151 -0.214433
C67   C     C_R   0.286268 0.144013 0.024102 0.108509
C68   C     C_R   0.136240 0.395466 0.100201 -0.143188
C69   C     C_R   0.355213 0.809659 0.926428 -0.009546
C70   C     C_R   0.786163 0.643919 0.024312 0.105142
C71   C     C_R   0.846123 0.313413 0.936765 -0.002341
C72   C     C_R   0.309810 0.862033 0.324121 -0.180016
C73   C     C_R   0.407328 0.188405 0.292913 -0.047591
C74   C     C_R   0.808533 0.365343 0.324380 -0.178016
C75   C     C_R   0.910091 0.689296 0.290631 -0.046669
C76   C     C_R   0.631559 0.196639 0.001945 0.005281
C77   C     C_R   0.623412 0.799742 0.011440 -0.014846
C78   C     C_R   0.149663 0.686798 0.976318 -0.064761
C79   C     C_R   0.160288 0.589069 0.066521 -0.114211
C80   C     C_R   0.123535 0.299673 0.011117 -0.026531
C81   C     C_R   0.647578 0.824111 0.777825 0.608195
C82   C     C_R   0.628744 0.188622 0.778624 0.559290
C83   C     C_R   0.147996 0.324711 0.777988 0.603287
C84   C     C_R   0.105726 0.698872 0.789068 0.566092
C85   C     C_R   0.606107 0.100966 0.690761 -0.239704
C86   C     C_R   0.639496 0.917905 0.684187 -0.235014
C87   C     C_R   0.095817 0.604224 0.696178 -0.245324
C88   C     C_R   0.140176 0.419125 0.684595 -0.237247
C89   C     C_3   0.978798 0.920504 0.266962 -0.222685
C90   C     C_R   0.671769 0.173460 0.044446 0.067193
C91   C     C_3   0.849296 0.157143 0.281023 -0.109412
C92   C     C_3   0.467084 0.424389 0.261317 -0.188025
C93   C     C_3   0.358435 0.660826 0.295432 -0.126390
C94   C     C_3   0.233928 0.859480 0.214853 -0.289865
C95   C     C_3   0.439326 0.296982 0.076882 -0.315423
C96   C     C_3   0.731339 0.371394 0.220268 -0.274573
C97   C     C_3   0.926843 0.806375 0.096394 -0.237092
C98   C     C_3   0.624026 0.691554 0.810278 -0.280678
C99   C     C_3   0.753184 0.173393 0.753732 -0.325112
C100  C     C_3   0.116928 0.193542 0.815171 -0.287876
Cl1   Cl    Cl    0.270045 0.185438 0.199849 -0.795137
Cl2   Cl    Cl    0.419727 0.710003 0.003723 -0.727619
Cl3   Cl    Cl    0.770700 0.687176 0.199266 -0.804035
Cl4   Cl    Cl    0.909154 0.208964 0.011376 -0.735667
H1    H     H_    0.246302 0.224894 0.393108 0.221477
H2    H     H_    0.102122 0.841921 0.680084 0.204500
H3    H     H_    0.807883 0.207367 0.734833 0.170096
H4    H     H_    0.775849 0.138019 0.680701 0.139541
H5    H     H_    0.735268 0.130548 0.817286 0.172615
H6    H     H_    0.067073 0.210938 0.806779 0.164598
H7    H     H_    0.085877 0.165718 0.894587 0.203799
H8    H     H_    0.157482 0.147333 0.753703 0.145752
H9    H     H_    0.164514 0.862206 0.751398 0.154716
H10   H     H_    0.202278 0.784875 0.791874 0.101264
H11   H     H_    0.123295 0.854944 0.887691 0.183343
H12   H     H_    0.671909 0.714875 0.611652 0.171006
H13   H     H_    0.646501 0.333750 0.678652 0.186659
H14   H     H_    0.377356 0.158267 0.485178 0.146481
H15   H     H_    0.313923 0.850426 0.496130 0.166548
H16   H     H_    0.864139 0.654961 0.492617 0.147369
H17   H     H_    0.843449 0.339112 0.465405 0.173493
H18   H     H_    0.792332 0.726474 0.640365 0.210698
H19   H     H_    0.786485 0.257188 0.596959 0.213086
H20   H     H_    0.287810 0.220730 0.637368 0.213963
H21   H     H_    0.138516 0.877341 0.478855 0.165144
H22   H     H_    0.254938 0.763656 0.625870 0.155390
H23   H     H_    0.856368 0.845039 0.312075 0.011971
H24   H     H_    0.672954 0.261668 0.399170 0.063858
H25   H     H_    0.343903 0.341663 0.318820 0.032118
H26   H     H_    0.180018 0.751840 0.384899 0.077491
H27   H     H_    0.763505 0.909516 0.466642 0.126478
H28   H     H_    0.612382 0.180324 0.533142 0.143284
H29   H     H_    0.265599 0.414408 0.470093 0.128724
H30   H     H_    0.112020 0.671283 0.520303 0.145397
H31   H     H_    0.838280 0.917705 0.493863 0.188688
H32   H     H_    0.749581 0.738268 0.387151 0.216318
H33   H     H_    0.707062 0.124642 0.477975 0.179960
H34   H     H_    0.343895 0.413339 0.491780 0.192595
H35   H     H_    0.206240 0.624489 0.485495 0.184427
H36   H     H_    0.446496 0.240680 0.429835 0.201119
H37   H     H_    0.369281 0.770675 0.405872 0.153759
H38   H     H_    0.945121 0.727814 0.432781 0.196079
H39   H     H_    0.883675 0.259987 0.373185 0.154507
H40   H     H_    0.860273 0.808950 0.580867 0.168599
H41   H     H_    0.812525 0.172056 0.512778 0.146415
H42   H     H_    0.354382 0.305025 0.591916 0.162435
H43   H     H_    0.642258 0.378515 0.502878 0.158976
H44   H     H_    0.288098 0.681408 0.540391 0.155002
H45   H     H_    0.267653 0.694082 0.061199 0.210279
H46   H     H_    0.236494 0.288553 0.106391 0.168649
H47   H     H_    0.746406 0.212489 0.093407 0.220011
H48   H     H_    0.738365 0.789291 0.103828 0.170305
H49   H     H_    0.773671 0.270402 0.886659 0.152189
H50   H     H_    0.677768 0.659590 0.025136 0.112304
H51   H     H_    0.298123 0.760165 0.856070 0.121566
H52   H     H_    0.178147 0.159394 0.024268 0.111902
H53   H     H_    0.359665 0.914314 0.840037 0.129212
H54   H     H_    0.657431 0.794285 0.549336 0.174155
H55   H     H_    0.316318 0.055768 0.901111 0.123202
H56   H     H_    0.850580 0.418191 0.850430 0.134050
H57   H     H_    0.816548 0.556508 0.900476 0.123871
H58   H     H_    0.419224 0.076476 0.353494 0.122787
H59   H     H_    0.353583 0.954119 0.379799 0.132836
H60   H     H_    0.922774 0.577681 0.350900 0.123539
H61   H     H_    0.853894 0.456322 0.378710 0.133101
H62   H     H_    0.630155 0.254607 0.974184 0.167490
H63   H     H_    0.614001 0.742147 0.991528 0.138802
H64   H     H_    0.151904 0.744967 0.949193 0.129397
H65   H     H_    0.575512 0.300427 0.652130 0.157042
H66   H     H_    0.114617 0.242189 0.990455 0.136066
H67   H     H_    0.596492 0.073556 0.636722 0.131324
H68   H     H_    0.647858 0.951206 0.620066 0.138298
H69   H     H_    0.087253 0.574319 0.642476 0.134486
H70   H     H_    0.148855 0.453617 0.621052 0.138311
H71   H     H_    0.644673 0.924313 0.154830 0.106289
H72   H     H_    0.661682 0.067239 0.133843 0.116328
H73   H     H_    0.142762 0.423133 0.157056 0.105946
H74   H     H_    0.177474 0.557049 0.110340 0.111728
H75   H     H_    0.255350 0.150949 0.467326 0.203904
H76   H     H_    0.161674 0.299090 0.541600 0.174890
H77   H     H_    0.191696 0.914696 0.529642 0.190798
H78   H     H_    0.754886 0.654207 0.452187 0.208463
H79   H     H_    0.711039 0.412534 0.532176 0.186544
H80   H     H_    0.933633 0.969956 0.315110 0.107827
H81   H     H_    0.985367 0.911473 0.192007 0.165338
H82   H     H_    0.041385 0.937942 0.243619 0.166513
H83   H     H_    0.842416 0.135993 0.352531 0.080929
H84   H     H_    0.903250 0.197809 0.233653 0.126416
H85   H     H_    0.865646 0.104365 0.229286 0.167366
H86   H     H_    0.427215 0.473041 0.318852 0.103678
H87   H     H_    0.058551 0.796173 0.622946 0.158912
H88   H     H_    0.457593 0.420223 0.198574 0.158174
H89   H     H_    0.534016 0.439885 0.220748 0.162574
H90   H     H_    0.344305 0.640473 0.371642 0.089138
H91   H     H_    0.407189 0.707179 0.257842 0.118754
H92   H     H_    0.386573 0.609258 0.239688 0.162740
H93   H     H_    0.260517 0.918523 0.179717 0.150217
H94   H     H_    0.183258 0.865988 0.302327 0.135802
H95   H     H_    0.204337 0.836923 0.178437 0.185805
H96   H     H_    0.464204 0.257232 0.007407 0.150531
H97   H     H_    0.471428 0.354108 0.042576 0.168474
H98   H     H_    0.163892 0.221321 0.616527 0.171528
H99   H     H_    0.370805 0.309926 0.123781 0.182124
H100  H     H_    0.760104 0.430045 0.186115 0.152832
H101  H     H_    0.682309 0.376798 0.308545 0.137164
H102  H     H_    0.699147 0.353121 0.185556 0.182521
H103  H     H_    0.935401 0.772476 0.030096 0.197887
H104  H     H_    0.959827 0.863094 0.061740 0.165425
H105  H     H_    0.859429 0.821542 0.160683 0.150425
H106  H     H_    0.574623 0.705700 0.799866 0.166050
H107  H     H_    0.593321 0.661972 0.888549 0.206479
H108  H     H_    0.668739 0.647758 0.747464 0.142976
N1    N     N_R   0.408680 0.130160 0.995800 -0.101522
N2    N     N_R   0.403730 0.078230 0.935950 -0.053222
N3    N     N_R   0.903730 0.421770 0.935950 -0.064360
N4    N     N_R   0.903730 0.578230 0.935950 -0.052451
N5    N     N_R   0.426630 0.075970 0.212960 -0.047096
N6    N     N_R   0.426630 0.924030 0.212960 -0.070652
N7    N     N_R   0.926630 0.575970 0.212960 -0.049444
N8    N     N_R   0.926630 0.424030 0.212960 -0.071883
N9    N     N_R   0.591320 0.134600 0.004200 -0.062901
N10   N     N_R   0.591320 0.865400 0.004200 -0.053596
N11   N     N_R   0.091320 0.634600 0.004200 -0.043416
N12   N     N_R   0.408680 0.869840 0.995800 -0.089696
N13   N     N_R   0.091320 0.365400 0.004200 -0.054426
N14   N     N_R   0.578320 0.867660 0.846880 -0.096234
N15   N     N_R   0.578320 0.132340 0.846880 -0.101394
N16   N     N_R   0.078320 0.367660 0.846880 -0.099692
N17   N     N_R   0.078320 0.632340 0.846880 -0.094547
N18   N     N_R   0.573370 0.074390 0.787040 -0.052226
N19   N     N_R   0.573370 0.925610 0.787040 -0.061571
N20   N     N_R   0.073370 0.574390 0.787040 -0.056817
N21   N     N_R   0.073370 0.425610 0.787040 -0.063272
N22   N     N_R   0.596270 0.927870 0.064040 -0.049211
N23   N     N_R   0.908680 0.630160 0.995800 -0.086536
N24   N     N_R   0.596270 0.072130 0.064040 -0.055133
N25   N     N_R   0.096270 0.427870 0.064040 -0.048823
N26   N     N_R   0.096270 0.572130 0.064040 -0.051148
N27   N     N_R   0.908680 0.369840 0.995800 -0.089819
N28   N     N_R   0.421680 0.867580 0.153120 -0.108434
N29   N     N_R   0.421680 0.132420 0.153120 -0.067139
N30   N     N_R   0.921680 0.367580 0.153120 -0.111833
N31   N     N_R   0.921680 0.632420 0.153120 -0.063254
N32   N     N_R   0.403730 0.921770 0.935950 -0.062078
Ni1   Ni    Ni4+2 0.500000 0.131190 0.000000 0.227776
Ni2   Ni    Ni4+2 0.500000 0.868810 0.000000 0.263105
Ni3   Ni    Ni4+2 0.000000 0.631190 0.000000 0.271867
Ni4   Ni    Ni4+2 0.000000 0.368810 0.000000 0.250378
Ni5   Ni    Ni4+2 0.488650 0.000000 0.862740 0.184466
Ni6   Ni    Ni4+2 0.988650 0.500000 0.862740 0.188707
Ni7   Ni    Ni4+2 0.511350 0.000000 0.137260 0.196496
Ni8   Ni    Ni4+2 0.011350 0.500000 0.137260 0.197315
O1    O     O_3   0.954742 0.849912 0.326143 -0.603531
O2    O     O_3   0.685901 0.227039 0.785891 -0.656588
O3    O     O_3   0.168500 0.255747 0.804325 -0.666158
O4    O     O_3   0.077801 0.772429 0.838835 -0.633428
O5    O     O_3   0.775586 0.192244 0.303213 -0.571983
O6    O     O_3   0.451221 0.351623 0.314139 -0.600508
O7    O     O_3   0.286616 0.686236 0.304772 -0.569983
O8    O     O_3   0.297245 0.804808 0.192162 -0.590673
O9    O     O_3   0.460362 0.269282 0.142268 -0.638887
O10   O     O_3   0.793282 0.313447 0.193329 -0.595544
O11   O     O_3   0.964641 0.766761 0.136223 -0.643597
O12   O     O_3   0.669773 0.757044 0.805444 -0.665854

loop_
_geom_bond_atom_site_label_1
_geom_bond_atom_site_label_2
_ccdc_geom_bond_type
C25   C31   S    
C55   H50   S    
C6    C32   S    
C49   H30   S    
C100  H6    S    
C23   C45   S    
C37   H40   S    
C63   H58   S    
C8    C83   A    
N13   N25   A    
N6    Ni7   S    
C14   C18   S    
C52   C90   S    
C93   H90   S    
C11   H77   S    
C60   H55   S    
C80   H66   S    
C14   C31   S    
C91   H84   S    
C78   H64   S    
C15   H98   S    
C44   O11   S    
C14   H79   S    
C24   C70   A    
N1    N2    A    
C2    C46   A    
C99   H4    S    
C98   H106  S    
C84   N17   A    
C85   H67   S    
C91   O5    S    
C97   H105  S    
C86   H68   S    
C86   N19   A    
C46   N22   A    
C11   H21   S    
C25   H24   S    
C21   H38   S    
C16   H87   S    
N17   N20   A    
C10   C15   S    
C5    C68   A    
C20   C40   S    
C62   H57   S    
C56   H51   S    
C95   H99   S    
C87   N20   A    
C66   C74   A    
C68   H73   S    
C88   H70   S    
C27   C29   S    
C62   C70   A    
C94   H95   S    
C89   H82   S    
C51   C58   D    
C65   H60   S    
C13   C69   A    
C60   N2    A    
C3    O4    S    
C66   N8    A    
C93   O7    S    
C44   N31   A    
C94   O8    S    
C54   C71   S    
C59   H53   S    
C60   C67   A    
C92   H86   S    
C19   H36   S    
C12   C17   S    
C84   O4    S    
C53   H48   S    
C82   O2    S    
N25   Ni8   S    
C76   H62   S    
N6    N28   A    
C80   N13   A    
N18   Ni5   S    
C25   C47   S    
C15   C34   S    
C38   H19   S    
N19   Ni5   S    
C26   C48   S    
C78   N11   A    
C20   C29   S    
C29   C72   S    
C12   C30   S    
C61   C71   A    
C43   C74   A    
C35   C71   A    
C6    C81   A    
C89   O1    S    
C15   H76   S    
N28   Ni2   S    
C57   C90   A    
C7    C33   S    
C93   H91   S    
C62   N4    A    
C54   H49   S    
C42   O9    S    
C92   H88   S    
C28   C73   S    
C20   H37   S    
C96   H100  S    
N23   Ni3   S    
C52   C54   D    
N21   Ni6   S    
N14   Ni2   S    
N20   Ni6   S    
N5    N29   A    
C83   N16   A    
C53   C55   D    
C43   N30   A    
C87   H69   S    
C12   H78   S    
C45   H31   S    
N32   Ni5   S    
C40   H44   S    
C34   C39   S    
C2    C53   S    
C89   H80   S    
C48   H29   S    
C36   C40   S    
C35   N27   A    
C51   H46   S    
C4    C79   A    
C92   H89   S    
C3    H9    S    
C61   H56   S    
C65   N7    A    
N12   N32   A    
C31   C74   S    
C63   C73   A    
N11   Ni3   S    
C95   H96   S    
C98   H108  S    
C14   H43   S    
C3    H10   S    
C50   C56   D    
C39   H20   S    
C37   H18   S    
C83   O3    S    
C59   N32   A    
C8    C88   A    
C22   H39   S    
C44   C75   A    
C23   C30   S    
C38   H41   S    
C4    C78   A    
C19   C28   S    
C41   O8    S    
C98   O12   S    
N3    Ni6   S    
C57   H72   S    
C91   H85   S    
C11   C16   S    
C77   N10   A    
C64   N6    A    
C96   H102  S    
C26   O6    S    
C40   H22   S    
C22   C31   S    
C47   H33   S    
N2    Ni5   S    
C79   H74   S    
C21   C37   S    
C21   C30   S    
C32   C45   S    
C8    C34   S    
C32   C37   S    
C97   H103  S    
C5    C80   A    
N1    Ni1   S    
C17   H54   S    
C18   H13   S    
N16   N21   A    
C26   H25   S    
C19   C39   S    
C23   O1    S    
C59   C69   A    
C41   C72   A    
N12   Ni2   S    
C100  H8    S    
C35   Cl4   S    
N31   Ni3   S    
N7    Ni8   S    
C49   H35   S    
N9    N24   A    
C1    N1    A    
C33   C47   S    
N29   Ni1   S    
C93   H92   S    
C34   C48   S    
N15   N18   A    
C10   H75   S    
N24   Ni7   S    
N8    N30   A    
C100  O3    S    
C1    Cl1   S    
C100  H7    S    
C27   H26   S    
C57   N24   A    
C27   O7    S    
C22   H17   S    
C23   H23   S    
C82   N15   A    
C18   H65   S    
C10   C28   S    
C99   O2    S    
C17   C32   S    
C91   H83   S    
N10   N22   A    
C42   C73   A    
C96   O10   S    
C66   H61   S    
N26   Ni8   S    
C89   H81   S    
N15   Ni1   S    
C5    C51   S    
C85   N18   A    
N11   N26   A    
C65   C75   A    
N22   Ni7   S    
C43   O10   S    
C92   O6    S    
C45   H27   S    
N16   Ni4   S    
C16   H2    S    
C76   N9    A    
C77   H63   S    
C99   H3    S    
C98   H107  S    
C47   H28   S    
C42   N29   A    
C26   C28   S    
C33   C38   S    
C6    C86   A    
C48   H34   S    
C88   N21   A    
C68   N25   A    
C94   H93   S    
N5    Ni7   S    
C24   Cl3   S    
C99   H5    S    
N8    Ni8   S    
C25   O5    S    
C24   N23   A    
C3    H11   S    
C95   H97   S    
C9    C87   A    
C9    C36   S    
C30   C75   S    
N10   Ni2   S    
C50   H45   S    
C63   N5    A    
C96   H101  S    
C7    C85   A    
N9    Ni1   S    
N13   Ni4   S    
C52   H47   S    
C39   H42   S    
C81   N14   A    
C1    C67   A    
N7    N31   A    
C64   C72   A    
C97   H104  S    
C22   C38   S    
C18   C33   S    
N30   Ni4   S    
C55   C70   S    
C97   O11   S    
C9    C84   A    
C58   H52   S    
N17   Ni3   S    
C27   C49   S    
C58   C67   S    
C95   O9    S    
C7    C82   A    
N3    N27   A    
C11   C29   S    
C81   O12   S    
N4    Ni6   S    
C56   C69   S    
C12   H32   S    
C4    C50   S    
C19   H14   S    
N4    N23   A    
C2    C77   A    
C46   H71   S    
N27   Ni4   S    
C10   H1    S    
C61   N3    A    
C13   N12   A    
C79   N26   A    
C94   H94   S    
C13   Cl2   S    
C21   H16   S    
C20   H15   S    
C16   C36   S    
C36   C49   S    
N14   N19   A    
C17   H12   S    
C76   C90   A    
C41   N28   A    
C64   H59   S    
