data_mof_unit_21474.cif
_audit_creation_date              2012-12-11T15:15:48-0500
_audit_creation_method            fapswitch 2.2
_symmetry_space_group_name_H-M    P1
_symmetry_Int_Tables_number       1
_space_group_crystal_system       triclinic
_cell_length_a                    20.625129
_cell_length_b                    22.84239
_cell_length_c                    6.941717
_cell_angle_alpha                 89.947095
_cell_angle_beta                  86.691298
_cell_angle_gamma                 90.041337
_cell_volume                      3264.97799276

loop_
_atom_site_label
_atom_site_type_symbol
_atom_type_description
_atom_site_fract_x
_atom_site_fract_y
_atom_site_fract_z
_atom_type_partial_charge
O1    O     O_R   0.387100 0.552640 0.378490 -0.535175
O2    O     O_R   0.612900 0.052640 0.621510 -0.536318
O3    O     O_R   0.249610 0.559600 0.072250 -0.552307
O4    O     O_R   0.750390 0.059600 0.927750 -0.553617
O5    O     O_R   0.249120 0.447360 0.902040 -0.546670
O6    O     O_R   0.750880 0.947360 0.097960 -0.546244
C1    C     C_R   0.227302 0.573678 0.244638 0.806739
C2    C     C_R   0.772836 0.073601 0.755197 0.763035
O7    O     O_R   0.386610 0.559560 0.048860 -0.545556
O8    O     O_R   0.613390 0.059560 0.951140 -0.545254
O9    O     O_R   0.387100 0.447320 0.878470 -0.537275
O10   O     O_R   0.612900 0.947320 0.121530 -0.534845
C3    C     C_R   0.407724 0.574797 0.214019 0.802744
C4    C     C_R   0.592299 0.074803 0.785851 0.803409
O11   O     O_R   0.249120 0.552680 0.402050 -0.530721
O12   O     O_R   0.750880 0.052680 0.597950 -0.541601
O13   O     O_3   0.318110 0.463180 0.223790 -0.373577
O14   O     O_3   0.681890 0.963180 0.776210 -0.356496
V1    V     V_3+5 0.318110 0.506830 0.948930 1.502763
V2    V     V_3+5 0.681890 0.006830 0.051070 1.503280
O15   O     O_R   0.386610 0.440400 0.548840 -0.552990
O16   O     O_R   0.613390 0.940400 0.451160 -0.547456
C5    C     C_R   0.407902 0.425358 0.713919 0.758280
C6    C     C_R   0.592024 0.925407 0.286234 0.772206
O17   O     O_R   0.249610 0.440440 0.572240 -0.520492
O18   O     O_R   0.750390 0.940440 0.427760 -0.509089
C7    C     C_R   0.227207 0.426807 0.744771 0.802381
C8    C     C_R   0.772591 0.926158 0.255332 0.784408
V3    V     V_3+5 0.318110 0.493170 0.448930 1.539262
V4    V     V_3+5 0.681890 0.993170 0.551070 1.554946
O19   O     O_3   0.318110 0.536820 0.723940 -0.379035
O20   O     O_3   0.681890 0.036820 0.276060 -0.382879
C9    C     C_R   0.174055 0.384013 0.763676 -0.219547
C10   C     C_R   0.825717 0.882574 0.236504 -0.252051
C11   C     C_R   0.122025 0.386830 0.642620 0.593050
C12   C     C_R   0.844322 0.849988 0.396591 0.629030
C13   C     C_R   0.071351 0.346458 0.663633 -0.295859
C14   C     C_R   0.894262 0.809036 0.375366 -0.260038
C15   C     C_R   0.072587 0.301410 0.801908 -0.019667
C16   C     C_R   0.927593 0.800198 0.195538 -0.047151
C17   C     C_R   0.124216 0.299279 0.926435 0.490048
C18   C     C_R   0.909356 0.832469 0.034531 0.514385
C19   C     C_R   0.174817 0.340317 0.905301 -0.291564
C20   C     C_R   0.858043 0.872712 0.055571 -0.290912
C21   C     C_R   0.897187 0.186549 0.886072 -0.122587
C22   C     C_R   0.103159 0.686154 0.110648 -0.121372
C23   C     C_R   0.847091 0.145491 0.902034 -0.162117
C24   C     C_R   0.152952 0.644915 0.095875 -0.156884
C25   C     C_R   0.855549 0.131361 0.555731 -0.152570
C26   C     C_R   0.145929 0.632898 0.443219 -0.121625
C27   C     C_R   0.905866 0.172331 0.539902 -0.140367
C28   C     C_R   0.095966 0.674145 0.457896 -0.135995
C29   C     C_R   0.927770 0.199780 0.704794 0.163577
C30   C     C_R   0.073449 0.700528 0.291893 0.159348
C31   C     C_2   0.019224 0.257841 0.824903 -0.111388
C32   C     C_2   0.980661 0.756676 0.172007 -0.107128
C33   C     C_2   0.981189 0.243105 0.681356 -0.215862
C34   C     C_2   0.020022 0.743684 0.314031 -0.224992
C35   C     C_R   0.825846 0.117242 0.737263 -0.026969
C36   C     C_R   0.174681 0.617562 0.261745 -0.024314
H1    H     H_    0.824701 0.136289 0.043802 0.126572
H2    H     H_    0.174661 0.634809 0.954039 0.126368
H3    H     H_    0.840186 0.110619 0.425730 0.116349
H4    H     H_    0.161757 0.612902 0.573979 0.125207
H5    H     H_    0.991122 0.261255 0.538231 0.123420
H6    H     H_    0.012569 0.764737 0.453652 0.146083
H7    H     H_    0.910779 0.208368 0.015897 0.100523
H8    H     H_    0.089137 0.707192 0.979855 0.103183
H9    H     H_    0.215424 0.337272 0.997137 0.180550
H10   H     H_    0.843699 0.896282 0.929547 0.209010
H11   H     H_    0.013060 0.235489 0.962585 0.153704
H12   H     H_    0.987804 0.735742 0.032318 0.163023
H13   H     H_    0.030878 0.351247 0.572576 0.162610
H14   H     H_    0.905607 0.783252 0.499734 0.202015
H15   H     H_    0.928128 0.182270 0.398423 0.101487
H16   H     H_    0.074326 0.685016 0.599283 0.107953
C37   C     C_R   0.574577 0.360066 0.641990 -0.119767
C38   C     C_R   0.425495 0.859786 0.361273 -0.120495
H17   H     H_    0.533182 0.445294 0.613640 0.130648
H18   H     H_    0.466957 0.945020 0.389824 0.129347
H19   H     H_    0.665164 0.279091 0.639311 0.156230
H20   H     H_    0.334940 0.778630 0.365050 0.152993
H21   H     H_    0.622937 0.375773 0.599719 0.132101
H22   H     H_    0.377225 0.875332 0.404990 0.128857
C39   C     C_R   0.461104 0.381904 0.710899 -0.122261
C40   C     C_R   0.538801 0.881926 0.289667 -0.127474
C41   C     C_R   0.475692 0.095026 0.821154 -0.191727
C42   C     C_R   0.524266 0.595273 0.176779 -0.191634
C43   C     C_R   0.421861 0.131315 0.819505 -0.135102
C44   C     C_R   0.578079 0.631663 0.177876 -0.132505
C45   C     C_R   0.429112 0.191235 0.788648 -0.061195
C46   C     C_R   0.570816 0.691513 0.209614 -0.054286
C47   C     C_R   0.491245 0.217410 0.762743 0.022668
C48   C     C_R   0.508681 0.717508 0.236944 0.020766
C49   C     C_R   0.546843 0.179147 0.755350 -0.052391
C50   C     C_R   0.453134 0.679127 0.245123 -0.050807
C51   C     C_R   0.500027 0.279686 0.735741 -0.039600
C52   C     C_R   0.499878 0.779711 0.264683 -0.043545
C53   C     C_R   0.563660 0.300667 0.684357 -0.020785
C54   C     C_R   0.436343 0.800484 0.317879 -0.018502
C55   C     C_R   0.616662 0.262595 0.675471 -0.217619
C56   C     C_R   0.383385 0.762293 0.327560 -0.219207
C57   C     C_R   0.609045 0.203286 0.713852 0.559356
C58   C     C_R   0.390976 0.703068 0.288255 0.558025
C59   C     C_R   0.449159 0.322543 0.757631 0.555771
C60   C     C_R   0.550648 0.822685 0.241818 0.568206
C61   C     C_R   0.523621 0.399899 0.650934 -0.269266
C62   C     C_R   0.476428 0.899713 0.351589 -0.272812
C63   C     C_R   0.538231 0.117598 0.786937 -0.077237
C64   C     C_R   0.461761 0.617663 0.212595 -0.077162
H23   H     H_    0.468406 0.048532 0.845341 0.104161
H24   H     H_    0.531547 0.548838 0.151816 0.105738
H25   H     H_    0.384644 0.215084 0.778564 0.201284
H26   H     H_    0.615285 0.715445 0.219290 0.204882
H27   H     H_    0.373682 0.112647 0.840084 0.129585
H28   H     H_    0.626251 0.613130 0.156163 0.132150
F1    F     F_    0.119267 0.429642 0.507496 -0.692045
F2    F     F_    0.813340 0.856254 0.573226 -0.665663
F3    F     F_    0.388685 0.309158 0.831164 -0.729362
F4    F     F_    0.610909 0.809529 0.166322 -0.710944
F5    F     F_    0.663459 0.169838 0.705098 -0.715766
F6    F     F_    0.336598 0.669501 0.297791 -0.721452
O21   O     O_3   0.127786 0.254067 0.058136 -0.552079
C65   C     C_3   0.113994 0.276469 0.245123 -0.230415
H29   H     H_    0.066349 0.299507 0.255965 0.126585
H30   H     H_    0.153339 0.306033 0.289231 0.164093
H31   H     H_    0.110910 0.239382 0.348542 0.169627
O22   O     O_3   0.939306 0.821848 0.854397 -0.548597
C66   C     C_3   0.978411 0.870343 0.798834 -0.270410
H32   H     H_    0.013512 0.881036 0.909769 0.131846
H33   H     H_    0.948323 0.909223 0.767837 0.146005
H34   H     H_    0.007035 0.859130 0.663750 0.158795

loop_
_geom_bond_atom_site_label_1
_geom_bond_atom_site_label_2
_ccdc_geom_bond_type
C4    C63   S    
V4    O20   S    
C43   H27   S    
C25   H3    S    
O6    C8    A    
C26   H4    S    
O4    C2    A    
V1    O19   S    
O22   C66   S    
O21   C65   S    
C15   C17   A    
H19   C55   S    
C7    C9    S    
O9    V1    S    
C65   H30   S    
C11   C13   A    
C27   H15   S    
O3    C1    A    
C2    C35   S    
C14   H14   S    
C41   H23   S    
C37   H21   S    
O12   V4    S    
O13   V3    S    
C38   C62   A    
O10   C6    A    
O7    C3    A    
C9    C11   A    
O5    C7    A    
C44   C46   A    
O7    V1    S    
C15   C31   S    
O8    V2    S    
C25   C27   A    
C21   H7    S    
C26   C28   A    
O3    V1    S    
O14   V4    S    
C44   H28   S    
C43   C45   A    
C12   F2    S    
C10   C12   A    
C18   O22   S    
C66   H34   S    
C42   C64   A    
C16   C18   A    
C8    C10   S    
C2    O12   A    
C17   C19   A    
O10   V2    S    
C40   C60   A    
C24   C36   A    
C18   C20   A    
V2    O20   S    
C39   C59   A    
C54   C56   A    
C51   C53   A    
C28   C30   A    
O11   V3    S    
C21   C23   A    
O17   V3    S    
C13   C15   A    
C22   C24   A    
C23   C35   A    
C49   C57   A    
C9    C19   A    
C37   C61   A    
C10   C20   A    
C49   C63   A    
C29   C33   S    
C1    O11   A    
C16   C32   S    
C50   C64   A    
C45   H25   S    
C6    C40   S    
C27   C29   A    
O4    V2    S    
C32   H12   S    
C56   C58   A    
C22   H8    S    
C3    C64   S    
C45   C47   A    
C24   H2    S    
C22   C30   A    
C46   C48   A    
H20   C56   S    
H17   C61   S    
C48   C50   A    
C65   H31   S    
C41   C63   A    
C53   C55   A    
C42   C44   A    
O18   V4    S    
C52   C54   A    
C31   C33   D    
C38   C54   A    
O16   C6    A    
C11   F1    S    
O1    C3    A    
C12   C14   A    
C57   F5    S    
C47   C51   A    
C1    C36   S    
C20   H10   S    
C34   H6    S    
C66   H32   S    
C30   C34   S    
C50   C58   A    
C13   H13   S    
O16   V4    S    
C60   F4    S    
C40   C62   A    
C33   H5    S    
C28   H16   S    
C52   C60   A    
C23   H1    S    
O5    V1    S    
O17   C7    A    
O6    V2    S    
H18   C62   S    
O18   C8    A    
C25   C35   A    
O2    V4    S    
C26   C36   A    
C17   O21   S    
O15   C5    A    
C51   C59   A    
V3    O19   S    
C39   C61   A    
C14   C16   A    
O1    V3    S    
C47   C49   A    
O15   V3    S    
O9    C5    A    
O13   V1    S    
C32   C34   D    
C37   C53   A    
O14   V2    S    
O2    C4    A    
C21   C29   A    
C42   H24   S    
C38   H22   S    
C58   F6    S    
C55   C57   A    
C5    C39   S    
C41   C43   A    
C48   C52   A    
C59   F3    S    
C19   H9    S    
C46   H26   S    
C31   H11   S    
O8    C4    A    
C65   H29   S    
C66   H33   S    
