data_mof_unit_57820.cif
_audit_creation_date              2012-12-10T17:51:30-0500
_audit_creation_method            fapswitch 2.2
_symmetry_space_group_name_H-M    P1
_symmetry_Int_Tables_number       1
_space_group_crystal_system       triclinic
_cell_length_a                    9.943426
_cell_length_b                    10.67319
_cell_length_c                    16.561822
_cell_angle_alpha                 89.651136
_cell_angle_beta                  83.810201
_cell_angle_gamma                 90.031322
_cell_volume                      1747.3936842

loop_
_atom_site_label
_atom_site_type_symbol
_atom_type_description
_atom_site_fract_x
_atom_site_fract_y
_atom_site_fract_z
_atom_type_partial_charge
C1    C     C_R   0.500029 0.739212 0.500410 0.900999
C2    C     C_R   0.534630 0.551248 0.261742 -0.052514
C3    C     C_R   0.443770 0.869898 0.357638 -0.201752
C4    C     C_R   0.479435 0.506111 0.653627 0.879404
C5    C     C_R   0.420732 0.934380 0.287135 -0.130207
C6    C     C_R   0.424392 0.064925 0.285174 0.253780
C7    C     C_R   0.450168 0.130279 0.354971 -0.151574
C8    C     C_R   0.473218 0.065596 0.427321 0.001302
C9    C     C_R   0.471315 0.934769 0.428441 0.034364
C10   C     C_R   0.500626 0.871914 0.499646 -0.124457
C11   C     C_R   0.532567 0.935543 0.569582 0.196671
C12   C     C_R   0.545479 0.496365 0.795436 0.128959
C13   C     C_R   0.528371 0.065928 0.569588 0.175866
C14   C     C_R   0.500107 0.128665 0.498328 -0.139459
C15   C     C_R   0.849475 0.601159 0.632662 -0.227437
C16   C     C_R   0.500257 0.261058 0.498184 0.890964
C17   C     C_R   0.901214 0.601227 0.707681 -0.258793
C18   C     C_R   0.015029 0.528640 0.718168 0.466555
C19   C     C_R   0.090048 0.474552 0.649751 0.159329
C20   C     C_R   0.055842 0.508298 0.571619 0.119831
C21   C     C_R   0.918057 0.537201 0.567237 0.132693
C22   C     C_R   0.940704 0.473174 0.431974 -0.115464
C23   C     C_R   0.427428 0.573473 0.138240 -0.145320
C24   C     C_R   0.083989 0.481505 0.430709 -0.110102
C25   C     C_R   0.520584 0.509060 0.346617 0.826364
C26   C     C_R   0.463178 0.546407 0.738596 -0.157440
C27   C     C_R   0.373542 0.646790 0.761854 0.359240
C28   C     C_R   0.366665 0.694975 0.839936 -0.160636
C29   C     C_R   0.450969 0.648625 0.894598 0.064978
C30   C     C_R   0.538910 0.548965 0.872545 -0.132832
C31   C     C_3   0.571488 0.867100 0.644502 -0.834915
C32   C     C_3   0.401417 0.133184 0.208379 -0.931527
C33   C     C_3   0.551113 0.136209 0.646580 -0.890084
C34   C     C_R   0.429526 0.522461 0.215131 -0.267348
C35   C     C_3   0.156092 0.349694 0.662159 -0.768578
C36   C     C_3   0.751046 0.677770 0.278107 -0.857339
C37   C     C_3   0.633150 0.382277 0.778382 -0.876729
C38   C     C_R   0.638960 0.635187 0.230092 0.171121
C39   C     C_R   0.635888 0.684690 0.151967 -0.165341
C40   C     C_R   0.530505 0.655348 0.106317 0.134610
C41   C     C_2   0.435463 0.692756 0.978448 -0.197188
C42   C     C_2   0.542354 0.693366 0.020779 -0.231933
Cl1   Cl    Cl    0.273936 0.723413 0.694586 -0.626580
Cl2   Cl    Cl    0.054602 0.499242 0.817632 -0.639185
H1    H     H_    0.716264 0.746261 0.126114 0.139809
H2    H     H_    0.643766 0.696287 0.988704 0.168625
H3    H     H_    0.598616 0.508276 0.917029 0.161352
H4    H     H_    0.347334 0.544744 0.103011 0.150951
H5    H     H_    0.333431 0.700974 0.008832 0.165061
H6    H     H_    0.297082 0.770554 0.857627 0.179602
H7    H     H_    0.504420 0.895205 0.699204 0.262121
H8    H     H_    0.562813 0.764499 0.641260 0.228583
H9    H     H_    0.677784 0.889628 0.653586 0.230100
H10   H     H_    0.299075 0.110710 0.191528 0.247200
H11   H     H_    0.409144 0.236182 0.215418 0.236820
H12   H     H_    0.441008 0.768915 0.355553 0.147213
H13   H     H_    0.478320 0.103656 0.158525 0.250181
H14   H     H_    0.540286 0.238749 0.641536 0.234982
H15   H     H_    0.474950 0.106638 0.697020 0.243003
H16   H     H_    0.654363 0.117189 0.663252 0.252071
H17   H     H_    0.199092 0.308581 0.604075 0.255549
H18   H     H_    0.234801 0.356966 0.704554 0.263534
H19   H     H_    0.078073 0.282875 0.689388 0.221399
H20   H     H_    0.816750 0.597283 0.289532 0.244331
H21   H     H_    0.816261 0.749997 0.244939 0.225583
H22   H     H_    0.708142 0.719941 0.336322 0.253224
H23   H     H_    0.401000 0.882205 0.233725 0.153732
H24   H     H_    0.705530 0.394873 0.723341 0.270782
H25   H     H_    0.694115 0.360959 0.829151 0.253219
H26   H     H_    0.567211 0.300366 0.771695 0.237782
H27   H     H_    0.453220 0.231529 0.351839 0.130276
H28   H     H_    0.897440 0.447853 0.377255 0.142343
H29   H     H_    0.759380 0.653551 0.625598 0.209590
H30   H     H_    0.845731 0.647352 0.758965 0.195434
H31   H     H_    0.347838 0.460615 0.238537 0.154446
H32   H     H_    0.146863 0.465617 0.374331 0.148279
N1    N     N_R   0.857140 0.501200 0.500750 -0.101317
N2    N     N_R   0.142740 0.501280 0.500770 -0.100632
O1    O     O_R   0.385310 0.683220 0.500000 -0.564821
O2    O     O_R   0.614640 0.683250 0.500010 -0.637595
O3    O     O_R   0.371780 0.500010 0.615800 -0.561723
O4    O     O_R   0.601110 0.500030 0.615800 -0.634301
O5    O     O_R   0.385360 0.316750 0.499990 -0.630217
O6    O     O_R   0.614690 0.316780 0.500000 -0.596872
O7    O     O_R   0.398890 0.499970 0.384200 -0.633011
O8    O     O_R   0.628220 0.499990 0.384200 -0.611995
Zn1   Zn    Zn3+2 0.346870 0.499980 0.499990 0.975992
Zn2   Zn    Zn3+2 0.653130 0.500020 0.500010 0.937021

loop_
_geom_bond_atom_site_label_1
_geom_bond_atom_site_label_2
_ccdc_geom_bond_type
N2    Zn1   S    
C6    C32   S    
C33   H14   S    
C37   H25   S    
C41   C42   D    
O5    Zn1   S    
C19   C20   A    
C31   H8    S    
C5    H23   S    
O1    Zn1   S    
C7    C8    A    
C26   C27   A    
C28   C29   A    
C7    H27   S    
C5    C6    A    
O8    Zn2   S    
C23   C40   A    
C37   H24   S    
C16   O6    A    
C18   C19   A    
C42   H2    S    
C22   H28   S    
C12   C37   S    
C28   H6    S    
C41   H5    S    
C4    O3    A    
N1    Zn2   S    
C8    C9    A    
C14   C16   S    
C2    C25   S    
C9    C10   A    
C32   H11   S    
C34   H31   S    
C39   H1    S    
C29   C41   S    
C2    C34   A    
C40   C42   S    
C11   C31   S    
C33   H15   S    
C13   C14   A    
C32   H13   S    
C32   H10   S    
O7    Zn1   S    
C30   H3    S    
C39   C40   A    
C36   H21   S    
C24   H32   S    
C16   O5    A    
C12   C26   A    
C13   C33   S    
C29   C30   A    
C3    C9    A    
C18   Cl2   S    
C3    H12   S    
C2    C38   A    
C23   C34   A    
C25   O7    A    
C17   C18   A    
C35   H17   S    
C31   H9    S    
O3    Zn1   S    
C24   N2    A    
C15   H29   S    
C33   H16   S    
C17   H30   S    
C1    O1    A    
C22   C24   A    
C15   C17   A    
C8    C14   A    
C23   H4    S    
C12   C30   A    
C1    C10   S    
O6    Zn2   S    
C22   N1    A    
C31   H7    S    
C3    C5    A    
C4    C26   S    
C6    C7    A    
C20   N2    A    
C37   H26   S    
C36   C38   S    
O2    Zn2   S    
C19   C35   S    
C11   C13   A    
C38   C39   A    
O4    Zn2   S    
C25   O8    A    
C35   H18   S    
C36   H22   S    
C10   C11   A    
C27   Cl1   S    
C15   C21   A    
C4    O4    A    
C20   C21   A    
C21   N1    A    
C27   C28   A    
C1    O2    A    
C35   H19   S    
C36   H20   S    
