data_mof_unit_5126.cif
_audit_creation_date              2012-10-26T21:08:07-0400
_audit_creation_method            fapswitch 2.2
_symmetry_space_group_name_H-M    P1
_symmetry_Int_Tables_number       1
_space_group_crystal_system       triclinic
_cell_length_a                    15.904917
_cell_length_b                    10.892277
_cell_length_c                    9.670347
_cell_angle_alpha                 89.549932
_cell_angle_beta                  89.383049
_cell_angle_gamma                 93.438532
_cell_volume                      1672.12467703

loop_
_atom_site_label
_atom_site_type_symbol
_atom_type_description
_atom_site_fract_x
_atom_site_fract_y
_atom_site_fract_z
_atom_type_partial_charge
C1    C     C_R   0.506174 0.263232 0.500220 0.611631
C2    C     C_R   0.538750 0.040496 0.872845 0.263648
C3    C     C_R   0.480337 0.938701 0.874876 0.324897
C4    C     C_R   0.340262 0.499725 0.500610 0.539010
C5    C     C_R   0.451608 0.888042 0.749167 0.216735
C6    C     C_R   0.485213 0.938575 0.623352 -0.138520
C7    C     C_R   0.518688 0.060661 0.623909 -0.063855
C8    C     C_R   0.514606 0.129265 0.499275 0.034574
C9    C     C_R   0.506336 0.065664 0.373134 0.212247
C10   C     C_R   0.506568 0.937334 0.373895 0.211288
C11   C     C_R   0.491006 0.872001 0.498546 -0.011467
C12   C     C_3   0.084121 0.501298 0.501135 0.069427
C13   C     C_R   0.613052 0.663147 0.139449 -0.029649
C14   C     C_R   0.668505 0.745227 0.066044 0.251618
C15   C     C_R   0.667063 0.745623 0.923300 -0.076909
C16   C     C_R   0.495801 0.737262 0.499669 0.549523
C17   C     C_R   0.611903 0.665159 0.853406 -0.113773
C18   C     C_R   0.554910 0.581106 0.923660 0.103550
C19   C     C_R   0.555212 0.580542 0.072460 0.070484
C20   C     C_R   0.447583 0.421931 0.078432 0.443347
C21   C     C_R   0.447528 0.420877 0.930126 0.344654
C22   C     C_R   0.659734 0.500505 0.499410 0.530562
C23   C     C_3   0.974850 0.596477 0.570687 0.079039
C24   C     C_3   0.966532 0.393842 0.561141 -0.154313
C25   C     C_3   0.024514 0.404593 0.430897 0.066735
C26   C     C_1   0.250844 0.500356 0.501873 0.027910
C27   C     C_1   0.749136 0.500388 0.498300 0.014558
C28   C     C_3   0.025965 0.493456 0.629989 0.243952
C29   C     C_3   0.915778 0.499366 0.500027 0.025916
C30   C     C_3   0.032119 0.604009 0.441715 0.073187
C31   C     C_3   0.973475 0.507227 0.370704 0.289911
C32   C     C_1   0.175532 0.500903 0.501994 0.041882
C33   C     C_1   0.824440 0.500031 0.498567 0.018465
C34   C     C_R   0.554539 0.107107 0.747681 0.222417
Cu1   Cu    Cu3+1 0.499990 0.499990 0.640660 0.988144
Cu2   Cu    Cu3+1 0.500010 0.500010 0.359340 1.067544
H1    H     H_    0.616774 0.668279 0.248630 0.176330
H2    H     H_    0.358587 0.289724 0.096163 0.360886
H3    H     H_    0.718006 0.815874 0.232803 0.319775
H4    H     H_    0.393910 0.345779 0.769943 0.385536
H5    H     H_    0.996718 0.517643 0.175995 0.358281
H6    H     H_    0.016731 0.769488 0.350639 0.251352
H7    H     H_    0.102052 0.765721 0.450893 0.232830
H8    H     H_    0.001471 0.751420 0.680969 0.254473
H9    H     H_    0.916113 0.756520 0.581001 0.227734
H10   H     H_    0.003276 0.482707 0.824812 0.348461
H11   H     H_    0.466020 0.076012 0.185318 0.396038
H12   H     H_    0.709466 0.808893 0.865341 0.151122
H13   H     H_    0.607831 0.253354 0.829848 0.342660
H14   H     H_    0.635615 0.110150 0.971597 0.341797
H15   H     H_    0.616998 0.672620 0.744101 0.177640
H16   H     H_    0.940115 0.307281 0.610237 0.134627
H17   H     H_    0.998218 0.250184 0.319728 0.254575
H18   H     H_    0.083498 0.244913 0.419699 0.237441
H19   H     H_    0.419794 0.811655 0.987482 0.377250
H20   H     H_    0.361333 0.791291 0.659916 0.334251
H21   H     H_    0.562721 0.928326 0.197103 0.397755
N1    N     N_R   0.500800 0.501210 0.147910 -0.243344
N2    N     N_R   0.500830 0.501290 0.852040 -0.262928
N3    N     N_3   0.052227 0.301087 0.351655 -0.591568
N4    N     N_3   0.067183 0.716801 0.376241 -0.598902
N5    N     N_3   0.947391 0.700569 0.649274 -0.602944
O1    O     O_R   0.499990 0.319640 0.618810 -0.500560
O2    O     O_3   0.387807 0.796028 0.752245 -0.670173
O3    O     O_3   0.522495 0.875789 0.253706 -0.651339
O4    O     O_3   0.394210 0.343493 0.156490 -0.616581
O5    O     O_3   0.724574 0.826631 0.131262 -0.672130
O6    O     O_3   0.392379 0.335402 0.869942 -0.718494
O7    O     O_3   0.945117 0.513518 0.234644 -0.659016
O8    O     O_3   0.054752 0.488458 0.765862 -0.655371
O9    O     O_3   0.499743 0.128794 0.249774 -0.615756
O10   O     O_3   0.611082 0.208351 0.741492 -0.675086
O11   O     O_3   0.578978 0.072130 0.994052 -0.665857
O12   O     O_R   0.500000 0.319660 0.381240 -0.396976
O13   O     O_R   0.379070 0.499980 0.618770 -0.507843
O14   O     O_R   0.379080 0.500000 0.381190 -0.449723
O15   O     O_R   0.500000 0.680340 0.618760 -0.506605
O16   O     O_R   0.500010 0.680360 0.381190 -0.468058
O17   O     O_R   0.620920 0.500000 0.618810 -0.510525
O18   O     O_R   0.620930 0.500020 0.381230 -0.531460
O19   O     O_3   0.455135 0.888452 0.001060 -0.637940

loop_
_geom_bond_atom_site_label_1
_geom_bond_atom_site_label_2
_ccdc_geom_bond_type
C24   H16   S    
C25   C31   S    
C1    C8    S    
Cu1   Cu2   S    
C17   H15   S    
C7    C8    A    
H18   N3    S    
C27   C33   T    
C26   C32   T    
Cu1   O13   S    
C12   C28   S    
C1    O12   A    
C23   C29   S    
C20   O4    S    
C22   O17   A    
C21   N2    A    
Cu2   N1    S    
C30   C31   S    
C29   C33   S    
H9    N5    S    
Cu1   N2    S    
C18   C19   A    
C24   C29   S    
C4    O13   A    
Cu2   O14   S    
C23   N5    S    
H2    O4    S    
C8    C9    A    
H13   O10   S    
C3    O19   S    
C14   O5    S    
H20   O2    S    
C25   N3    S    
H19   O19   S    
C9    C10   A    
C13   H1    S    
C2    C34   A    
C13   C14   A    
C12   C32   S    
C15   H12   S    
C1    O1    A    
H17   N3    S    
C19   N1    A    
C4    O14   A    
C13   C19   A    
C23   C30   S    
C9    O9    S    
C24   C25   S    
Cu2   O18   S    
H14   O11   S    
C6    C11   A    
H8    N5    S    
Cu1   O15   S    
C5    O2    S    
C11   C16   S    
C17   C18   A    
C23   C28   S    
H6    N4    S    
H11   O9    S    
C2    O11   S    
Cu2   O12   S    
C22   C27   S    
C21   O6    S    
C7    C34   A    
C20   N1    A    
C34   O10   S    
H7    N4    S    
H5    O7    S    
C10   O3    S    
C15   C17   A    
C12   C30   S    
H3    O5    S    
C28   O8    S    
C24   C28   S    
H21   O3    S    
C3    C5    A    
C4    C26   S    
C6    C7    A    
C12   C25   S    
C2    C3    A    
C22   O18   A    
C29   C31   S    
Cu2   O16   S    
C5    C6    A    
Cu1   O17   S    
C16   O16   A    
H10   O8    S    
C10   C11   A    
C18   N2    A    
C31   O7    S    
C20   C21   A    
H4    O6    S    
C30   N4    S    
C14   C15   A    
C16   O15   A    
Cu1   O1    S    
