data_mof_unit_32448.cif
_audit_creation_date              2012-12-10T18:01:16-0500
_audit_creation_method            fapswitch 2.2
_symmetry_space_group_name_H-M    P1
_symmetry_Int_Tables_number       1
_space_group_crystal_system       triclinic
_cell_length_a                    9.588363
_cell_length_b                    10.813933
_cell_length_c                    17.181282
_cell_angle_alpha                 91.747016
_cell_angle_beta                  83.342708
_cell_angle_gamma                 89.245704
_cell_volume                      1768.40662124

loop_
_atom_site_label
_atom_site_type_symbol
_atom_type_description
_atom_site_fract_x
_atom_site_fract_y
_atom_site_fract_z
_atom_type_partial_charge
C1    C     C_R   0.499268 0.737719 0.500695 0.778345
C2    C     C_R   0.500395 0.262308 0.500209 0.779125
C3    C     C_R   0.615465 0.935618 0.522701 -0.177049
C4    C     C_R   0.382225 0.064533 0.480990 -0.179085
C5    C     C_R   0.615819 0.063614 0.522852 -0.203617
C6    C     C_R   0.381235 0.936595 0.481609 -0.190921
C7    C     C_R   0.499993 0.128399 0.501075 -0.016400
C8    C     C_R   0.498348 0.871718 0.501808 -0.015376
C9    C     C_R   0.911695 0.574023 0.551168 -0.051621
C10   C     C_R   0.088627 0.428597 0.447419 -0.047090
C11   C     C_R   0.058790 0.571021 0.554336 0.230066
C12   C     C_R   0.940730 0.423665 0.448514 0.213663
C13   C     C_R   0.478730 0.499489 0.650018 0.783117
C14   C     C_R   0.521357 0.498703 0.349897 0.785964
C15   C     C_R   0.461290 0.490495 0.734689 -0.028621
C16   C     C_R   0.539464 0.490083 0.264728 -0.021922
C17   C     C_R   0.534431 0.569655 0.780697 -0.195530
C18   C     C_R   0.460816 0.567352 0.222046 -0.175953
C19   C     C_R   0.523605 0.555956 0.861379 -0.104604
C20   C     C_R   0.473307 0.554574 0.140723 -0.109642
C21   C     C_R   0.445007 0.459028 0.896169 0.165007
C22   C     C_R   0.559443 0.460356 0.101692 0.161468
C23   C     C_R   0.369000 0.381967 0.849904 -0.069690
C24   C     C_R   0.640732 0.385178 0.144649 -0.064388
C25   C     C_R   0.376100 0.398459 0.769533 -0.215538
C26   C     C_R   0.631795 0.400855 0.225806 -0.204207
C27   C     C_2   0.442625 0.438189 0.981093 -0.149871
C28   C     C_2   0.563834 0.440256 0.015797 -0.145936
Cu1   Cu    Cu3+1 0.359340 0.499980 0.500000 0.924867
Cu2   Cu    Cu3+1 0.640660 0.500020 0.500000 0.932145
H1    H     H_    0.599477 0.641807 0.754170 0.130486
H2    H     H_    0.390346 0.637505 0.251643 0.139190
H3    H     H_    0.692633 0.340188 0.258383 0.124456
H4    H     H_    0.319589 0.336500 0.734114 0.136708
H5    H     H_    0.307015 0.307383 0.875666 0.138390
H6    H     H_    0.708437 0.312654 0.115604 0.137891
H7    H     H_    0.413050 0.616053 0.108302 0.130679
H8    H     H_    0.579491 0.618864 0.896479 0.128943
H9    H     H_    0.706214 0.886876 0.539513 0.143649
H10   H     H_    0.291448 0.113209 0.464147 0.152338
H11   H     H_    0.706049 0.111718 0.540418 0.149148
H12   H     H_    0.289976 0.888632 0.465243 0.149221
H13   H     H_    0.844123 0.633876 0.591260 0.140997
H14   H     H_    0.156740 0.372754 0.405444 0.154081
N1    N     N_R   0.147930 0.499970 0.499980 -0.196798
N2    N     N_R   0.852070 0.500030 0.500020 -0.191584
O1    O     O_R   0.381260 0.680340 0.500000 -0.603083
O2    O     O_R   0.618740 0.319660 0.500000 -0.594781
O3    O     O_R   0.618830 0.680370 0.500010 -0.582344
O4    O     O_R   0.381170 0.319630 0.499990 -0.584342
O5    O     O_R   0.367440 0.500000 0.613600 -0.598124
O6    O     O_R   0.632560 0.500000 0.386400 -0.594843
O7    O     O_R   0.605010 0.500030 0.613600 -0.575148
O8    O     O_R   0.394990 0.499970 0.386400 -0.577645
C29   C     C_2   0.705079 0.425592 0.969281 0.830750
O9    O     O_2   0.807239 0.474066 0.993170 -0.569765
O10   O     O_R   0.721817 0.354016 0.899507 -0.751020
H15   H     H_    0.822474 0.351271 0.873727 0.333675
C30   C     C_2   0.302965 0.417962 0.026859 0.834692
O11   O     O_2   0.196766 0.463117 0.005383 -0.568995
O12   O     O_R   0.292545 0.344890 0.093033 -0.751919
H16   H     H_    0.192341 0.338228 0.118670 0.335476
C31   C     C_3   0.108793 0.647219 0.620795 -0.393068
C32   C     C_3   0.090286 0.580033 0.699181 -0.328264
C33   C     C_3   0.939799 0.585684 0.740068 -0.820172
H17   H     H_    0.897850 0.682164 0.743869 0.244006
H18   H     H_    0.870661 0.525313 0.708620 0.258571
H19   H     H_    0.938492 0.551754 0.800502 0.263147
H20   H     H_    0.123947 0.481469 0.690008 0.236795
H21   H     H_    0.159327 0.624334 0.739283 0.220432
H22   H     H_    0.218726 0.673154 0.608068 0.226459
H23   H     H_    0.051288 0.737649 0.627485 0.154594
C34   C     C_3   0.889733 0.331117 0.390458 -0.383436
C35   C     C_3   0.926054 0.195771 0.408120 -0.388636
C36   C     C_3   0.037073 0.136513 0.346701 -0.834941
H24   H     H_    0.000256 0.137656 0.287754 0.260522
H25   H     H_    0.137989 0.185659 0.345058 0.246808
H26   H     H_    0.055759 0.038843 0.361417 0.242206
H27   H     H_    0.961691 0.188886 0.467210 0.218612
H28   H     H_    0.829949 0.139506 0.408124 0.224452
H29   H     H_    0.776805 0.336148 0.389099 0.233101
H30   H     H_    0.935572 0.354757 0.330381 0.181727

loop_
_geom_bond_atom_site_label_1
_geom_bond_atom_site_label_2
_ccdc_geom_bond_type
C29   O9    D    
C1    C8    S    
C34   C35   S    
C2    C7    S    
C24   H6    S    
Cu1   O1    S    
Cu2   O2    S    
C19   C21   A    
C24   C26   A    
C11   C31   S    
C15   C25   A    
Cu1   O8    S    
Cu2   O6    S    
C2    O4    A    
C13   O5    A    
C14   O6    A    
C4    H10   S    
C33   H18   S    
C14   C16   S    
C32   H21   S    
C25   H4    S    
C21   C27   S    
C3    H9    S    
C9    N2    A    
C35   H28   S    
C12   C34   S    
C4    C7    A    
C34   H29   S    
C28   C29   S    
C13   O7    A    
Cu1   O4    S    
C21   C23   A    
C16   C26   A    
Cu2   O7    S    
C9    H13   S    
C30   O12   S    
C35   C36   S    
C10   H14   S    
C4    C6    A    
C3    C8    A    
C5    C7    A    
C1    O1    A    
C6    C8    A    
C2    O2    A    
Cu1   N1    S    
C36   H24   S    
Cu1   Cu2   S    
C19   H8    S    
C36   H25   S    
C26   H3    S    
C33   H19   S    
C10   N1    A    
C32   H20   S    
C9    C11   A    
C10   C12   A    
C12   N2    A    
C14   O8    A    
Cu2   O3    S    
C20   C22   A    
C23   H5    S    
C35   H27   S    
C13   C15   S    
C17   H1    S    
C22   C24   A    
C11   N1    A    
C18   H2    S    
C34   H30   S    
Cu1   O5    S    
C15   C17   A    
C5    H11   S    
Cu2   N2    S    
C31   H22   S    
C3    C5    A    
C32   C33   S    
C29   O10   S    
C27   C30   S    
C20   H7    S    
O10   H15   S    
C17   C19   A    
C18   C20   A    
C23   C25   A    
O12   H16   S    
C36   H26   S    
C31   C32   S    
C30   O11   D    
C31   H23   S    
C16   C18   A    
C33   H17   S    
C6    H12   S    
C27   C28   D    
C22   C28   S    
C1    O3    A    
