data_mof_unit_14413.cif
_audit_creation_date              2012-12-11T14:35:47-0500
_audit_creation_method            fapswitch 2.2
_symmetry_space_group_name_H-M    P1
_symmetry_Int_Tables_number       1
_space_group_crystal_system       monoclinic
_cell_length_a                    14.475253
_cell_length_b                    16.075797
_cell_length_c                    6.919196
_cell_angle_alpha                 90.0
_cell_angle_beta                  81.218579
_cell_angle_gamma                 90.0
_cell_volume                      1591.23165475

loop_
_atom_site_label
_atom_site_type_symbol
_atom_type_description
_atom_site_fract_x
_atom_site_fract_y
_atom_site_fract_z
_atom_type_partial_charge
O1    O     O_R   0.337460 0.413110 0.524760 -0.551984
O2    O     O_R   0.662540 0.913110 0.475240 -0.551983
O3    O     O_R   0.348690 0.587910 0.191230 -0.545395
O4    O     O_R   0.651310 0.087910 0.808770 -0.545395
O5    O     O_R   0.166530 0.586890 0.082470 -0.560887
O6    O     O_R   0.833470 0.086890 0.917530 -0.560887
C1    C     C_R   0.373040 0.615022 0.353654 0.635416
C2    C     C_R   0.626960 0.115022 0.646345 0.635417
O7    O     O_R   0.348700 0.413830 0.191250 -0.530084
O8    O     O_R   0.651300 0.913830 0.808750 -0.530084
O9    O     O_R   0.166530 0.411570 0.082490 -0.508604
O10   O     O_R   0.833470 0.911570 0.917510 -0.508604
C3    C     C_R   0.369126 0.383821 0.354264 0.786747
C4    C     C_R   0.630873 0.883821 0.645735 0.786746
O11   O     O_R   0.337460 0.588430 0.524740 -0.560154
O12   O     O_R   0.662540 0.088430 0.475260 -0.560154
O13   O     O_3   0.192230 0.499460 0.407330 -0.344637
O14   O     O_3   0.807770 0.999460 0.592670 -0.344637
V1    V     V_3+5 0.263080 0.500100 0.108540 1.630189
V2    V     V_3+5 0.736920 0.000100 0.891460 1.630190
O15   O     O_R   0.155290 0.412090 0.756570 -0.496715
O16   O     O_R   0.844710 0.912090 0.243430 -0.496716
C5    C     C_R   0.131168 0.384246 0.933713 0.912811
C6    C     C_R   0.868832 0.884246 0.066287 0.912811
O17   O     O_R   0.155290 0.586170 0.756550 -0.519024
O18   O     O_R   0.844710 0.086170 0.243450 -0.519023
C7    C     C_R   0.131896 0.614775 0.932927 0.801371
C8    C     C_R   0.868104 0.114775 0.067072 0.801371
V3    V     V_3+5 0.240910 0.499900 0.616030 1.674539
V4    V     V_3+5 0.759090 0.999900 0.383970 1.674539
O19   O     O_3   0.311760 0.500540 0.867100 -0.403055
O20   O     O_3   0.688240 0.000540 0.132900 -0.403055
C9    C     C_3   0.090403 0.749582 0.114290 0.327645
C10   C     C_3   0.909597 0.249582 0.885710 0.327645
H1    H     H_    0.088026 0.720585 0.260330 0.173052
H2    H     H_    0.911974 0.220585 0.739670 0.173052
C11   C     C_3   0.026109 0.827617 0.134484 0.988582
C12   C     C_3   0.973891 0.327617 0.865515 0.988582
C13   C     C_3   0.957328 0.651170 0.053336 -0.536747
C14   C     C_3   0.042672 0.151170 0.946663 -0.536747
C15   C     C_3   0.053539 0.734322 0.774683 0.393946
C16   C     C_3   0.946461 0.234322 0.225317 0.393946
C17   C     C_3   0.059072 0.684728 0.968208 -0.591412
C18   C     C_3   0.940928 0.184728 0.031792 -0.591412
H3    H     H_    0.121711 0.765911 0.727820 0.178511
H4    H     H_    0.878289 0.265911 0.272180 0.178510
C19   C     C_3   0.938583 0.812244 0.031392 -0.629152
C20   C     C_3   0.061417 0.312244 0.968608 -0.629152
C21   C     C_3   0.890609 0.729320 0.112515 1.060728
C22   C     C_3   0.109391 0.229320 0.887485 1.060729
C23   C     C_3   0.974835 0.800646 0.807605 1.048121
C24   C     C_3   0.025165 0.300646 0.192395 1.048121
H5    H     H_    0.598215 0.788874 0.347960 0.183881
H6    H     H_    0.401785 0.288874 0.652040 0.183881
C25   C     C_2   0.439080 0.686287 0.347312 -0.238842
C26   C     C_2   0.560920 0.186287 0.652688 -0.238842
C27   C     C_2   0.498728 0.694400 0.483486 -0.064327
C28   C     C_2   0.501272 0.194400 0.516514 -0.064327
H7    H     H_    0.528927 0.792136 0.791468 0.162897
H8    H     H_    0.471072 0.292136 0.208532 0.162897
C29   C     C_2   0.567266 0.811691 0.651736 -0.220851
C30   C     C_2   0.432733 0.311691 0.348264 -0.220851
C31   C     C_2   0.558846 0.769217 0.486802 0.022742
C32   C     C_2   0.441154 0.269217 0.513198 0.022742
F1    F     F_    0.901669 0.776684 0.711596 -0.508872
F2    F     F_    0.098331 0.276684 0.288404 -0.508872
C33   C     C_2   0.925205 0.593746 0.899809 0.866649
H9    H     H_    0.968139 0.540418 0.849735 0.050711
O21   O     O_2   0.854347 0.605567 0.828152 -0.379002
C34   C     C_2   0.074795 0.093746 0.100191 0.866649
H10   H     H_    0.031861 0.040418 0.150265 0.050711
O22   O     O_2   0.145653 0.105567 0.171848 -0.379002
F3    F     F_    0.804965 0.721476 0.047830 -0.584635
F4    F     F_    0.195034 0.221476 0.952170 -0.584635
C35   C     C_2   0.516145 0.623845 0.614414 0.503822
H11   H     H_    0.493021 0.561302 0.588190 0.051754
O23   O     O_2   0.560161 0.634079 0.749674 -0.488467
C36   C     C_2   0.483855 0.123845 0.385585 0.503822
H12   H     H_    0.506979 0.061302 0.411810 0.051755
O24   O     O_2   0.439839 0.134079 0.250326 -0.488467
C37   C     C_2   0.428369 0.751167 0.197333 0.494138
H13   H     H_    0.393250 0.735416 0.074384 0.095513
O25   O     O_2   0.454269 0.822861 0.211530 -0.515927
C38   C     C_2   0.571631 0.251167 0.802667 0.494138
H14   H     H_    0.606750 0.235416 0.925616 0.095512
O26   O     O_2   0.545731 0.322861 0.788470 -0.515927
F5    F     F_    0.182619 0.773142 0.054303 -0.623994
F6    F     F_    0.817381 0.273142 0.945697 -0.623994
F7    F     F_    0.075767 0.895630 0.050862 -0.611459
F8    F     F_    0.924233 0.395630 0.949137 -0.611459
F9    F     F_    0.999903 0.845126 0.331231 -0.551893
F10   F     F_    0.000097 0.345126 0.668769 -0.551893
C39   C     C_2   0.957961 0.596514 0.233284 0.638329
H15   H     H_    0.018558 0.592471 0.306879 0.094619
O27   O     O_2   0.887892 0.558091 0.303110 -0.401204
C40   C     C_2   0.042039 0.096514 0.766716 0.638329
H16   H     H_    0.981442 0.092471 0.693121 0.094619
O28   O     O_2   0.112107 0.058091 0.696890 -0.401204
F11   F     F_    0.869771 0.736162 0.314761 -0.559343
F12   F     F_    0.130229 0.236162 0.685238 -0.559343
F13   F     F_    0.039369 0.682626 0.621598 -0.656338
F14   F     F_    0.960631 0.182626 0.378402 -0.656338
F15   F     F_    0.009577 0.875259 0.725703 -0.593708
F16   F     F_    0.990423 0.375259 0.274296 -0.593708

loop_
_geom_bond_atom_site_label_1
_geom_bond_atom_site_label_2
_ccdc_geom_bond_type
C39   H15   S    
O13   V3    S    
C1    C25   S    
O4    C2    A    
V1    O19   S    
C2    C26   S    
C37   H13   S    
C19   C21   S    
O9    V1    S    
C14   C34   S    
O16   C6    A    
C38   O26   D    
O3    C1    A    
C22   F4    S    
C16   H4    S    
C26   C38   S    
C36   O24   D    
O12   V4    S    
C12   F10   S    
H8    C30   S    
C23   F1    S    
C29   C31   D    
O7    C3    A    
C13   C39   S    
C30   C32   D    
O13   V1    S    
O5    C7    A    
O7    V1    S    
O6    C8    A    
C3    C30   S    
O8    V2    S    
C40   O28   D    
O3    V1    S    
C34   H10   S    
O14   V4    S    
C11   C19   S    
C12   C20   S    
C15   F13   S    
C20   C22   S    
C2    O12   A    
O17   V3    S    
C15   C17   S    
C16   C18   S    
C14   C40   S    
C16   F14   S    
C37   O25   D    
O11   V3    S    
C28   C32   S    
H7    C29   S    
C11   F9    S    
C33   H9    S    
C9    C17   S    
C10   C18   S    
C38   H14   S    
O8    C4    A    
C36   H12   S    
C19   C23   S    
C1    O11   A    
C4    C29   S    
O15   V3    S    
C8    C18   S    
C9    C11   S    
C33   O21   D    
C35   H11   S    
C21   F11   S    
C14   C18   S    
C40   H16   S    
O10   V2    S    
O1    V3    S    
C10   F6    S    
C35   O23   D    
C13   C21   S    
O18   V4    S    
C25   C27   D    
C21   F3    S    
C25   C37   S    
C24   F2    S    
V2    O20   S    
C12   F8    S    
C24   F16   S    
C5    C20   S    
O16   V4    S    
C10   C12   S    
C6    C19   S    
C13   C33   S    
C27   C31   S    
C13   C17   S    
O5    V1    S    
O17   C7    A    
O6    V2    S    
O10   C6    A    
O18   C8    A    
C11   F7    S    
O2    V4    S    
C27   C35   S    
O15   C5    A    
C9    F5    S    
V3    O19   S    
V4    O20   S    
H5    C31   S    
H6    C32   S    
C14   C22   S    
O9    C5    A    
C9    H1    S    
C10   H2    S    
C26   C28   D    
O14   V2    S    
O2    C4    A    
C22   F12   S    
C28   C36   S    
O4    V2    S    
C7    C17   S    
C20   C24   S    
O1    C3    A    
C39   O27   D    
C15   H3    S    
C34   O22   D    
C23   F15   S    
C15   C23   S    
C16   C24   S    
