data_mof_unit_42817.cif
_audit_creation_date              2013-03-05T16:40:44-0500
_audit_creation_method            fapswitch 2.2
_symmetry_space_group_name_H-M    P1
_symmetry_Int_Tables_number       1
_space_group_crystal_system       triclinic
_cell_length_a                    17.82549
_cell_length_b                    16.565777
_cell_length_c                    10.730259
_cell_angle_alpha                 91.549763
_cell_angle_beta                  93.809767
_cell_angle_gamma                 90.456261
_cell_volume                      3160.2615375

loop_
_atom_site_label
_atom_site_type_symbol
_atom_site_description
_atom_site_fract_x
_atom_site_fract_y
_atom_site_fract_z
_atom_type_partial_charge
O1    O     O_R   0.391260 0.567930 0.500000 -0.622959
O2    O     O_R   0.608740 0.432070 0.500000 -0.635000
O3    O     O_R   0.608740 0.567930 0.500000 -0.558544
O4    O     O_R   0.391260 0.432070 0.500000 -0.581778
C1    C     C_R   0.354452 0.500019 0.499271 0.802246
C2    C     C_R   0.645454 0.500275 0.500060 0.846371
O5    O     O_R   0.500000 0.567910 0.319660 -0.599745
O6    O     O_R   0.500000 0.432090 0.680340 -0.548627
O7    O     O_R   0.500000 0.567910 0.680340 -0.623264
O8    O     O_R   0.500000 0.432090 0.319660 -0.617102
C3    C     C_R   0.508572 0.498843 0.261921 0.815669
C4    C     C_R   0.489421 0.500948 0.736813 0.838838
Cu1   Cu    Cu3+1 0.500000 0.580420 0.500000 0.930757
Cu2   Cu    Cu3+1 0.500000 0.419580 0.500000 0.971675
C5    C     C_R   0.559314 0.641238 0.115487 -0.105264
C6    C     C_R   0.430849 0.359991 0.879593 -0.053489
C7    C     C_R   0.459312 0.651434 0.901572 -0.093991
C8    C     C_R   0.532038 0.346361 0.091439 -0.054193
C9    C     C_R   0.540400 0.717878 0.067518 -0.009644
C10   C     C_R   0.448125 0.282540 0.926045 -0.008581
C11   C     C_R   0.485916 0.723082 0.965516 0.017584
C12   C     C_R   0.503751 0.275500 0.025807 0.024728
C13   C     C_R   0.485452 0.575367 0.943253 0.044339
C14   C     C_R   0.506528 0.423540 0.053012 -0.031399
C15   C     C_R   0.521776 0.571047 0.062808 0.073331
C16   C     C_R   0.469688 0.428798 0.933905 0.012017
C17   C     C_R   0.473897 0.502783 0.871760 -0.147315
C18   C     C_R   0.519907 0.496518 0.125032 -0.146928
C19   C     C_R   0.851295 0.568204 0.572642 0.375007
C20   C     C_R   0.150816 0.425264 0.516682 0.429338
C21   C     C_R   0.157169 0.566686 0.583020 0.416418
C22   C     C_R   0.849939 0.426938 0.507383 0.443667
C23   C     C_R   0.772622 0.571229 0.551008 -0.104333
C24   C     C_R   0.227280 0.427546 0.491676 -0.122167
C25   C     C_R   0.232085 0.571918 0.548159 -0.087086
C26   C     C_R   0.771611 0.429533 0.478874 -0.152086
C27   C     C_R   0.730381 0.500693 0.508119 -0.230039
C28   C     C_R   0.270218 0.500437 0.509737 -0.331834
C29   C     C_R   0.888931 0.495779 0.554323 -0.119039
C30   C     C_R   0.116867 0.494037 0.564615 -0.149148
C31   C     C_1   0.969481 0.494263 0.569872 0.085218
C32   C     C_1   0.036866 0.493773 0.573364 0.073722
C33   C     C_R   0.551115 0.831836 0.580854 -0.088563
C34   C     C_R   0.450086 0.167417 0.422301 -0.072582
C35   C     C_R   0.448986 0.828673 0.421515 -0.098222
C36   C     C_R   0.551835 0.172643 0.583187 -0.075184
C37   C     C_R   0.546186 0.745670 0.586257 0.146842
C38   C     C_R   0.453359 0.253454 0.416069 0.207614
C39   C     C_R   0.453459 0.742442 0.414981 0.095128
C40   C     C_R   0.548218 0.258986 0.583716 0.137828
N1    N     N_R   0.500000 0.701220 0.500000 -0.274605
N2    N     N_R   0.500000 0.298780 0.500000 -0.246700
C41   C     C_R   0.500160 0.873805 0.501454 -0.082304
C42   C     C_R   0.501767 0.126556 0.502041 -0.033918
C43   C     C_1   0.500588 0.963239 0.502197 -0.051411
C44   C     C_1   0.501301 0.037137 0.502887 -0.030202
C45   C     C_2   0.532140 0.194627 0.062091 0.570097
H1    H     H_    0.592184 0.184569 0.075006 0.117502
O9    O     O_2   0.488894 0.139440 0.080989 -0.507624
C46   C     C_2   0.456029 0.802920 0.926406 0.518942
H2    H     H_    0.445923 0.815855 0.828276 0.025407
O10   O     O_2   0.441258 0.854668 0.003985 -0.473175
C47   C     C_2   0.410493 0.209485 0.866792 0.561062
H3    H     H_    0.349636 0.206635 0.854026 0.103055
O11   O     O_2   0.447143 0.153210 0.828367 -0.493865
C48   C     C_2   0.577361 0.792188 0.124364 0.458947
H4    H     H_    0.586218 0.799411 0.225041 0.038849
O12   O     O_2   0.599061 0.845604 0.058852 -0.462256
C49   C     C_2   0.625498 0.633535 0.207174 0.425754
H5    H     H_    0.645778 0.684483 0.265101 0.113418
O13   O     O_2   0.660162 0.570403 0.215536 -0.553373
C50   C     C_2   0.369744 0.371899 0.779875 0.366314
H6    H     H_    0.341588 0.429645 0.773892 0.101915
O14   O     O_2   0.352133 0.319438 0.701180 -0.506232
C51   C     C_2   0.395436 0.655367 0.805325 0.420333
H7    H     H_    0.390049 0.705646 0.743123 0.077384
O15   O     O_2   0.347273 0.602323 0.796144 -0.569244
C52   C     C_2   0.594386 0.341463 0.189914 0.391010
H8    H     H_    0.633398 0.391851 0.205869 0.126537
O16   O     O_2   0.600854 0.283442 0.257346 -0.586556
O17   O     O_3   0.891449 0.636169 0.617552 -0.582874
C53   C     C_3   0.915420 0.679044 0.515212 -0.189357
H9    H     H_    0.866932 0.699764 0.454025 0.178444
H10   H     H_    0.953845 0.642468 0.459353 0.162182
H11   H     H_    0.947192 0.733487 0.551635 0.209913
O18   O     O_3   0.109117 0.354473 0.496351 -0.535949
C54   C     C_3   0.075931 0.352736 0.373033 -0.180716
H12   H     H_    0.119092 0.351410 0.302858 0.128563
H13   H     H_    0.037768 0.404639 0.356105 0.154101
H14   H     H_    0.041523 0.296766 0.358628 0.221797
O19   O     O_3   0.120039 0.635758 0.619215 -0.553447
C55   C     C_3   0.118185 0.637452 0.750539 -0.137885
H15   H     H_    0.175773 0.635255 0.797363 0.193460
H16   H     H_    0.083015 0.587359 0.782674 0.134694
H17   H     H_    0.092455 0.695011 0.780129 0.198572
O20   O     O_3   0.889661 0.357577 0.481503 -0.545612
C56   C     C_3   0.892329 0.309283 0.587891 -0.213607
H18   H     H_    0.834953 0.290494 0.611335 0.140695
H19   H     H_    0.922336 0.340858 0.669724 0.155744
H20   H     H_    0.924059 0.253706 0.567291 0.212079
C57   C     C_2   0.738749 0.650913 0.572254 0.428382
H21   H     H_    0.747376 0.681131 0.663135 0.128056
O21   O     O_2   0.707208 0.686555 0.485990 -0.542942
C58   C     C_2   0.256883 0.355749 0.428875 0.546589
H22   H     H_    0.274757 0.361196 0.335256 -0.010692
O22   O     O_2   0.256335 0.289920 0.477255 -0.416512
C59   C     C_2   0.265834 0.653954 0.541848 0.550698
H23   H     H_    0.298892 0.668963 0.465132 0.040757
O23   O     O_2   0.254452 0.706910 0.619473 -0.500788
C60   C     C_2   0.736792 0.357752 0.412014 0.457479
H24   H     H_    0.687226 0.328925 0.442756 0.093913
O24   O     O_2   0.765674 0.327962 0.321712 -0.468140
C61   C     C_2   0.610291 0.879140 0.656023 0.505803
H25   H     H_    0.596934 0.936794 0.699013 0.076188
O25   O     O_2   0.675046 0.855422 0.666444 -0.486195
C62   C     C_2   0.391534 0.119115 0.347976 0.543814
H26   H     H_    0.406864 0.064780 0.297989 0.069287
O26   O     O_2   0.325576 0.138759 0.345071 -0.458567
C63   C     C_2   0.390019 0.872495 0.346552 0.535421
H27   H     H_    0.403727 0.928357 0.303062 0.071120
O27   O     O_2   0.325199 0.847528 0.336009 -0.492424
C64   C     C_2   0.608475 0.129009 0.664529 0.409125
H28   H     H_    0.629275 0.071056 0.633439 0.073113
O28   O     O_2   0.631168 0.155547 0.767489 -0.502880
C65   C     C_2   0.589139 0.705075 0.690136 0.404318
H29   H     H_    0.608689 0.644442 0.681126 0.113881
O29   O     O_2   0.603568 0.739600 0.790838 -0.557593
C66   C     C_2   0.409721 0.293354 0.312458 0.437567
H30   H     H_    0.394919 0.355439 0.318669 0.094386
O30   O     O_2   0.390325 0.257265 0.214863 -0.558555
C67   C     C_2   0.409472 0.698507 0.310947 0.422497
H31   H     H_    0.385685 0.639580 0.321095 0.101500
O31   O     O_2   0.399582 0.728177 0.208380 -0.540857
C68   C     C_2   0.600665 0.305518 0.671046 0.553945
H32   H     H_    0.653630 0.327524 0.641365 -0.005187
O32   O     O_2   0.587336 0.314863 0.780452 -0.532601

loop_
_geom_bond_atom_site_label_1
_geom_bond_atom_site_label_2
_geom_bond_distance
_ccdc_geom_bond_type
C48   O12   1.221104 D    
C43   C44   1.223961 T    
C47   O11   1.220900 D    
C57   H21   1.085194 S    
C31   C32   1.199374 T    
C41   C43   1.481304 S    
C6    C50   1.493378 S    
C54   H12   1.111662 S    
O3    C2    1.302324 A    
C66   H30   1.065266 S    
C12   C45   1.488396 S    
C58   O22   1.220619 D    
C56   H18   1.113343 S    
C29   C31   1.434943 S    
C21   C30   1.399289 A    
C15   C18   1.420607 A    
C5    C9    1.417603 A    
C39   C67   1.490407 S    
C16   C17   1.414862 A    
C7    C13   1.420273 A    
C8    C14   1.422778 A    
C22   C26   1.410613 A    
C26   C27   1.432711 A    
C9    C11   1.419086 A    
C14   C16   1.402728 A    
C38   N2    1.385676 A    
C52   O16   1.220230 D    
C5    C15   1.421645 A    
C19   C23   1.407666 A    
C62   H26   1.081584 S    
C9    C48   1.488155 S    
C46   O10   1.221169 D    
C22   C29   1.395384 A    
C49   O13   1.221321 D    
O7    Cu1   1.951724 S    
C60   H24   1.076111 S    
Cu1   N1    2.001144 S    
C33   C41   1.404818 A    
Cu2   N2    2.001144 S    
C39   N1    1.388874 A    
C40   N2    1.385170 A    
C59   H23   1.076977 S    
C13   C17   1.414884 A    
C20   O18   1.387834 S    
O3    Cu1   1.950992 S    
C6    C10   1.417734 A    
C35   C63   1.486685 S    
C30   C32   1.435336 S    
C48   H4    1.084577 S    
C35   C41   1.406180 A    
C57   O21   1.219521 D    
C8    C12   1.423673 A    
Cu1   Cu2   2.664441 S    
C59   O23   1.220772 D    
C36   C42   1.409784 A    
O2    C2    1.301167 A    
C58   H22   1.079702 S    
C56   H19   1.113121 S    
C37   C65   1.488699 S    
C60   O24   1.221453 D    
C63   O27   1.221222 D    
C6    C16   1.419875 A    
C5    C49   1.493643 S    
C42   C44   1.481532 S    
C20   C24   1.406956 A    
C4    C17   1.491725 S    
C25   C28   1.434524 A    
C25   C59   1.486859 S    
C11   C46   1.490205 S    
C50   O14   1.219670 D    
C40   C68   1.476263 S    
O19   C55   1.411255 S    
O18   C54   1.412571 S    
C50   H6    1.085262 S    
C68   O32   1.219185 D    
O17   C53   1.411621 S    
C55   H17   1.109180 S    
C23   C27   1.433517 A    
C46   H2    1.083838 S    
O5    C3    1.301273 A    
C51   H7    1.082263 S    
C19   O17   1.387148 S    
C38   C66   1.486950 S    
C35   C39   1.431425 A    
O6    C4    1.298128 A    
O20   C56   1.410066 S    
C19   C29   1.394907 A    
C55   H16   1.111967 S    
C2    C27   1.510546 S    
C20   C30   1.396183 A    
C51   O15   1.221056 D    
C8    C52   1.486041 S    
C22   O20   1.385840 S    
C10   C12   1.417834 A    
C53   H10   1.112236 S    
C54   H13   1.111925 S    
O8    Cu2   1.951726 S    
C65   H29   1.069798 S    
C23   C57   1.474355 S    
O1    Cu1   1.947718 S    
C64   O28   1.220231 D    
C67   H31   1.072312 S    
O1    C1    1.297402 A    
C56   H20   1.109195 S    
C65   O29   1.219912 D    
C61   H25   1.084452 S    
O6    Cu2   1.940578 S    
C24   C28   1.426303 A    
C14   C18   1.426875 A    
O4    C1    1.307351 A    
C67   O31   1.220146 D    
C66   O30   1.219978 D    
C37   N1    1.388848 A    
C63   H27   1.081084 S    
C68   H32   1.080034 S    
C53   H11   1.109185 S    
C36   C40   1.432179 A    
C21   O19   1.385768 S    
C10   C47   1.485797 S    
C33   C61   1.488926 S    
C26   C60   1.482178 S    
C52   H8    1.084841 S    
C45   H1    1.084866 S    
C3    C18   1.495443 S    
C55   H15   1.113822 S    
C62   O26   1.221057 D    
C21   C25   1.413174 A    
C13   C15   1.401924 A    
O4    Cu2   1.950995 S    
C49   H5    1.079948 S    
O2    Cu2   1.947715 S    
O7    C4    1.296723 A    
C24   C58   1.470058 S    
C45   O9    1.220965 D    
O8    C3    1.294973 A    
C47   H3    1.084844 S    
C34   C42   1.405513 A    
O5    Cu1   1.940580 S    
C34   C62   1.485676 S    
C53   H9    1.112395 S    
C54   H14   1.109210 S    
C7    C51   1.488568 S    
C36   C64   1.494085 S    
C64   H28   1.084083 S    
C1    C28   1.513182 S    
C33   C37   1.432395 A    
C34   C38   1.429547 A    
C61   O25   1.221354 D    
C7    C11   1.417086 A    
