data_mof_unit_44671.cif
_audit_creation_date              2012-12-11T15:55:48-0500
_audit_creation_method            fapswitch 2.2
_symmetry_space_group_name_H-M    P1
_symmetry_Int_Tables_number       1
_space_group_crystal_system       triclinic
_cell_length_a                    6.937417
_cell_length_b                    14.535975
_cell_length_c                    16.091535
_cell_angle_alpha                 89.971173
_cell_angle_beta                  90.06255
_cell_angle_gamma                 89.95562
_cell_volume                      1622.70284484

loop_
_atom_site_label
_atom_site_type_symbol
_atom_type_description
_atom_site_fract_x
_atom_site_fract_y
_atom_site_fract_z
_atom_type_partial_charge
O1    O     O_R   0.505680 0.583900 0.413320 -0.534723
O2    O     O_R   0.176010 0.594950 0.586080 -0.539659
O3    O     O_R   0.005680 0.416100 0.586680 -0.543610
C1    C     C_R   0.345083 0.617288 0.614937 0.692688
O4    O     O_R   0.175960 0.594930 0.413930 -0.515044
O5    O     O_R   0.005640 0.416080 0.413300 -0.543707
C2    C     C_R   0.344519 0.618800 0.386220 0.740225
O6    O     O_R   0.505720 0.583920 0.586700 -0.542856
O7    O     O_3   0.339190 0.441320 0.500000 -0.379120
V1    V     V_3+5 0.064350 0.510890 0.500000 1.475493
O8    O     O_R   0.675920 0.405050 0.413920 -0.546905
C3    C     C_R   0.844959 0.382772 0.385010 0.684470
O9    O     O_R   0.675960 0.405070 0.586070 -0.543782
C4    C     C_R   0.844806 0.382966 0.614849 0.692400
V2    V     V_3+5 0.564340 0.489110 0.500000 1.438973
O10   O     O_3   0.839370 0.558680 0.500000 -0.345751
C5    C     C_R   0.004070 0.249134 0.687260 0.075538
C6    C     C_R   0.852588 0.312616 0.681511 -0.104594
C7    C     C_R   0.702945 0.304939 0.740291 -0.160805
H1    H     H_    0.581967 0.351766 0.738019 0.113581
C8    C     C_R   0.714865 0.241222 0.806271 -0.125486
H2    H     H_    0.602058 0.240351 0.852595 0.123316
C9    C     C_R   0.876550 0.183259 0.815282 -0.140852
C10   C     C_R   0.015453 0.185982 0.752249 0.132745
C11   C     C_3   0.228815 0.195300 0.757979 0.107665
C12   C     C_3   0.216459 0.264216 0.686817 -0.425209
H3    H     H_    0.275483 0.225999 0.817888 0.088038
H4    H     H_    0.284055 0.240312 0.628076 0.214807
H5    H     H_    0.254522 0.335517 0.705464 0.134558
C13   C     C_R   0.046831 0.224477 0.217754 -0.151091
H6    H     H_    0.187527 0.205901 0.193990 0.115142
C14   C     C_R   0.035675 0.288032 0.282974 -0.144706
H7    H     H_    0.168354 0.316603 0.307257 0.116440
C15   C     C_R   0.856147 0.314388 0.316202 -0.045440
C16   C     C_R   0.688099 0.275373 0.282324 -0.149461
H8    H     H_    0.547404 0.293942 0.306093 0.116676
C17   C     C_R   0.699255 0.211816 0.217105 -0.143455
H9    H     H_    0.566578 0.183238 0.192827 0.118578
C18   C     C_R   0.878778 0.185493 0.183851 -0.043240
C19   C     C_R   0.188254 0.725459 0.716891 -0.137773
H10   H     H_    0.047644 0.707382 0.692656 0.122247
C20   C     C_R   0.199335 0.789027 0.782096 -0.123253
H11   H     H_    0.066719 0.818131 0.805896 0.122339
C21   C     C_R   0.378727 0.814664 0.815965 -0.037904
C22   C     C_R   0.546766 0.775200 0.782547 -0.136227
H12   H     H_    0.687383 0.793326 0.806744 0.115552
C23   C     C_R   0.535692 0.711638 0.717339 -0.137527
H13   H     H_    0.668329 0.682602 0.693494 0.119400
C24   C     C_R   0.356265 0.685792 0.683629 -0.046499
C25   C     C_R   0.201344 0.751415 0.302003 0.263599
C26   C     C_R   0.214662 0.812991 0.235271 -0.168156
H14   H     H_    0.096596 0.860270 0.224144 0.152922
C27   C     C_R   0.379330 0.816081 0.184699 -0.098270
C28   C     C_R   0.532433 0.755937 0.202160 -0.133289
H15   H     H_    0.661721 0.756781 0.164494 0.130218
C29   C     C_R   0.519045 0.692658 0.267542 -0.147793
H16   H     H_    0.638487 0.645992 0.277875 0.152084
C30   C     C_R   0.353741 0.688670 0.318288 -0.107749
O11   O     O_R   0.229200 0.915950 0.913350 -0.536115
O12   O     O_R   0.559090 0.905000 0.086080 -0.543624
O13   O     O_R   0.729280 0.083880 0.086680 -0.543622
C31   C     C_R   0.390329 0.883062 0.115112 0.693352
O14   O     O_R   0.558920 0.904980 0.913920 -0.542413
O15   O     O_R   0.729110 0.083860 0.913300 -0.524602
C32   C     C_R   0.389862 0.882772 0.884966 0.737189
O16   O     O_R   0.229360 0.915970 0.086730 -0.544473
O17   O     O_3   0.395680 0.058580 0.000030 -0.368758
V3    V     V_3+5 0.670570 0.989070 0.999990 1.439989
O18   O     O_R   0.058820 0.094950 0.913870 -0.536356
C33   C     C_R   0.889642 0.117114 0.885213 0.729117
O19   O     O_R   0.058990 0.094970 0.086020 -0.547972
C34   C     C_R   0.889960 0.117175 0.114986 0.675887
V4    V     V_3+5 0.170560 0.010930 0.999930 1.436453
O20   O     O_3   0.895590 0.941310 0.999960 -0.375448
Br1   Br    Br    0.975341 0.762636 0.370404 -0.541486
Br2   Br    Br    0.357619 0.081465 0.727878 -0.522874

loop_
_geom_bond_atom_site_label_1
_geom_bond_atom_site_label_2
_ccdc_geom_bond_type
O14   C32   A    
V4    O20   S    
C4    C6    S    
C7    H1    S    
C1    O6    A    
C23   C24   A    
C27   C28   A    
C5    C12   S    
O15   V3    S    
C7    C8    A    
C6    C7    A    
O5    C3    A    
C13   H6    S    
V3    O20   S    
V2    O10   S    
C29   H16   S    
O12   C31   A    
C15   C16   A    
O14   V3    S    
O8    V2    S    
C16   H8    S    
C18   C34   S    
O18   V4    S    
O17   V4    S    
O15   C33   A    
O7    V1    S    
O11   V4    S    
C2    C30   S    
C19   C20   A    
O9    C4    A    
C9    C33   S    
C21   C32   S    
C20   C21   A    
C25   C26   A    
C22   C23   A    
C28   C29   A    
C5    C10   A    
C31   O16   A    
C26   H14   S    
C25   C30   A    
C10   C11   S    
O19   V4    S    
C11   C12   S    
C22   H12   S    
O16   V4    S    
O17   V3    S    
C26   C27   A    
C14   C15   A    
O2    C1    A    
C17   H9    S    
C27   C31   S    
C23   H13   S    
C9    C10   A    
C5    C6    A    
O3    C4    A    
O1    V2    S    
O13   C34   A    
C19   H10   S    
O6    V2    S    
O9    V2    S    
C20   H11   S    
C3    C15   S    
O2    V1    S    
C21   C22   A    
O4    C2    A    
C28   H15   S    
C16   C17   A    
O1    C2    A    
O5    V1    S    
O8    C3    A    
C11   H3    S    
C12   H4    S    
C1    C24   S    
C11   Br2   S    
C14   H7    S    
C8    C9    A    
O7    V2    S    
O4    V1    S    
C17   C18   A    
O3    V1    S    
V1    O10   S    
C25   Br1   S    
O11   C32   A    
C13   C14   A    
O13   V3    S    
C29   C30   A    
C13   C18   A    
O18   C33   A    
O19   C34   A    
O12   V3    S    
C12   H5    S    
C8    H2    S    
C19   C24   A    
