data_mof_unit_55091.cif
_audit_creation_date              2012-10-26T20:58:19-0400
_audit_creation_method            fapswitch 2.2
_symmetry_space_group_name_H-M    P1
_symmetry_Int_Tables_number       1
_space_group_crystal_system       triclinic
_cell_length_a                    10.613926
_cell_length_b                    14.70321
_cell_length_c                    14.718273
_cell_angle_alpha                 65.221821
_cell_angle_beta                  103.068618
_cell_angle_gamma                 102.658701
_cell_volume                      2011.25400181

loop_
_atom_site_label
_atom_site_type_symbol
_atom_type_description
_atom_site_fract_x
_atom_site_fract_y
_atom_site_fract_z
_atom_type_partial_charge
C1    C     C_R   0.478642 0.119599 0.312394 0.546046
C2    C     C_R   0.524292 0.533628 0.950223 0.040637
C3    C     C_R   0.517371 0.491424 0.878260 -0.095164
C4    C     C_R   0.544599 0.510140 0.127127 -0.096932
C5    C     C_R   0.501592 0.387681 0.905527 -0.078957
C6    C     C_R   0.563292 0.613995 0.099959 -0.082870
C7    C     C_R   0.713170 0.280325 0.673164 0.380792
C8    C     C_R   0.289992 0.720633 0.325174 0.382125
C9    C     C_R   0.680433 0.200830 0.640611 0.070943
C10   C     C_R   0.320454 0.799311 0.358851 0.071357
C11   C     C_R   0.521781 0.286532 0.508640 0.010030
C12   C     C_R   0.522293 0.880369 0.687654 0.546807
C13   C     C_R   0.479263 0.713985 0.490963 0.010844
C14   C     C_R   0.551961 0.372005 0.535776 -0.079744
C15   C     C_R   0.451915 0.629525 0.462366 -0.079787
C16   C     C_R   0.259569 0.000546 0.500067 0.556840
C17   C     C_R   0.740426 0.999455 0.499927 0.556072
C18   C     C_R   0.648007 0.366672 0.622235 0.050279
C19   C     C_R   0.356883 0.635151 0.375279 0.050052
C20   C     C_R   0.488434 0.460852 0.481190 -0.020266
C21   C     C_R   0.516985 0.541336 0.516170 -0.018760
C22   C     C_R   0.609163 0.530915 0.604268 -0.120537
C23   C     C_R   0.486252 0.291344 0.178956 -0.115574
C24   C     C_R   0.398689 0.472249 0.391753 -0.118759
C25   C     C_R   0.674624 0.446897 0.655722 0.257432
C26   C     C_R   0.333268 0.556255 0.340145 0.263507
C27   C     C_3   0.016853 0.010691 0.408117 -0.121670
C28   C     C_3   0.983124 0.989305 0.591869 -0.120933
C29   C     C_3   0.962052 0.087393 0.429997 -0.117069
C30   C     C_3   0.037924 0.912604 0.569988 -0.116410
C31   C     C_3   0.877078 0.998755 0.499696 0.035707
C32   C     C_3   0.122903 0.001244 0.500291 0.035715
C33   C     C_3   0.929562 0.922008 0.477805 -0.107559
C34   C     C_R   0.523006 0.708499 0.821156 -0.118733
C35   C     C_3   0.070413 0.077990 0.522181 -0.107143
C36   C     C_R   0.474298 0.187138 0.205217 -0.001446
C37   C     C_R   0.537000 0.812828 0.795201 -0.001651
C38   C     C_R   0.474033 0.217091 0.030735 -0.104783
C39   C     C_R   0.572898 0.784118 0.972684 -0.102345
C40   C     C_R   0.466752 0.150024 0.130495 -0.122546
C41   C     C_R   0.563581 0.850580 0.871491 -0.121694
C42   C     C_R   0.500131 0.360845 0.079997 0.039706
C43   C     C_R   0.536005 0.639984 0.922631 0.040370
C44   C     C_R   0.491477 0.321896 0.005086 0.057765
C45   C     C_R   0.557738 0.679361 0.998714 0.062074
C46   C     C_R   0.521938 0.467462 0.053551 0.042908
Cl1   Cl    Cl    0.787298 0.447288 0.764226 -0.500335
Cl2   Cl    Cl    0.225330 0.557965 0.228968 -0.489846
Cu1   Cu    Cu3+1 0.465750 0.918270 0.475680 0.943640
Cu2   Cu    Cu3+1 0.534250 0.081730 0.524320 0.943600
F1    F     F_    0.807920 0.270659 0.754422 -0.576028
F2    F     F_    0.195625 0.730167 0.243702 -0.575630
H1    H     H_    0.927672 0.158752 0.372652 0.138980
H2    H     H_    0.965966 0.980389 0.667014 0.131620
H3    H     H_    0.869222 0.858111 0.459701 0.139409
H4    H     H_    0.130746 0.141886 0.540289 0.139976
H5    H     H_    0.497294 0.358763 0.847972 0.139652
H6    H     H_    0.580712 0.643293 0.158837 0.129098
H7    H     H_    0.498077 0.682309 0.760391 0.122783
H8    H     H_    0.483737 0.316135 0.237553 0.120688
H9    H     H_    0.574937 0.931116 0.853009 0.141325
H10   H     H_    0.457251 0.069532 0.149322 0.141687
H11   H     H_    0.468195 0.187075 0.973813 0.128189
H12   H     H_    0.072284 0.841238 0.627332 0.140239
H13   H     H_    0.590948 0.814571 0.030688 0.126339
H14   H     H_    0.527825 0.536413 0.800196 0.113859
H15   H     H_    0.552238 0.465748 0.207261 0.109889
H16   H     H_    0.554039 0.718697 0.552283 0.136544
H17   H     H_    0.445448 0.281511 0.448264 0.136572
H18   H     H_    0.270614 0.865225 0.319224 0.152098
H19   H     H_    0.729476 0.134522 0.680538 0.151305
H20   H     H_    0.633170 0.587267 0.636390 0.122315
H21   H     H_    0.377831 0.417144 0.358155 0.124928
H22   H     H_    0.033995 0.019605 0.332970 0.131062
N1    N     N_R   0.585750 0.204560 0.560800 -0.279631
N2    N     N_R   0.414250 0.795440 0.439200 -0.279909
O1    O     O_R   0.454850 0.022100 0.338110 -0.508935
O2    O     O_R   0.545150 0.977900 0.661890 -0.509016
O3    O     O_R   0.512700 0.160150 0.379180 -0.508383
O4    O     O_R   0.487300 0.839850 0.620820 -0.508656
O5    O     O_R   0.287930 0.931000 0.479440 -0.498486
O6    O     O_R   0.712070 0.069000 0.520560 -0.499045
O7    O     O_R   0.345780 0.069050 0.520520 -0.503871
O8    O     O_R   0.654220 0.930950 0.479480 -0.504705

loop_
_geom_bond_atom_site_label_1
_geom_bond_atom_site_label_2
_ccdc_geom_bond_type
C33   H3    S    
C30   C32   S    
C6    C45   A    
C30   H12   S    
C27   C29   S    
C34   C37   A    
C1    O1    A    
C6    H6    S    
C41   H9    S    
Cu2   O3    S    
C39   C41   A    
C4    C46   A    
C27   C33   S    
C15   C19   A    
C23   C42   A    
Cu1   O8    S    
C24   C26   A    
C11   C14   A    
C24   H21   S    
C40   H10   S    
C17   O6    A    
C42   C46   A    
Cu1   O5    S    
C12   C37   S    
C19   C26   A    
C14   C18   A    
C10   N2    A    
C20   C24   A    
C28   C35   S    
C22   C25   A    
C12   O2    A    
C31   C33   S    
C27   H22   S    
C8    F2    S    
C26   Cl2   S    
C39   C45   A    
C35   H4    S    
C21   C22   A    
C39   H13   S    
C18   C25   A    
C42   C44   A    
Cu2   O2    S    
C22   H20   S    
Cu2   O7    S    
C23   H8    S    
C8    C19   A    
C32   C35   S    
C14   C20   A    
C36   C40   A    
C4    C6    A    
C28   H2    S    
C16   O7    A    
C2    C46   A    
C38   C44   A    
C13   N2    A    
C2    C43   A    
C7    C18   A    
Cu1   N2    S    
C43   C45   A    
C10   H18   S    
C5    C44   A    
C23   C36   A    
C13   C15   A    
C34   H7    S    
C17   C31   S    
C3    H14   S    
Cu2   O6    S    
C38   H11   S    
C7    C9    A    
C25   Cl1   S    
C30   C33   S    
C27   C32   S    
C28   C31   S    
C34   C43   A    
C9    H19   S    
C3    C5    A    
C4    H15   S    
C11   H17   S    
C16   C32   S    
C29   C35   S    
Cu1   O4    S    
C5    H5    S    
C17   O8    A    
C28   C30   S    
C2    C3    A    
C7    F1    S    
C29   C31   S    
C11   N1    A    
Cu2   N1    S    
C38   C40   A    
C29   H1    S    
C1    O3    A    
C12   O4    A    
C16   O5    A    
Cu1   O1    S    
C37   C41   A    
C15   C21   A    
C20   C21   A    
C8    C10   A    
Cu1   Cu2   S    
C9    N1    A    
C1    C36   S    
C13   H16   S    
