data_mof_unit_64090.cif
_audit_creation_date              2012-10-26T20:23:39-0400
_audit_creation_method            fapswitch 2.2
_symmetry_space_group_name_H-M    P1
_symmetry_Int_Tables_number       1
_space_group_crystal_system       triclinic
_cell_length_a                    12.761939
_cell_length_b                    13.910037
_cell_length_c                    15.882053
_cell_angle_alpha                 90.219806
_cell_angle_beta                  92.710711
_cell_angle_gamma                 98.014982
_cell_volume                      2788.54731032

loop_
_atom_site_label
_atom_site_type_symbol
_atom_type_description
_atom_site_fract_x
_atom_site_fract_y
_atom_site_fract_z
_atom_type_partial_charge
C1    C     C_R   0.483516 0.315867 0.499121 0.544410
C2    C     C_1   0.145565 0.480761 0.482789 0.282696
C3    C     C_R   0.500729 0.500013 0.339559 0.545204
C4    C     C_R   0.499271 0.499987 0.660441 0.545204
C5    C     C_3   0.442849 0.416784 0.970086 -0.123382
C6    C     C_3   0.557151 0.583216 0.029914 -0.123382
C7    C     C_3   0.544607 0.423172 0.028870 -0.121616
C8    C     C_3   0.455393 0.576828 0.971130 -0.121616
C9    C     C_1   0.502206 0.500097 0.249991 0.039027
C10   C     C_1   0.497793 0.499903 0.750009 0.039027
C11   C     C_3   0.402096 0.493835 0.025265 0.425458
C12   C     C_R   0.516484 0.684132 0.500879 0.544410
C13   C     C_3   0.597904 0.506165 0.974735 0.425458
C14   C     C_3   0.502247 0.500121 0.082952 -0.013304
C15   C     C_3   0.497753 0.499879 0.917048 -0.013304
C16   C     C_1   0.502617 0.500126 0.174528 0.033100
C17   C     C_1   0.497383 0.499874 0.825472 0.033100
C18   C     C_1   0.525976 0.787424 0.501405 0.028436
C19   C     C_1   0.474024 0.212576 0.498595 0.028436
C20   C     C_2   0.543529 0.978269 0.502390 0.393470
C21   C     C_2   0.456471 0.021731 0.497610 0.393470
C22   C     C_1   0.465504 0.125558 0.498119 0.088001
C23   C     C_1   0.534496 0.874442 0.501881 0.088001
C24   C     C_2   0.028571 0.473438 0.475843 0.199618
C25   C     C_2   0.971429 0.526562 0.524157 0.199618
C26   C     C_1   0.854435 0.519239 0.517211 0.282696
Cl1   Cl    Cl    0.037018 0.609389 0.599952 -0.500819
Cl2   Cl    Cl    0.962982 0.390611 0.400048 -0.500819
Cu1   Cu    Cu3+1 0.395330 0.493960 0.494680 1.105978
Cu2   Cu    Cu3+1 0.604670 0.506040 0.505320 1.105978
F1    F     F_    0.699637 0.512572 0.946899 -0.556928
F2    F     F_    0.300362 0.487428 0.053101 -0.556927
F3    F     F_    0.358283 0.968773 0.492203 -0.600849
F4    F     F_    0.641717 0.031227 0.507797 -0.600849
H1    H     H_    0.582446 0.361033 0.053314 0.165749
H2    H     H_    0.417554 0.638967 0.946686 0.165749
H3    H     H_    0.394845 0.349255 0.944797 0.163305
H4    H     H_    0.605154 0.650744 0.055203 0.163305
N1    N     N_1   0.238040 0.484880 0.486690 -0.164634
N2    N     N_1   0.761960 0.515120 0.513310 -0.164634
O1    O     O_R   0.399110 0.356330 0.494860 -0.487700
O2    O     O_R   0.600890 0.643670 0.505140 -0.487700
O3    O     O_R   0.575890 0.366540 0.503840 -0.476409
O4    O     O_R   0.424110 0.633460 0.496160 -0.476408
O5    O     O_R   0.411620 0.494890 0.374590 -0.479310
O6    O     O_R   0.588380 0.505110 0.625410 -0.479310
O7    O     O_R   0.588400 0.505100 0.383570 -0.489504
O8    O     O_R   0.411600 0.494900 0.616430 -0.489504

loop_
_geom_bond_atom_site_label_1
_geom_bond_atom_site_label_2
_ccdc_geom_bond_type
C6    C8    S    
C6    H4    S    
Cu1   Cu2   S    
C3    C9    S    
C5    H3    S    
C6    C14   S    
C1    O3    A    
C20   C23   S    
C20   F4    S    
Cu1   N1    S    
C12   C18   S    
Cu2   N2    S    
C12   O4    A    
C4    O6    A    
C21   C22   S    
C20   C21   D    
C6    C13   S    
C26   N2    T    
C8    C11   S    
C3    O7    A    
C9    C16   T    
C3    O5    A    
C11   F2    S    
C5    C11   S    
C8    C15   S    
C5    C7    S    
C13   C15   S    
Cu1   O4    S    
C2    C24   S    
C11   C14   S    
C14   C16   S    
Cu2   O3    S    
C5    C15   S    
C25   Cl1   S    
Cu1   O8    S    
C4    C10   S    
C18   C23   T    
Cu2   O7    S    
C7    C13   S    
C19   C22   T    
C21   F3    S    
C24   C25   D    
C4    O8    A    
C8    H2    S    
C1    O1    A    
C15   C17   S    
C13   F1    S    
Cu2   O2    S    
C12   O2    A    
C10   C17   T    
Cu1   O1    S    
C25   C26   S    
C1    C19   S    
C7    H1    S    
C2    N1    T    
Cu2   O6    S    
C7    C14   S    
C24   Cl2   S    
Cu1   O5    S    
