data_mof_unit_46064.cif
_audit_creation_date              2013-03-05T15:52:27-0500
_audit_creation_method            fapswitch 2.2
_symmetry_space_group_name_H-M    P1
_symmetry_Int_Tables_number       1
_space_group_crystal_system       triclinic
_cell_length_a                    27.798104
_cell_length_b                    10.850272
_cell_length_c                    9.649306
_cell_angle_alpha                 90.519943
_cell_angle_beta                  89.283376
_cell_angle_gamma                 95.734641
_cell_volume                      2895.51302961

loop_
_atom_site_label
_atom_site_type_symbol
_atom_site_description
_atom_site_fract_x
_atom_site_fract_y
_atom_site_fract_z
_atom_type_partial_charge
O1    O     O_R   0.500000 0.319640 0.618810 -0.613933
O2    O     O_R   0.500000 0.319660 0.381240 -0.537054
C1    C     C_R   0.503739 0.263917 0.499764 0.806908
O3    O     O_R   0.430260 0.500010 0.618770 -0.552755
O4    O     O_R   0.430270 0.500030 0.381200 -0.567327
C2    C     C_R   0.407418 0.499335 0.500858 0.866131
Cu1   Cu    Cu3+1 0.500000 0.499990 0.640660 0.981881
Cu2   Cu    Cu3+1 0.500000 0.500010 0.359340 1.031314
O5    O     O_R   0.500000 0.680340 0.618760 -0.636435
O6    O     O_R   0.500000 0.680360 0.381190 -0.524481
O7    O     O_R   0.569730 0.499970 0.618800 -0.557611
O8    O     O_R   0.569740 0.499990 0.381230 -0.523824
C3    C     C_R   0.497955 0.737377 0.502038 0.803812
C4    C     C_R   0.592548 0.500210 0.499281 0.853824
C5    C     C_R   0.172693 0.396757 0.508661 0.653648
O9    O     O_2   0.193449 0.290216 0.521312 -0.411117
N1    N     N_R   0.201502 0.505233 0.493398 -0.462797
C6    C     C_R   0.182772 0.616007 0.479187 0.630753
C7    C     C_R   0.279762 0.510538 0.370928 0.491948
C8    C     C_R   0.330165 0.508927 0.375138 -0.361068
C9    C     C_R   0.326697 0.491778 0.626780 0.410822
C10   C     C_R   0.276265 0.493504 0.621532 -0.282037
C11   C     C_R   0.253036 0.503035 0.495055 0.267228
C12   C     C_R   0.101684 0.508674 0.488974 -0.159743
C13   C     C_R   0.121951 0.395780 0.509023 -0.109965
C14   C     C_R   0.091287 0.286619 0.536349 0.344263
C15   C     C_R   0.132201 0.621249 0.476722 -0.075406
C16   C     C_R   0.354087 0.499853 0.501905 -0.114017
H1    H     H_    0.254747 0.487702 0.716073 0.165731
C17   C     C_R   0.645887 0.501618 0.495660 -0.135918
C18   C     C_R   0.970942 0.397444 0.449124 0.011706
C19   C     C_R   0.978976 0.622311 0.486453 0.094082
C20   C     C_R   0.949567 0.509253 0.466095 -0.007770
C21   C     C_R   0.942803 0.293440 0.392280 0.418175
C22   C     C_R   0.891919 0.292863 0.383377 0.194946
C23   C     C_R   0.869334 0.397812 0.429774 -0.143818
C24   C     C_R   0.898653 0.508152 0.462471 -0.095127
C25   C     C_R   0.877141 0.618092 0.491533 0.005289
C26   C     C_R   0.826714 0.615305 0.494446 0.591707
N2    N     N_R   0.798710 0.506840 0.470719 -0.457801
C27   C     C_R   0.818513 0.399140 0.440631 0.665096
C28   C     C_R   0.723650 0.494938 0.607276 -0.234741
C29   C     C_R   0.673029 0.492598 0.617709 0.389679
C30   C     C_R   0.670146 0.512645 0.366689 -0.293554
C31   C     C_R   0.720254 0.514850 0.357691 0.324518
C32   C     C_R   0.747123 0.505772 0.478305 0.242648
O10   O     O_2   0.788813 0.294032 0.425691 -0.445618
C33   C     C_R   0.020711 0.395801 0.481905 0.019811
C34   C     C_R   0.050778 0.509101 0.482978 -0.008476
C35   C     C_R   0.029992 0.622796 0.478427 0.033402
C36   C     C_R   0.040647 0.286005 0.520641 0.358423
H2    H     H_    0.745045 0.487819 0.699409 0.170535
O11   O     O_2   0.213451 0.719769 0.468267 -0.448356
C37   C     C_R   0.110828 0.733810 0.463002 0.318192
H3    H     H_    0.350645 0.515191 0.278798 0.197426
C38   C     C_R   0.956340 0.730853 0.514223 -0.184591
C39   C     C_R   0.906301 0.728334 0.517763 -0.104549
O12   O     O_2   0.805675 0.719928 0.521593 -0.495653
C40   C     C_R   0.060748 0.733250 0.465676 -0.224524
H4    H     H_    0.976500 0.818294 0.539102 0.151537
H5    H     H_    0.650275 0.520029 0.271800 0.220257
H6    H     H_    0.890548 0.813615 0.541301 0.201648
H7    H     H_    0.046526 0.821229 0.451840 0.165397
H8    H     H_    0.492163 0.107236 0.282759 0.218687
C41   C     C_R   0.539077 0.132191 0.742558 -0.155768
H9    H     H_    0.557971 0.223956 0.734711 0.197223
C42   C     C_R   0.537099 0.076027 0.871958 0.321054
C43   C     C_R   0.513769 0.957509 0.886423 -0.166548
H10   H     H_    0.509330 0.915883 0.987960 0.159249
C44   C     C_R   0.497021 0.890762 0.769463 -0.208571
H11   H     H_    0.477109 0.802207 0.789035 0.192633
C45   C     C_R   0.503647 0.941723 0.634624 0.096464
C46   C     C_R   0.517650 0.069773 0.625630 0.044406
C47   C     C_R   0.508756 0.131129 0.500908 -0.097584
C48   C     C_R   0.498038 0.062396 0.379997 -0.129898
H12   H     H_    0.488340 0.884582 0.285722 0.173170
C49   C     C_R   0.494331 0.934620 0.382663 -0.179166
C50   C     C_R   0.496779 0.872253 0.508454 -0.106016
C51   C     C_R   0.569534 0.675363 0.133464 0.457879
C52   C     C_R   0.601029 0.753134 0.049865 -0.243856
H13   H     H_    0.627961 0.820346 0.094901 0.182100
C53   C     C_R   0.598765 0.747975 0.909206 -0.225859
H14   H     H_    0.623138 0.809744 0.847049 0.190297
C54   C     C_R   0.565106 0.665436 0.847235 -0.050290
H15   H     H_    0.566432 0.672127 0.738259 0.210056
C55   C     C_R   0.532445 0.582616 0.922628 0.060374
C56   C     C_R   0.533348 0.584502 0.072497 0.081823
N3    N     N_R   0.500460 0.501210 0.147910 -0.242879
C57   C     C_R   0.469386 0.420475 0.074567 0.355949
C58   C     C_R   0.469261 0.419880 0.928154 0.471820
N4    N     N_R   0.500480 0.501290 0.852040 -0.271123
O13   O     O_3   0.349455 0.482010 0.752143 -0.682535
H16   H     H_    0.324988 0.477100 0.828108 0.339001
O14   O     O_3   0.255736 0.518971 0.247522 -0.684366
H17   H     H_    0.279609 0.523310 0.170044 0.333038
Br1   Br    Br    0.145810 0.895187 0.440552 -0.301950
Br2   Br    Br    0.751112 0.531458 0.179153 -0.424811
Br3   Br    Br    0.563732 0.164446 0.029911 -0.510339
Br4   Br    Br    0.423992 0.302405 0.166908 -0.400055
O15   O     O_3   0.575528 0.691923 0.272814 -0.697628
H18   H     H_    0.601663 0.757936 0.295417 0.306732
O16   O     O_3   0.436531 0.333083 0.866869 -0.667113
H19   H     H_    0.437619 0.343272 0.766617 0.391425
O17   O     O_3   0.111243 0.183408 0.583720 -0.630367
H20   H     H_    0.088711 0.139955 0.651657 0.341958
O18   O     O_3   0.649826 0.480730 0.745068 -0.693564
H21   H     H_    0.674182 0.476350 0.818632 0.351361
Br5   Br    Br    0.855885 0.155877 0.287701 -0.343831
O19   O     O_3   0.966625 0.201727 0.329012 -0.676980
H22   H     H_    0.945896 0.122288 0.332362 0.365458
O20   O     O_3   0.009908 0.182799 0.556019 -0.707203
H23   H     H_    0.025317 0.107779 0.527909 0.343474

loop_
_geom_bond_atom_site_label_1
_geom_bond_atom_site_label_2
_geom_bond_distance
_ccdc_geom_bond_type
C56   N3    1.418543 A    
C10   H1    1.083429 S    
C46   C47   1.416886 A    
C7    C8    1.404067 A    
C12   C15   1.420785 A    
C51   C56   1.461490 A    
C15   C37   1.418465 A    
C39   H6    1.083632 S    
C49   C50   1.400715 A    
Cu1   O7    1.947202 S    
N1    C11   1.435419 S    
C57   Br4   1.922757 S    
C35   C40   1.406304 A    
C23   C24   1.414817 A    
C54   C55   1.411871 A    
C55   N4    1.371008 A    
O3    Cu1   1.952761 S    
O4    C2    1.310566 A    
O7    C4    1.309128 A    
C5    C13   1.409484 A    
O18   H21   0.991766 S    
C5    O9    1.349709 S    
C41   C46   1.417301 A    
C38   C39   1.388495 A    
Cu1   O5    1.970129 S    
C21   C22   1.417560 A    
C28   C32   1.398336 A    
C1    C47   1.461482 S    
O5    C3    1.294614 A    
C58   O16   1.377149 S    
C45   C50   1.430806 A    
C22   Br5   1.940502 S    
C6    O11   1.346833 S    
C14   O17   1.382249 S    
C33   C36   1.418193 A    
C2    C16   1.482986 S    
O20   H23   0.991151 S    
C43   H10   1.083053 S    
C41   C42   1.392418 A    
C21   O19   1.382745 S    
C18   C20   1.410545 A    
C44   H11   1.076881 S    
C37   Br1   1.928690 S    
C42   Br3   1.910829 S    
C9    C10   1.405462 A    
C17   C30   1.408330 A    
C23   C27   1.416799 A    
O14   H17   0.991727 S    
C4    C17   1.481261 S    
C8    H3    1.083085 S    
O17   H20   0.990289 S    
C37   C40   1.391441 A    
C47   C48   1.398083 A    
C42   C43   1.388558 A    
C51   O15   1.365032 S    
Cu1   Cu2   2.714545 S    
C12   C13   1.414288 A    
C52   C53   1.359889 A    
C26   N2    1.363808 A    
C55   C56   1.446588 A    
C45   C46   1.408079 A    
C8    C16   1.408465 A    
C13   C14   1.413245 A    
C31   C32   1.400218 A    
C26   O12   1.350101 S    
C53   H14   1.083675 S    
C20   C24   1.415036 A    
C38   H4    1.079269 S    
O1    C1    1.301099 A    
C29   O18   1.381779 S    
C7    C11   1.400205 A    
C24   C25   1.411211 A    
C25   C39   1.399213 A    
Cu2   O8    1.952756 S    
Cu1   N4    2.039793 S    
N1    C6    1.365402 A    
C27   O10   1.347155 S    
C18   C21   1.417471 A    
C54   H15   1.054638 S    
C48   C49   1.380372 A    
C19   C35   1.418781 A    
C7    O14   1.380751 S    
O3    C2    1.309477 A    
N2    C27   1.367949 A    
C9    C16   1.415966 A    
O8    C4    1.310444 A    
C41   H9    1.081120 S    
C53   C54   1.368167 A    
C18   C33   1.424912 A    
C17   C29   1.415931 A    
C28   C29   1.407199 A    
N2    C32   1.433856 S    
C30   C31   1.392353 A    
C12   C34   1.417456 A    
C5    N1    1.363887 A    
C3    C50   1.467804 S    
C33   C34   1.415852 A    
C36   O20   1.381689 S    
O1    Cu1   1.966269 S    
O2    Cu2   1.970129 S    
C6    C15   1.413123 A    
C52   H13   1.083716 S    
O6    C3    1.318341 A    
O4    Cu2   1.947205 S    
C44   C45   1.421005 A    
C30   H5    1.082919 S    
C40   H7    1.079086 S    
C19   C20   1.418082 A    
O2    C1    1.308702 A    
C31   Br2   1.916769 S    
C14   C36   1.417058 A    
H12   C49   1.083575 S    
C58   N4    1.383985 A    
C25   C26   1.398988 A    
O13   H16   0.991818 S    
H8    C48   1.082480 S    
O16   H19   0.974401 S    
C51   C52   1.405814 A    
N3    C57   1.366449 A    
Cu2   O6    1.966269 S    
C34   C35   1.414819 A    
C43   C44   1.394938 A    
C10   C11   1.397283 A    
O15   H18   0.992742 S    
C22   C23   1.420522 A    
Cu2   N3    2.040184 S    
C57   C58   1.412791 A    
O19   H22   0.988330 S    
C19   C38   1.411695 A    
C28   H2    1.083369 S    
C9    O13   1.381886 S    
