data_mof_unit_37282.cif
_audit_creation_date              2012-12-10T20:31:08-0500
_audit_creation_method            fapswitch 2.2
_symmetry_space_group_name_H-M    P1
_symmetry_Int_Tables_number       1
_space_group_crystal_system       triclinic
_cell_length_a                    14.925558
_cell_length_b                    10.680622
_cell_length_c                    9.917013
_cell_angle_alpha                 90.33797
_cell_angle_beta                  91.767128
_cell_angle_gamma                 89.929144
_cell_volume                      1580.1328959

loop_
_atom_site_label
_atom_site_type_symbol
_atom_type_description
_atom_site_fract_x
_atom_site_fract_y
_atom_site_fract_z
_atom_type_partial_charge
C1    C     C_R   0.500121 0.260158 0.500026 0.869330
C2    C     C_R   0.184645 0.391691 0.422579 0.102934
C3    C     C_R   0.231766 0.486597 0.495208 -0.106052
C4    C     C_R   0.327293 0.494127 0.498175 0.892642
C5    C     C_R   0.188510 0.574762 0.573762 -0.308760
C6    C     C_R   0.504474 0.064916 0.624163 -0.041536
C7    C     C_R   0.509475 0.128357 0.501926 -0.076065
C8    C     C_R   0.531844 0.064056 0.383966 -0.219687
C9    C     C_R   0.534228 0.934904 0.384525 -0.206808
C10   C     C_R   0.515049 0.871425 0.503406 -0.134378
C11   C     C_R   0.510250 0.936811 0.625165 -0.049338
C12   C     C_R   0.910455 0.581634 0.585600 0.029533
C13   C     C_3   0.444231 0.925984 0.736093 0.380718
C14   C     C_3   0.433685 0.068737 0.729799 -0.126369
C15   C     C_R   0.428400 0.544412 0.067775 0.216655
C16   C     C_R   0.502528 0.739805 0.500659 0.860338
C17   C     C_R   0.572471 0.460774 0.078184 -0.179989
C18   C     C_R   0.575260 0.464040 0.935715 0.141350
C19   C     C_R   0.428148 0.543805 0.925708 0.226117
C20   C     C_3   0.334430 0.495763 0.915930 -0.492139
C21   C     C_3   0.334740 0.496095 0.068973 -0.505883
C22   C     C_R   0.672838 0.500958 0.501762 0.915630
C23   C     C_R   0.944553 0.317170 0.344758 -0.213565
C24   C     C_R   0.817100 0.588910 0.582297 0.409340
C25   C     C_R   0.768305 0.500628 0.504509 -0.174350
C26   C     C_R   0.810230 0.411419 0.425423 -0.342206
C27   C     C_R   0.902561 0.406386 0.424295 0.129772
C28   C     C_R   0.953277 0.491567 0.504022 0.000032
C29   C     C_3   0.740096 0.776230 0.579271 0.084034
C30   C     C_3   0.807423 0.884061 0.573329 -0.381703
C31   C     C_3   0.765697 0.998923 0.505185 -0.940196
C32   C     C_3   0.567040 0.898451 0.900373 0.103758
C33   C     C_3   0.616174 0.775125 0.924300 -0.337903
C34   C     C_R   0.037274 0.311718 0.343189 -0.220639
C35   C     C_3   0.713522 0.796242 0.970216 -0.947755
C36   C     C_3   0.457685 0.148005 0.856621 -0.298114
C37   C     C_3   0.393358 0.125533 0.970884 -0.890157
C38   C     C_3   0.668287 0.440530 0.883212 -0.317534
C39   C     C_3   0.681095 0.309654 0.824374 -0.841120
C40   C     C_3   0.234229 0.282888 0.356633 -0.421888
C41   C     C_3   0.225885 0.162946 0.438548 -0.892483
C42   C     C_R   0.090073 0.395788 0.421603 0.104976
C43   C     C_R   0.046796 0.487074 0.501775 0.042843
C44   C     C_R   0.096720 0.574272 0.580047 0.131282
C45   C     C_R   0.054448 0.660798 0.663165 -0.234654
C46   C     C_R   0.961836 0.663506 0.667241 -0.197614
H1    H     H_    0.545677 0.885574 0.290811 0.169798
H2    H     H_    0.905567 0.251487 0.283350 0.144153
H3    H     H_    0.066107 0.241549 0.278834 0.159260
H4    H     H_    0.227127 0.644413 0.630747 0.150510
H5    H     H_    0.093101 0.726596 0.724882 0.145170
H6    H     H_    0.930854 0.730801 0.733261 0.182874
H7    H     H_    0.542627 0.112469 0.290138 0.165870
H8    H     H_    0.679228 0.811739 0.627866 0.177923
H9    H     H_    0.719052 0.746618 0.474999 0.116574
H10   H     H_    0.830486 0.910380 0.677249 0.222132
H11   H     H_    0.866368 0.853686 0.515713 0.221507
H12   H     H_    0.382015 0.877248 0.700352 0.072771
H13   H     H_    0.741542 0.975241 0.401079 0.265528
H14   H     H_    0.816603 0.074336 0.499804 0.263804
H15   H     H_    0.708729 0.034310 0.564064 0.272451
H16   H     H_    0.567296 0.950140 0.997961 0.145644
H17   H     H_    0.605141 0.956015 0.829128 0.128723
H18   H     H_    0.581766 0.722324 0.003606 0.219695
H19   H     H_    0.614211 0.719238 0.829663 0.254691
H20   H     H_    0.749771 0.848999 0.892704 0.275705
H21   H     H_    0.747222 0.704499 0.985714 0.271402
H22   H     H_    0.716673 0.849325 0.066921 0.251527
H23   H     H_    0.367516 0.096298 0.684691 0.120287
H24   H     H_    0.323262 0.144318 0.935780 0.248429
H25   H     H_    0.398315 0.028215 0.008494 0.297053
H26   H     H_    0.410334 0.189943 0.056215 0.242401
H27   H     H_    0.527773 0.134875 0.892597 0.189185
H28   H     H_    0.451313 0.248086 0.830288 0.236452
H29   H     H_    0.671799 0.238278 0.903670 0.221278
H30   H     H_    0.634088 0.290260 0.739560 0.292674
H31   H     H_    0.750247 0.300673 0.787174 0.242463
H32   H     H_    0.690677 0.517819 0.820218 0.256664
H33   H     H_    0.719316 0.447423 0.967159 0.161878
H34   H     H_    0.629728 0.429347 0.138458 0.165840
H35   H     H_    0.250492 0.179718 0.543840 0.252454
H36   H     H_    0.155432 0.130365 0.440258 0.265529
H37   H     H_    0.267087 0.087780 0.393486 0.252486
H38   H     H_    0.209673 0.268069 0.251035 0.196219
H39   H     H_    0.306726 0.299982 0.348255 0.227137
H40   H     H_    0.287374 0.565544 0.870461 0.208609
H41   H     H_    0.329691 0.400376 0.870899 0.213770
H42   H     H_    0.287663 0.565610 0.111427 0.210786
H43   H     H_    0.770486 0.345087 0.365616 0.164601
H44   H     H_    0.330726 0.400757 0.112680 0.205104
N1    N     N_R   0.499390 0.499140 0.142800 -0.128099
N2    N     N_R   0.499390 0.499180 0.857150 -0.139209
O1    O     O_R   0.500010 0.316790 0.614690 -0.642748
O2    O     O_3   0.476262 0.873828 0.861194 -0.626912
O3    O     O_R   0.500000 0.316760 0.385350 -0.629364
O4    O     O_R   0.367850 0.499990 0.614680 -0.618470
O5    O     O_R   0.367840 0.499950 0.385340 -0.627956
O6    O     O_R   0.500000 0.683240 0.614650 -0.612376
O7    O     O_R   0.499990 0.683210 0.385310 -0.613998
O8    O     O_R   0.632160 0.500050 0.614660 -0.606336
O9    O     O_R   0.632150 0.500010 0.385320 -0.636777
O10   O     O_3   0.774263 0.677385 0.660675 -0.673471
Zn1   Zn    Zn3+2 0.500010 0.500020 0.653130 0.936019
Zn2   Zn    Zn3+2 0.499990 0.499980 0.346870 0.928287

loop_
_geom_bond_atom_site_label_1
_geom_bond_atom_site_label_2
_ccdc_geom_bond_type
C31   H14   S    
C32   O2    S    
C30   H11   S    
C31   H15   S    
C19   C20   S    
C17   N1    A    
N1    Zn2   S    
O1    Zn1   S    
C33   H19   S    
C7    C8    A    
C45   C46   A    
O3    Zn2   S    
C26   H43   S    
C15   C19   A    
C26   C27   A    
C22   O9    A    
C12   C28   A    
C39   H31   S    
C36   C37   S    
C14   C36   S    
C30   C31   S    
C38   H33   S    
C45   H5    S    
O6    Zn1   S    
C41   H37   S    
C20   H41   S    
C46   H6    S    
C31   H13   S    
C40   H38   S    
C19   N2    A    
N2    Zn1   S    
C4    O4    A    
C8    C9    A    
C22   C25   S    
C34   C42   A    
C23   C27   A    
C9    C10   A    
O7    Zn2   S    
C21   H42   S    
C4    O5    A    
C21   H44   S    
C22   O8    A    
C13   C14   S    
C24   C25   A    
C12   C46   A    
C36   H27   S    
C6    C11   A    
C13   H12   S    
C29   H9    S    
C35   H20   S    
C25   C26   A    
C30   H10   S    
O8    Zn1   S    
C20   H40   S    
C40   H39   S    
C43   C44   A    
C29   C30   S    
C6    C14   S    
C35   H21   S    
C1    O3    A    
C23   C34   A    
C41   H35   S    
C17   C18   A    
C39   H30   S    
C36   H28   S    
C40   C41   S    
C5    C44   A    
C9    H1    S    
O9    Zn2   S    
C39   H29   S    
C37   H25   S    
C14   H23   S    
C5    H4    S    
C37   H26   S    
C42   C43   A    
C3    C4    S    
C44   C45   A    
C34   H3    S    
C23   H2    S    
C1    C7    S    
C32   H17   S    
C3    C5    A    
C8    H7    S    
C16   O7    A    
C6    C7    A    
C38   H32   S    
C12   C24   A    
C28   C43   A    
C13   O2    S    
C18   N2    A    
C32   C33   S    
C2    C3    A    
C18   C38   S    
C32   H16   S    
C10   C16   S    
C11   C13   S    
C16   O6    A    
C38   C39   S    
C35   H22   S    
C2    C42   A    
C33   H18   S    
C41   H36   S    
C33   C35   S    
C29   O10   S    
C24   O10   S    
C17   H34   S    
O5    Zn2   S    
C10   C11   A    
C15   N1    A    
C2    C40   S    
C15   C21   S    
C20   C21   S    
C1    O1    A    
C29   H8    S    
O4    Zn1   S    
C27   C28   A    
C37   H24   S    
