data_mof_unit_22922.cif
_audit_creation_date              2012-12-10T16:59:25-0500
_audit_creation_method            fapswitch 2.2
_symmetry_space_group_name_H-M    P1
_symmetry_Int_Tables_number       1
_space_group_crystal_system       triclinic
_cell_length_a                    19.28708
_cell_length_b                    10.939216
_cell_length_c                    9.7506
_cell_angle_alpha                 90.963715
_cell_angle_beta                  89.553893
_cell_angle_gamma                 90.174034
_cell_volume                      2056.87350807

loop_
_atom_site_label
_atom_site_type_symbol
_atom_type_description
_atom_site_fract_x
_atom_site_fract_y
_atom_site_fract_z
_atom_type_partial_charge
C1    C     C_R   0.498466 0.265741 0.498707 0.737051
C2    C     C_R   0.291934 0.501593 0.501820 -0.378636
C3    C     C_R   0.929563 0.498224 0.494717 0.486298
C4    C     C_R   0.070003 0.500076 0.499277 0.536307
C5    C     C_R   0.816438 0.407477 0.561307 0.528571
C6    C     C_R   0.744036 0.407580 0.563210 0.321906
C7    C     C_R   0.707961 0.500581 0.496611 -0.372443
C8    C     C_R   0.744164 0.590329 0.422867 0.344478
C9    C     C_R   0.817046 0.587370 0.416567 0.372058
C10   C     C_R   0.853392 0.497215 0.489443 -0.314017
C11   C     C_2   0.509143 0.933169 0.393241 0.411944
C12   C     C_R   0.367769 0.500754 0.500559 0.949554
C13   C     C_2   0.516226 0.864599 0.504919 0.344941
C14   C     C_2   0.523375 0.065303 0.400452 0.355167
C15   C     C_2   0.488584 0.133803 0.494660 0.262666
C16   C     C_2   0.444924 0.499776 0.927091 0.678289
C17   C     C_2   0.448131 0.531255 0.077294 0.724306
C18   C     C_R   0.503111 0.734248 0.501022 0.791895
C19   C     C_R   0.632171 0.501383 0.499376 0.896852
C20   C     C_R   0.255603 0.588655 0.582080 0.316480
C21   C     C_R   0.182588 0.590162 0.577566 0.491265
C22   C     C_R   0.146391 0.500881 0.500668 -0.345188
C23   C     C_R   0.183687 0.412855 0.423925 0.533110
C24   C     C_R   0.255860 0.414461 0.423037 0.474858
Cu1   Cu    Cu3+1 0.500010 0.500020 0.638630 1.099756
Cu2   Cu    Cu3+1 0.499990 0.499980 0.361370 1.160248
N1    N     N_R   0.033819 0.606073 0.509890 -0.130607
N2    N     N_R   0.964870 0.605208 0.507485 -0.161682
N3    N     N_R   0.965643 0.392165 0.484944 -0.144138
N4    N     N_R   0.034584 0.393114 0.486999 -0.134794
N5    N     N_2   0.499250 0.498660 0.846910 -0.027809
N6    N     N_2   0.499230 0.498630 0.153040 0.027296
O1    O     O_R   0.500010 0.321960 0.617040 -0.544886
O2    O     O_R   0.499990 0.321920 0.382900 -0.509363
O3    O     O_R   0.400160 0.500010 0.617110 -0.539947
O4    O     O_R   0.400130 0.499970 0.382960 -0.507211
O5    O     O_R   0.500010 0.678080 0.617100 -0.592945
O6    O     O_R   0.499990 0.678040 0.382960 -0.548085
O7    O     O_R   0.599870 0.500030 0.617040 -0.536714
O8    O     O_R   0.599840 0.499990 0.382890 -0.561538
O9    O     O_3   0.292748 0.679082 0.651362 -0.558706
C25   C     C_3   0.275516 0.681254 0.792492 0.009107
H1    H     H_    0.321576 0.713058 0.850640 0.190240
H2    H     H_    0.260781 0.589845 0.832697 0.179171
H3    H     H_    0.233455 0.748139 0.813399 0.204583
F1    F     F_    0.540866 0.914440 0.624062 -0.656578
O10   O     O_3   0.565098 0.122376 0.302678 -0.557041
C26   C     C_3   0.620806 0.047082 0.259881 -0.210197
H4    H     H_    0.602912 0.974986 0.186683 0.215383
H5    H     H_    0.647774 0.005834 0.348438 0.130727
H6    H     H_    0.659311 0.104268 0.205106 0.201556
O11   O     O_3   0.444494 0.079181 0.589503 -0.556289
C27   C     C_3   0.377116 0.127931 0.578750 -0.160418
H7    H     H_    0.358824 0.126619 0.470637 0.190149
H8    H     H_    0.374505 0.222076 0.623073 0.170367
H9    H     H_    0.340938 0.070253 0.638728 0.215028
F2    F     F_    0.381215 0.480721 0.873234 -0.669986
O12   O     O_3   0.559779 0.534181 0.904643 -0.479924
C28   C     C_3   0.569301 0.660311 0.882778 -0.069640
H10   H     H_    0.519815 0.712621 0.883892 0.147268
H11   H     H_    0.598440 0.675298 0.786167 0.198705
H12   H     H_    0.601429 0.698279 0.967157 0.121825
F3    F     F_    0.394865 0.595645 0.134276 -0.633625
F4    F     F_    0.536921 0.404940 0.103463 -0.516941
F5    F     F_    0.147124 0.678795 0.647211 -0.611858
F6    F     F_    0.150363 0.327469 0.345914 -0.560820
F7    F     F_    0.290757 0.329487 0.346610 -0.598488
F8    F     F_    0.850510 0.321461 0.633507 -0.589271
O13   O     O_3   0.708670 0.320454 0.637646 -0.500811
C29   C     C_3   0.695436 0.219096 0.550449 -0.179548
H13   H     H_    0.744526 0.174597 0.515991 0.187533
H14   H     H_    0.664163 0.245440 0.460251 0.133437
H15   H     H_    0.664877 0.150743 0.608284 0.209096
O14   O     O_3   0.708360 0.689421 0.372608 -0.556550
C30   C     C_3   0.699125 0.675304 0.229777 -0.206341
H16   H     H_    0.650447 0.722259 0.201991 0.174180
H17   H     H_    0.694229 0.578164 0.194338 0.172272
H18   H     H_    0.742051 0.720944 0.174050 0.181969
O15   O     O_3   0.851849 0.677786 0.345809 -0.516390
C31   C     C_3   0.876364 0.628548 0.219605 -0.213885
H19   H     H_    0.836261 0.573472 0.164590 0.129785
H20   H     H_    0.923374 0.572155 0.234324 0.175465
H21   H     H_    0.891198 0.705247 0.152331 0.207309
F9    F     F_    0.488339 0.884211 0.270951 -0.637143

loop_
_geom_bond_atom_site_label_1
_geom_bond_atom_site_label_2
_ccdc_geom_bond_type
Cu1   N5    S    
C6    O13   S    
Cu2   N6    S    
O9    C25   S    
C2    C12   S    
C20   O9    S    
C1    O1    A    
C7    C8    A    
C27   H7    S    
C16   N5    D    
C13   C18   S    
N5    O12   S    
C3    N2    A    
C18   O5    A    
C5    F8    S    
C5    C6    A    
C11   C14   S    
C16   C17   S    
C9    O15   S    
C3    N3    A    
C24   F7    S    
Cu1   O5    S    
Cu2   O2    S    
C26   H6    S    
C8    C9    A    
C23   C24   A    
C29   H13   S    
C1    C15   S    
C12   O4    A    
C9    C10   A    
C26   H5    S    
C28   H10   S    
C21   C22   A    
C25   H2    S    
C31   H21   S    
Cu1   Cu2   S    
C1    O2    A    
C27   H8    S    
C28   H11   S    
O14   C30   S    
C2    C20   A    
N6    F4    S    
C31   H20   S    
Cu2   O6    S    
O12   C28   S    
C25   H3    S    
C30   H16   S    
N3    N4    A    
C4    C22   S    
O10   C26   S    
C29   H15   S    
C8    O14   S    
C15   O11   S    
C12   O3    A    
C30   H17   S    
C14   O10   S    
C19   O7    A    
Cu1   O3    S    
Cu2   O4    S    
C26   H4    S    
C7    C19   S    
C2    C24   A    
C25   H1    S    
C4    N1    A    
O11   C27   S    
C23   F6    S    
C17   F3    S    
C27   H9    S    
C28   H12   S    
C21   F5    S    
C14   C15   D    
C31   H19   S    
C6    C7    A    
C11   F9    S    
C18   O6    A    
C5    C10   A    
C3    C10   S    
Cu1   O7    S    
C11   C13   D    
Cu2   O8    S    
C13   F1    S    
C16   F2    S    
O13   C29   S    
C30   H18   S    
C19   O8    A    
O15   C31   S    
C20   C21   A    
N1    N2    A    
C17   N6    D    
C22   C23   A    
C29   H14   S    
C4    N4    A    
Cu1   O1    S    
