data_mof_unit_26267.cif
_audit_creation_date              2012-12-10T18:58:44-0500
_audit_creation_method            fapswitch 2.2
_symmetry_space_group_name_H-M    P1
_symmetry_Int_Tables_number       1
_space_group_crystal_system       triclinic
_cell_length_a                    13.002874
_cell_length_b                    10.879265
_cell_length_c                    9.562223
_cell_angle_alpha                 90.654567
_cell_angle_beta                  96.354253
_cell_angle_gamma                 91.025486
_cell_volume                      1344.04070034

loop_
_atom_site_label
_atom_site_type_symbol
_atom_type_description
_atom_site_fract_x
_atom_site_fract_y
_atom_site_fract_z
_atom_type_partial_charge
C1    C     C_R   0.497039 0.262615 0.498889 0.844192
C2    C     C_R   0.028252 0.494549 0.567709 0.170404
C3    C     C_R   0.971842 0.502975 0.433366 0.169059
C4    C     C_R   0.864463 0.503073 0.421426 -0.250103
C5    C     C_R   0.868719 0.489060 0.675297 -0.178927
C6    C     C_R   0.976308 0.487363 0.688122 -0.192084
C7    C     C_R   0.491073 0.066385 0.622820 -0.012772
C8    C     C_R   0.485826 0.129895 0.496766 -0.191477
C9    C     C_R   0.466570 0.063351 0.369599 -0.242703
C10   C     C_R   0.467003 0.934811 0.369651 0.623357
C11   C     C_R   0.487816 0.871366 0.497831 -0.289334
C12   C     C_R   0.300521 0.500501 0.473644 0.814640
C13   C     C_R   0.493317 0.939552 0.623510 0.013511
C14   C     C_3   0.569886 0.940879 0.752901 0.503844
C15   C     C_3   0.567305 0.080803 0.750981 -0.322503
C16   C     C_R   0.587697 0.529718 0.087000 0.231301
C17   C     C_R   0.419884 0.448258 0.060242 0.062456
C18   C     C_R   0.418490 0.452925 0.911635 -0.057982
C19   C     C_R   0.588980 0.525082 0.940334 0.215349
C20   C     C_3   0.655410 0.637539 0.943515 -0.443213
C21   C     C_3   0.649614 0.646422 0.101186 -0.431861
C22   C     C_R   0.497991 0.737894 0.499954 0.852272
C23   C     C_R   0.699478 0.499276 0.526485 0.800903
C24   C     C_R   0.812380 0.497322 0.541915 -0.039956
C25   C     C_R   0.187623 0.501683 0.458770 -0.047809
C26   C     C_R   0.023614 0.511701 0.313011 -0.202095
C27   C     C_R   0.131140 0.511892 0.325765 -0.152741
C28   C     C_R   0.135707 0.493356 0.579418 -0.246110
Cu1   Cu    Cu3+1 0.499990 0.499980 0.640670 0.973326
Cu2   Cu    Cu3+1 0.500010 0.500020 0.359330 0.998214
H1    H     H_    0.821767 0.507503 0.317906 0.145080
H2    H     H_    0.640549 0.128098 0.729902 0.111660
H3    H     H_    0.353098 0.414291 0.844631 0.136334
H4    H     H_    0.734292 0.617861 0.915944 0.181516
H5    H     H_    0.615773 0.710719 0.882805 0.283304
H6    H     H_    0.725997 0.636076 0.163553 0.175329
H7    H     H_    0.604075 0.725688 0.132567 0.278681
H8    H     H_    0.829821 0.483091 0.769434 0.148926
H9    H     H_    0.981059 0.519109 0.209473 0.136695
H10   H     H_    0.018764 0.480683 0.791799 0.138983
H11   H     H_    0.169837 0.520574 0.231722 0.169256
H12   H     H_    0.178628 0.485986 0.682768 0.152510
H13   H     H_    0.455568 0.110280 0.269916 0.211324
N1    N     N_R   0.500660 0.500930 0.148010 -0.198182
N2    N     N_R   0.500660 0.500890 0.852110 -0.182883
O1    O     O_R   0.500000 0.319640 0.618810 -0.588198
O2    O     O_R   0.500010 0.319680 0.381230 -0.584784
O3    O     O_R   0.348990 0.499960 0.599490 -0.595438
O4    O     O_R   0.349000 0.500000 0.361910 -0.582099
O5    O     O_R   0.499990 0.680320 0.618770 -0.560628
O6    O     O_R   0.500000 0.680360 0.381190 -0.521020
O7    O     O_R   0.651000 0.500000 0.638090 -0.593929
O8    O     O_R   0.651010 0.500040 0.400510 -0.595117
C29   C     C_1   0.671774 0.891999 0.729831 0.152601
N3    N     N_1   0.751680 0.853555 0.711480 -0.285333
C30   C     C_1   0.520762 0.134794 0.870352 0.457531
N4    N     N_1   0.484444 0.176022 0.965060 -0.299617
C31   C     C_1   0.340096 0.375761 0.114528 0.291756
N5    N     N_1   0.276112 0.315596 0.156291 -0.291150
F1    F     F_    0.451782 0.874165 0.243972 -0.624118
F2    F     F_    0.527781 0.890139 0.866557 -0.640150

loop_
_geom_bond_atom_site_label_1
_geom_bond_atom_site_label_2
_ccdc_geom_bond_type
C7    C13   A    
C10   F1    S    
Cu2   O6    S    
C19   N2    A    
C16   C21   S    
C25   C27   A    
C1    C8    S    
C9    C10   A    
C16   N1    A    
C11   C22   S    
C19   C20   S    
C23   C24   S    
C12   O3    A    
Cu1   O1    S    
C22   O5    A    
C20   H4    S    
C15   C30   S    
C7    C15   S    
C12   O4    A    
C23   O7    A    
C17   N1    A    
C15   H2    S    
C21   H6    S    
C2    C6    A    
C13   C14   S    
C30   N4    T    
C17   C31   S    
C11   C13   A    
Cu2   N1    S    
C26   C27   A    
Cu1   Cu2   S    
C5    C24   A    
C16   C19   A    
C28   H12   S    
C14   C29   S    
Cu2   O4    S    
C14   F2    S    
C23   O8    A    
C2    C3    A    
Cu1   O5    S    
C22   O6    A    
C5    C6    A    
C4    C24   A    
C18   H3    S    
C6    H10   S    
C26   H9    S    
C9    H13   S    
C4    H1    S    
C10   C11   A    
C12   C25   S    
C25   C28   A    
C3    C4    A    
C18   N2    A    
Cu2   O2    S    
C7    C8    A    
C21   H7    S    
C20   C21   S    
C17   C18   A    
C29   N3    T    
C27   H11   S    
C14   C15   S    
C1    O2    A    
C2    C28   A    
Cu1   O3    S    
C1    O1    A    
C31   N5    T    
C5    H8    S    
C20   H5    S    
C3    C26   A    
Cu1   N2    S    
C8    C9    A    
Cu2   O8    S    
Cu1   O7    S    
