data_mof_unit_28023.cif
_audit_creation_date              2012-12-10T18:58:47-0500
_audit_creation_method            fapswitch 2.2
_symmetry_space_group_name_H-M    P1
_symmetry_Int_Tables_number       1
_space_group_crystal_system       triclinic
_cell_length_a                    13.06415
_cell_length_b                    10.835151
_cell_length_c                    9.570161
_cell_angle_alpha                 88.566127
_cell_angle_beta                  95.763151
_cell_angle_gamma                 91.401641
_cell_volume                      1347.07844844

loop_
_atom_site_label
_atom_site_type_symbol
_atom_type_description
_atom_site_fract_x
_atom_site_fract_y
_atom_site_fract_z
_atom_type_partial_charge
C1    C     C_R   0.500617 0.262523 0.501671 0.857170
C2    C     C_R   0.027065 0.504907 0.564872 -0.071880
C3    C     C_R   0.973162 0.461482 0.437704 -0.176499
C4    C     C_R   0.864957 0.447402 0.428098 -0.021849
C5    C     C_R   0.865570 0.518863 0.666992 -0.205653
C6    C     C_R   0.972012 0.528249 0.681304 0.016563
C7    C     C_R   0.474361 0.059201 0.616777 -0.109256
C8    C     C_R   0.509341 0.129812 0.506598 -0.073852
C9    C     C_R   0.559126 0.070640 0.404451 -0.239383
C10   C     C_R   0.560967 0.941920 0.403370 0.592766
C11   C     C_R   0.510588 0.871414 0.502265 -0.106925
C12   C     C_R   0.300814 0.499158 0.474038 0.986234
C13   C     C_R   0.474627 0.932115 0.613937 -0.201505
C14   C     C_3   0.374039 0.918395 0.674656 0.509385
C15   C     C_3   0.373240 0.058424 0.677403 0.479406
C16   C     C_R   0.577457 0.558494 0.082106 0.163108
C17   C     C_R   0.429964 0.431971 0.067974 -0.032414
C18   C     C_R   0.429421 0.431741 0.919669 0.021269
C19   C     C_R   0.576549 0.560391 0.934271 0.200226
C20   C     C_3   0.599584 0.696206 0.930433 -0.334595
C21   C     C_3   0.606382 0.691732 0.090839 -0.303193
C22   C     C_R   0.502921 0.737699 0.499407 0.890128
C23   C     C_R   0.698931 0.493986 0.525757 0.786431
C24   C     C_R   0.811409 0.485769 0.539918 -0.103961
C25   C     C_R   0.188427 0.491588 0.459279 -0.367976
C26   C     C_R   0.029224 0.435065 0.323297 0.548079
C27   C     C_R   0.135252 0.448663 0.335063 0.508532
C28   C     C_R   0.134381 0.522691 0.572160 0.521521
Cu1   Cu    Cu3+1 0.499990 0.499980 0.640670 1.009128
Cu2   Cu    Cu3+1 0.500010 0.500020 0.359330 1.015394
H1    H     H_    0.380210 0.872632 0.780266 0.031339
H2    H     H_    0.378817 0.095370 0.785122 0.015799
H3    H     H_    0.372160 0.379221 0.118793 0.197591
H4    H     H_    0.533118 0.749929 0.882505 0.171774
H5    H     H_    0.546289 0.746789 0.132381 0.235216
H6    H     H_    0.824448 0.538767 0.756259 0.173502
H7    H     H_    0.594714 0.123615 0.324055 0.184958
N1    N     N_R   0.500660 0.500930 0.148010 -0.203353
N2    N     N_R   0.500660 0.500890 0.852110 -0.215170
O1    O     O_R   0.500000 0.319640 0.618810 -0.600298
O2    O     O_R   0.500010 0.319680 0.381230 -0.592383
O3    O     O_R   0.348990 0.499960 0.599490 -0.531748
O4    O     O_R   0.349000 0.500000 0.361910 -0.542643
O5    O     O_R   0.499990 0.680320 0.618770 -0.593917
O6    O     O_R   0.500000 0.680360 0.381190 -0.562937
O7    O     O_R   0.651000 0.500000 0.638090 -0.588537
O8    O     O_R   0.651010 0.500040 0.400510 -0.596877
C29   C     C_1   0.808999 0.387684 0.308298 0.403709
N3    N     N_1   0.764182 0.339940 0.213179 -0.238121
F1    F     F_    0.296007 0.108656 0.584920 -0.581011
C30   C     C_1   0.348184 0.362514 0.842815 0.373144
N4    N     N_1   0.281242 0.307548 0.782958 -0.193253
C31   C     C_1   0.695239 0.729618 0.867725 0.317075
N5    N     N_1   0.769980 0.757980 0.818646 -0.266103
C32   C     C_1   0.710300 0.707397 0.165400 0.460551
N6    N     N_1   0.791722 0.719522 0.223929 -0.225174
F2    F     F_    0.982991 0.396937 0.197856 -0.610009
C33   C     C_1   0.020867 0.561335 0.818132 0.446215
N7    N     N_1   0.059527 0.587651 0.927833 -0.139206
F3    F     F_    0.185728 0.417716 0.224042 -0.599782
F4    F     F_    0.186902 0.573840 0.687092 -0.622182
F5    F     F_    0.611916 0.888000 0.306458 -0.697028
F6    F     F_    0.297513 0.868722 0.580328 -0.567544

loop_
_geom_bond_atom_site_label_1
_geom_bond_atom_site_label_2
_ccdc_geom_bond_type
C12   O3    A    
C23   C24   S    
Cu2   O2    S    
C16   C21   S    
C21   H5    S    
Cu1   O3    S    
C25   C27   A    
C1    C8    S    
C9    C10   A    
C6    C33   S    
C11   C22   S    
C19   C20   S    
C7    C13   A    
Cu1   O7    S    
C18   N2    A    
C20   H4    S    
C28   F4    S    
Cu1   N2    S    
C32   N6    T    
C7    C15   S    
C17   C18   A    
C7    C8    A    
C23   O7    A    
C2    C6    A    
C31   N5    T    
C20   C21   S    
C25   C28   A    
C11   C13   A    
C26   C27   A    
C10   F5    S    
C5    C24   A    
C17   H3    S    
C16   C19   A    
C14   F6    S    
C19   N2    A    
Cu1   O1    S    
C9    H7    S    
C29   N3    T    
C18   C30   S    
C2    C3    A    
C12   O4    A    
C27   F3    S    
Cu1   O5    S    
C5    C6    A    
C4    C24   A    
C26   F2    S    
Cu2   O4    S    
C23   O8    A    
C10   C11   A    
C12   C25   S    
Cu1   Cu2   S    
C3    C4    A    
C5    H6    S    
Cu2   O8    S    
C15   H2    S    
C22   O6    A    
C17   N1    A    
Cu2   N1    S    
C4    C29   S    
C15   F1    S    
C1    O2    A    
C21   C32   S    
C14   H1    S    
C14   C15   S    
C20   C31   S    
C2    C28   A    
Cu2   O6    S    
C1    O1    A    
C33   N7    T    
C13   C14   S    
C3    C26   A    
C22   O5    A    
C30   N4    T    
C16   N1    A    
C8    C9    A    
