data_mof_unit_61353.cif
_audit_creation_date              2012-12-10T19:27:47-0500
_audit_creation_method            fapswitch 2.2
_symmetry_space_group_name_H-M    P1
_symmetry_Int_Tables_number       1
_space_group_crystal_system       triclinic
_cell_length_a                    17.846692
_cell_length_b                    16.486958
_cell_length_c                    10.87358
_cell_angle_alpha                 89.842183
_cell_angle_beta                  92.994183
_cell_angle_gamma                 89.953815
_cell_volume                      3195.03547895

loop_
_atom_site_label
_atom_site_type_symbol
_atom_type_description
_atom_site_fract_x
_atom_site_fract_y
_atom_site_fract_z
_atom_type_partial_charge
C1    C     C_R   0.355022 0.500030 0.504244 0.931756
C2    C     C_3   0.578215 0.495509 0.932562 0.569875
C3    C     C_R   0.846061 0.574243 0.467945 0.283088
C4    C     C_R   0.847474 0.426860 0.482626 0.280584
C5    C     C_R   0.766980 0.574465 0.473367 0.290467
C6    C     C_R   0.768462 0.426007 0.488450 0.291131
C7    C     C_R   0.727837 0.500102 0.485006 -0.167458
C8    C     C_R   0.885138 0.500940 0.478766 -0.077243
C9    C     C_1   0.965423 0.501411 0.481780 0.271328
C10   C     C_1   0.032620 0.501373 0.486917 0.209528
C11   C     C_R   0.151956 0.574367 0.504727 0.330049
C12   C     C_R   0.151486 0.427079 0.499657 0.333607
C13   C     C_R   0.230646 0.574597 0.513810 0.330516
C14   C     C_R   0.230179 0.425990 0.508610 0.329670
C15   C     C_R   0.271349 0.500183 0.509365 -0.322298
C16   C     C_R   0.495725 0.500101 0.259667 1.038696
C17   C     C_R   0.112982 0.500976 0.495447 -0.230912
C18   C     C_R   0.550420 0.830752 0.571805 0.261831
C19   C     C_R   0.546393 0.168911 0.578804 0.263067
C20   C     C_R   0.550357 0.745137 0.572681 0.536718
C21   C     C_R   0.547734 0.254506 0.577204 0.542587
C22   C     C_R   0.448618 0.740921 0.423212 0.520317
C23   C     C_R   0.450574 0.259446 0.419847 0.534632
C24   C     C_R   0.446091 0.827705 0.420009 0.218004
C25   C     C_R   0.448077 0.172678 0.416539 0.215868
C26   C     C_R   0.497178 0.873314 0.494926 -0.189006
C27   C     C_R   0.496095 0.126708 0.496765 -0.188057
C28   C     C_1   0.494880 0.962886 0.492850 0.163452
C29   C     C_1   0.494571 0.037150 0.493386 0.163426
C30   C     C_R   0.644778 0.499999 0.495767 0.977106
C31   C     C_R   0.495778 0.499721 0.739942 1.038611
C32   C     C_3   0.443661 0.574290 0.066903 0.577948
C33   C     C_3   0.454015 0.417993 0.072608 0.608481
C34   C     C_3   0.455461 0.581495 0.924639 0.513717
C35   C     C_3   0.447491 0.421505 0.926122 0.413729
C36   C     C_3   0.578556 0.502267 0.078604 0.354604
C37   C     C_3   0.493867 0.499625 0.122006 -0.398158
C38   C     C_3   0.493845 0.499072 0.877990 -0.445133
Cu1   Cu    Cu3+1 0.499980 0.580420 0.499990 1.162053
Cu2   Cu    Cu3+1 0.499980 0.419580 0.499990 1.172928
N1    N     N_R   0.499970 0.701220 0.499970 -0.287186
N2    N     N_R   0.499970 0.298780 0.499970 -0.285273
O1    O     O_R   0.391240 0.567930 0.499990 -0.515491
O2    O     O_R   0.391240 0.432070 0.499990 -0.519398
O3    O     O_R   0.499970 0.567910 0.317690 -0.539634
O4    O     O_R   0.499970 0.432090 0.317690 -0.499469
O5    O     O_R   0.608730 0.567880 0.500000 -0.526026
O6    O     O_R   0.608730 0.432120 0.500000 -0.520000
O7    O     O_R   0.500000 0.567910 0.682300 -0.522026
O8    O     O_R   0.500000 0.432090 0.682300 -0.523227
O9    O     O_3   0.457758 0.648952 0.128286 -0.644838
H1    H     H_    0.510360 0.665307 0.126234 0.399849
O10   O     O_3   0.492259 0.348308 0.120407 -0.637369
H2    H     H_    0.534912 0.333235 0.072321 0.365443
Cl1   Cl    Cl    0.274711 0.669904 0.537962 -0.366560
Cl2   Cl    Cl    0.273663 0.329665 0.525444 -0.375704
O11   O     O_3   0.603699 0.869541 0.647704 -0.606875
H3    H     H_    0.601467 0.928755 0.634434 0.333824
O12   O     O_3   0.595692 0.129759 0.661676 -0.610383
H4    H     H_    0.585952 0.070834 0.661459 0.336326
Cl3   Cl    Cl    0.618668 0.696569 0.669298 -0.355755
Cl4   Cl    Cl    0.613486 0.302702 0.678050 -0.373318
O13   O     O_3   0.400358 0.694121 0.350033 -0.604735
H5    H     H_    0.365764 0.728572 0.298992 0.386600
O14   O     O_3   0.404419 0.306563 0.343091 -0.604267
H6    H     H_    0.368320 0.272418 0.294892 0.377410
Cl5   Cl    Cl    0.379597 0.880221 0.322817 -0.390793
Cl6   Cl    Cl    0.385947 0.120668 0.311789 -0.395844
O15   O     O_3   0.367387 0.557272 0.084240 -0.597646
H7    H     H_    0.338153 0.608639 0.080278 0.409071
O16   O     O_3   0.381866 0.412729 0.119328 -0.578608
H8    H     H_    0.361520 0.357930 0.099562 0.401674
Cl7   Cl    Cl    0.368658 0.605768 0.838800 -0.405475
Cl8   Cl    Cl    0.350786 0.425958 0.868980 -0.394815
Cl9   Cl    Cl    0.507258 0.672745 0.892758 -0.363113
Cl10  Cl    Cl    0.471268 0.323832 0.863138 -0.454295
Cl11  Cl    Cl    0.628655 0.591267 0.133205 -0.471950
Cl12  Cl    Cl    0.638524 0.427284 0.155542 -0.514157
O17   O     O_3   0.618480 0.560755 0.884463 -0.578386
H9    H     H_    0.672880 0.550581 0.902229 0.407191
O18   O     O_3   0.614223 0.425178 0.890334 -0.633592
H10   H     H_    0.602214 0.377419 0.939088 0.376038
O19   O     O_3   0.886651 0.644277 0.449882 -0.645675
H11   H     H_    0.855003 0.682770 0.400099 0.370661
O20   O     O_3   0.889374 0.356434 0.478529 -0.644530
H12   H     H_    0.858485 0.313812 0.436718 0.370663
O21   O     O_3   0.727257 0.646379 0.468127 -0.639895
H13   H     H_    0.758444 0.689518 0.508048 0.368925
O22   O     O_3   0.730304 0.353783 0.499011 -0.637056
H14   H     H_    0.762615 0.314875 0.546885 0.371256
Cl13  Cl    Cl    0.101361 0.666939 0.505669 -0.361937
Cl14  Cl    Cl    0.100296 0.334925 0.494256 -0.360742

loop_
_geom_bond_atom_site_label_1
_geom_bond_atom_site_label_2
_ccdc_geom_bond_type
C14   Cl2   S    
O21   H13   S    
C35   Cl8   S    
C27   C29   S    
C18   C26   A    
C4    C8    A    
O18   H10   S    
Cu1   N1    S    
O10   H2    S    
Cu2   O4    S    
C23   N2    A    
C30   O6    A    
C36   C37   S    
C19   C21   A    
C24   C26   A    
C36   Cl11  S    
C22   N1    A    
C10   C17   S    
C20   Cl3   S    
C2    O17   S    
C1    O2    A    
C24   Cl5   S    
C22   O13   S    
C1    O1    A    
C11   C17   A    
C8    C9    S    
C12   C17   A    
C1    C15   S    
C19   C27   A    
C9    C10   T    
C34   Cl9   S    
Cu1   O3    S    
Cu2   N2    S    
O12   H4    S    
C7    C30   S    
C25   Cl6   S    
C31   O7    A    
C20   N1    A    
C33   O10   S    
C35   Cl10  S    
O9    H1    S    
C30   O5    A    
C35   C38   S    
C4    C6    A    
C3    C8    A    
C16   O4    A    
Cu1   Cu2   S    
C5    C7    A    
Cu1   O1    S    
C4    O20   S    
C19   O12   S    
O20   H12   S    
C33   C37   S    
O17   H9    S    
C32   C34   S    
C32   O9    S    
C2    C38   S    
C18   O11   S    
O19   H11   S    
C32   C37   S    
C21   Cl4   S    
C6    C7    A    
Cu1   O7    S    
C12   C14   A    
C13   C15   A    
C3    O19   S    
C22   C24   A    
C31   O8    A    
Cu1   O5    S    
C2    C36   S    
Cu2   O6    S    
C28   C29   T    
C34   C38   S    
C12   Cl14  S    
O13   H5    S    
C3    C5    A    
C16   O3    A    
C32   O15   S    
C25   C27   A    
C6    O22   S    
C16   C37   S    
C26   C28   S    
C31   C38   S    
C23   O14   S    
O16   H8    S    
C36   Cl12  S    
C11   C13   A    
O11   H3    S    
Cu2   O8    S    
C33   C35   S    
C18   C20   A    
C23   C25   A    
O15   H7    S    
C33   O16   S    
C34   Cl7   S    
C21   N2    A    
C5    O21   S    
C11   Cl13  S    
Cu2   O2    S    
O14   H6    S    
C14   C15   A    
C2    O18   S    
O22   H14   S    
C13   Cl1   S    
