data_mof_unit_56423.cif
_audit_creation_date              2013-03-05T15:39:28-0500
_audit_creation_method            fapswitch 2.2
_symmetry_space_group_name_H-M    P1
_symmetry_Int_Tables_number       1
_space_group_crystal_system       triclinic
_cell_length_a                    16.89398
_cell_length_b                    16.907091
_cell_length_c                    16.883186
_cell_angle_alpha                 67.466894
_cell_angle_beta                  67.491886
_cell_angle_gamma                 67.455042
_cell_volume                      3953.38002821

loop_
_atom_site_label
_atom_site_type_symbol
_atom_site_description
_atom_site_fract_x
_atom_site_fract_y
_atom_site_fract_z
_atom_type_partial_charge
O1    O     O_R   0.124540 0.978640 0.385460 -0.591503
O2    O     O_R   0.875460 0.021360 0.614540 -0.591558
O3    O     O_R   0.978640 0.385460 0.124540 -0.585436
O4    O     O_R   0.021360 0.614540 0.875460 -0.585503
O5    O     O_R   0.385460 0.124540 0.978640 -0.583699
O6    O     O_R   0.614540 0.875460 0.021360 -0.583669
O7    O     O_R   0.614540 0.021360 0.875460 -0.594515
O8    O     O_R   0.385460 0.978640 0.124540 -0.594387
O9    O     O_R   0.875460 0.614540 0.021360 -0.585102
O10   O     O_R   0.124540 0.385460 0.978640 -0.585107
O11   O     O_R   0.021360 0.875460 0.614540 -0.590133
O12   O     O_R   0.978640 0.124540 0.385460 -0.590101
C1    C     C_R   0.594303 0.024123 0.595346 -0.156948
C2    C     C_R   0.405669 0.976001 0.404612 -0.157003
C3    C     C_R   0.024020 0.594414 0.595339 -0.156552
C4    C     C_R   0.975907 0.405594 0.404693 -0.156559
C5    C     C_R   0.595869 0.594596 0.023036 -0.157458
C6    C     C_R   0.403738 0.405109 0.978161 -0.157649
Cu1   Cu    Cu3+1 0.995180 0.995180 0.424630 1.141029
Cu2   Cu    Cu3+1 0.004820 0.004820 0.575370 1.140886
Cu3   Cu    Cu3+1 0.995180 0.424630 0.995180 1.144863
Cu4   Cu    Cu3+1 0.004820 0.575370 0.004820 1.144869
Cu5   Cu    Cu3+1 0.424630 0.995180 0.995180 1.144525
Cu6   Cu    Cu3+1 0.575370 0.004820 0.004820 1.144430
C7    C     C_R   0.021234 0.829866 0.567231 0.808872
C8    C     C_R   0.978736 0.170139 0.432779 0.808830
C9    C     C_R   0.829212 0.565841 0.025100 0.813818
C10   C     C_R   0.170791 0.434165 0.974886 0.813896
C11   C     C_R   0.565924 0.024806 0.829236 0.811545
C12   C     C_R   0.434077 0.975191 0.170764 0.811806
C13   C     C_R   0.432439 0.169918 0.979688 0.811743
C14   C     C_R   0.567468 0.830021 0.020581 0.811255
C15   C     C_R   0.975129 0.434094 0.170765 0.813391
C16   C     C_R   0.024880 0.565902 0.829234 0.813331
C17   C     C_R   0.170162 0.978662 0.432819 0.808509
C18   C     C_R   0.829832 0.021366 0.567171 0.808439
O13   O     O_R   0.013780 0.867370 0.487190 -0.522706
O14   O     O_R   0.986220 0.132630 0.512810 -0.522708
O15   O     O_R   0.867370 0.487190 0.013780 -0.526783
O16   O     O_R   0.132630 0.512810 0.986220 -0.526731
O17   O     O_R   0.487190 0.013780 0.867370 -0.517838
O18   O     O_R   0.512810 0.986220 0.132630 -0.517468
O19   O     O_R   0.512810 0.132630 0.986220 -0.527551
O20   O     O_R   0.487190 0.867370 0.013780 -0.527533
O21   O     O_R   0.986220 0.512810 0.132630 -0.526662
O22   O     O_R   0.013780 0.487190 0.867370 -0.526681
O23   O     O_R   0.132630 0.986220 0.512810 -0.522004
O24   O     O_R   0.867370 0.013780 0.487190 -0.521967
H1    H     H_    0.465622 0.149320 0.519285 0.160023
H2    H     H_    0.534352 0.850813 0.480668 0.160021
H3    H     H_    0.871684 0.614375 0.562693 0.155765
H4    H     H_    0.128232 0.385625 0.437352 0.155784
H5    H     H_    0.518488 0.467717 0.149890 0.159734
H6    H     H_    0.481056 0.532005 0.851430 0.159617
H7    H     H_    0.385697 0.128293 0.436974 0.156283
H8    H     H_    0.614278 0.871842 0.562975 0.156203
H9    H     H_    0.435394 0.387619 0.130433 0.156246
H10   H     H_    0.564115 0.612104 0.870896 0.156107
H11   H     H_    0.850655 0.534362 0.480538 0.160001
H12   H     H_    0.149260 0.465636 0.519507 0.159998
C19   C     C_R   0.545455 0.012104 0.546634 0.154722
C20   C     C_R   0.454520 0.988031 0.453316 0.154701
C21   C     C_R   0.012004 0.545552 0.546610 0.156567
C22   C     C_R   0.987911 0.454445 0.453439 0.156454
C23   C     C_R   0.546967 0.545403 0.011790 0.157526
C24   C     C_R   0.452538 0.454329 0.989535 0.158013
C25   C     C_R   0.564528 0.928005 0.535416 -0.062674
C26   C     C_R   0.435447 0.072130 0.464532 -0.062470
C27   C     C_R   0.084032 0.480694 0.511299 -0.053046
C28   C     C_R   0.915882 0.519302 0.488750 -0.053184
C29   C     C_R   0.535995 0.563241 0.927733 -0.064076
C30   C     C_R   0.463499 0.436495 0.073603 -0.064017
C31   C     C_R   0.519308 0.916015 0.488801 -0.054670
C32   C     C_R   0.480667 0.084120 0.511149 -0.054590
C33   C     C_R   0.488874 0.517953 0.916650 -0.054118
C34   C     C_R   0.510636 0.481783 0.084683 -0.053979
C35   C     C_R   0.072034 0.435400 0.464774 -0.065565
C36   C     C_R   0.927880 0.564596 0.535276 -0.065662
C37   C     C_R   0.551971 0.033461 0.682062 0.276476
C38   C     C_R   0.448020 0.966586 0.317924 0.276773
C39   C     C_R   0.020863 0.684829 0.556319 0.271415
C40   C     C_R   0.978998 0.315199 0.443730 0.271498
C41   C     C_R   0.681906 0.551893 0.034300 0.273840
C42   C     C_R   0.317968 0.447970 0.966206 0.273752
C43   C     C_R   0.315329 0.978784 0.443775 0.271693
C44   C     C_R   0.684633 0.021377 0.556170 0.271718
C45   C     C_R   0.441975 0.314115 0.983526 0.270089
C46   C     C_R   0.557482 0.685490 0.018031 0.270364
C47   C     C_R   0.966199 0.448007 0.318066 0.273297
C48   C     C_R   0.033806 0.551988 0.681937 0.273291
C49   C     C_R   0.602625 0.033299 0.732608 -0.153384
C50   C     C_R   0.397372 0.966717 0.267388 -0.153198
C51   C     C_R   0.026369 0.734056 0.604934 -0.163389
C52   C     C_R   0.973563 0.265957 0.395088 -0.163375
C53   C     C_R   0.732562 0.602598 0.033700 -0.153649
C54   C     C_R   0.267409 0.397361 0.966461 -0.153369
C55   C     C_R   0.266011 0.973449 0.395129 -0.161399
C56   C     C_R   0.733973 0.026623 0.604847 -0.161356
C57   C     C_R   0.394294 0.265453 0.975688 -0.163163
C58   C     C_R   0.605478 0.734384 0.024998 -0.163186
C59   C     C_R   0.966543 0.397377 0.267438 -0.153174
C60   C     C_R   0.033464 0.602620 0.732561 -0.153108
C61   C     C_R   0.692248 0.032046 0.692506 -0.295264
C62   C     C_R   0.307751 0.967967 0.307490 -0.295096
C63   C     C_R   0.032036 0.692242 0.692521 -0.288985
C64   C     C_R   0.967956 0.307758 0.307481 -0.288899
C65   C     C_R   0.692615 0.692317 0.031878 -0.284910
C66   C     C_R   0.307370 0.307667 0.968211 -0.285082
H13   H     H_    0.730731 0.032521 0.730899 0.216521
H14   H     H_    0.269280 0.967444 0.269112 0.216604
H15   H     H_    0.032561 0.730659 0.730912 0.218341
H16   H     H_    0.967464 0.269334 0.269078 0.218360
H17   H     H_    0.730782 0.730612 0.032966 0.219752
H18   H     H_    0.269359 0.269505 0.966622 0.219846
N1    N     N_R   0.458047 0.042104 0.718171 0.142730
O25   O     O_R   0.403069 0.116902 0.733334 -0.312716
O26   O     O_R   0.426871 0.977632 0.730362 -0.274564
N2    N     N_R   0.541954 0.957892 0.281831 0.142830
O27   O     O_R   0.573176 0.022321 0.269665 -0.273588
O28   O     O_R   0.596894 0.883091 0.266647 -0.312838
N3    N     N_R   0.011845 0.725464 0.467310 0.143270
O29   O     O_R   0.078122 0.704285 0.400403 -0.296784
O30   O     O_R   0.933666 0.771477 0.454917 -0.285839
N4    N     N_R   0.987827 0.274610 0.532806 0.143319
O31   O     O_R   0.065973 0.228784 0.545375 -0.285662
O32   O     O_R   0.921316 0.295585 0.599650 -0.297251
N5    N     N_R   0.717305 0.457581 0.045318 0.141310
O33   O     O_R   0.733510 0.404380 0.120373 -0.314713
O34   O     O_R   0.728564 0.424332 0.982604 -0.286351
N6    N     N_R   0.282683 0.542327 0.954942 0.141117
O35   O     O_R   0.271177 0.575738 0.017625 -0.286338
O36   O     O_R   0.266658 0.595391 0.879772 -0.314956
N7    N     N_R   0.274874 0.987219 0.532974 0.143320
O37   O     O_R   0.295952 0.920485 0.599640 -0.293440
O38   O     O_R   0.229204 0.065216 0.545830 -0.285308
N8    N     N_R   0.725049 0.013088 0.466919 0.143355
O39   O     O_R   0.770621 0.935126 0.453934 -0.285087
O40   O     O_R   0.704006 0.079945 0.400324 -0.293458
N9    N     N_R   0.528794 0.272056 0.998063 0.142240
O41   O     O_R   0.598140 0.293559 0.936320 -0.292598
O42   O     O_R   0.536466 0.222849 0.077237 -0.304237
N10   N     N_R   0.470010 0.727125 0.005072 0.142679
O43   O     O_R   0.460977 0.775119 0.926014 -0.303526
O44   O     O_R   0.401211 0.706328 0.068526 -0.293380
N11   N     N_R   0.956920 0.541999 0.282131 0.141170
O45   O     O_R   0.882045 0.596480 0.266585 -0.311367
O46   O     O_R   0.020892 0.573724 0.270334 -0.287361
N12   N     N_R   0.043151 0.457984 0.717855 0.141130
O47   O     O_R   0.979216 0.426204 0.729660 -0.287526
O48   O     O_R   0.118037 0.403550 0.733411 -0.311460

loop_
_geom_bond_atom_site_label_1
_geom_bond_atom_site_label_2
_geom_bond_distance
_ccdc_geom_bond_type
Cu2   O14   1.966706 S    
C8    C52   1.476780 S    
O6    C14   1.306513 A    
C1    C37   1.403121 A    
C7    C51   1.476795 S    
C40   C52   1.419977 A    
C37   N1    1.435492 S    
C28   C36   1.395160 A    
C5    C46   1.402674 A    
Cu6   O18   1.964906 S    
C22   C35   1.403620 A    
C9    C53   1.477469 S    
Cu1   Cu2   2.680588 S    
C30   C34   1.395275 A    
C17   O23   1.287148 A    
H7    C26   1.083220 S    
H4    C35   1.083203 S    
C3    C39   1.402192 A    
O3    C15   1.306784 A    
C64   H16   1.083309 S    
C47   N11   1.435561 S    
C57   C66   1.396776 A    
O1    C17   1.305996 A    
C16   C60   1.477008 S    
C23   C34   1.400579 A    
C13   O19   1.287698 A    
C15   C59   1.477010 S    
N12   O48   1.301089 A    
O9    Cu4   1.963986 S    
C10   O16   1.289752 A    
C26   C32   1.394813 A    
C56   C61   1.396892 A    
C2    C20   1.474792 S    
O8    Cu5   1.962977 S    
C15   O21   1.289547 A    
C60   C63   1.397469 A    
C42   C54   1.420027 A    
C66   H18   1.083320 S    
N2    O27   1.301217 A    
C65   H17   1.083320 S    
C48   N12   1.435571 S    
Cu1   O13   1.966707 S    
C7    O13   1.287009 A    
C27   C35   1.395148 A    
C24   C30   1.403617 A    
C21   C27   1.400353 A    
C9    O15   1.289760 A    
N1    O26   1.301244 A    
O5    Cu5   1.965417 S    
C1    C44   1.401723 A    
C6    C42   1.404321 A    
Cu5   Cu6   2.682193 S    
C20   C31   1.400167 A    
C25   C31   1.394796 A    
C13   C57   1.476586 S    
C49   C61   1.397436 A    
C37   C49   1.419903 A    
C47   C59   1.420055 A    
O4    Cu4   1.962823 S    
C63   H15   1.083308 S    
C41   C53   1.420068 A    
C4    C47   1.403490 A    
H9    C30   1.083178 S    
C61   H13   1.083306 S    
Cu3   Cu4   2.684161 S    
N7    O38   1.300908 A    
C40   N4    1.434270 S    
N11   O46   1.301219 A    
N11   O45   1.301093 A    
C45   C57   1.420035 A    
O10   Cu3   1.963986 S    
C38   N2    1.435503 S    
O11   Cu2   1.965487 S    
O1    Cu1   1.964210 S    
O2    Cu2   1.964210 S    
Cu2   O23   1.965837 S    
N12   O47   1.301219 A    
C12   C50   1.476730 S    
O10   C10   1.306950 A    
H2    C31   1.083109 S    
C41   N5    1.435774 S    
Cu1   O24   1.965837 S    
C8    O14   1.287014 A    
C23   C29   1.403491 A    
Cu5   O20   1.966683 S    
C14   C58   1.476644 S    
O12   C8    1.306373 A    
C5    C41   1.404210 A    
C38   C50   1.419903 A    
N6    O36   1.301135 A    
C22   C28   1.400347 A    
N5    O34   1.301251 A    
C39   C51   1.420010 A    
C19   C25   1.403470 A    
Cu3   O15   1.965643 S    
Cu4   O16   1.965642 S    
C4    C40   1.402144 A    
C14   O20   1.287718 A    
N3    O29   1.300802 A    
C46   C58   1.419924 A    
C53   C65   1.397327 A    
C16   O22   1.289553 A    
C44   N8    1.434280 S    
C2    C38   1.403136 A    
N7    O37   1.300802 A    
N10   O44   1.301375 A    
C62   H14   1.083306 S    
O3    Cu3   1.962822 S    
H5    C34   1.083105 S    
O7    C11   1.306211 A    
C11   C49   1.476741 S    
O9    C9    1.306908 A    
N8    O40   1.300788 A    
N4    O32   1.300846 A    
Cu3   O22   1.964739 S    
O2    C18   1.305993 A    
C59   C64   1.397481 A    
C46   N10   1.434907 S    
C52   C64   1.396757 A    
C58   C65   1.396839 A    
C11   O17   1.288798 A    
N10   O43   1.301608 A    
C2    C43   1.401741 A    
C45   N9    1.435008 S    
N8    O39   1.300897 A    
N9    O41   1.300934 A    
O6    Cu6   1.965417 S    
C19   C32   1.400166 A    
C6    C24   1.476083 S    
H8    C25   1.083220 S    
C5    C23   1.475933 S    
C6    C45   1.402933 A    
Cu5   O17   1.964908 S    
C20   C26   1.403482 A    
C10   C54   1.477472 S    
O8    C12   1.306217 A    
N6    O35   1.301271 A    
H3    C36   1.083203 S    
C51   C63   1.396755 A    
C48   C60   1.420039 A    
C3    C48   1.403502 A    
C29   C33   1.395095 A    
N9    O42   1.301292 A    
N1    O25   1.301099 A    
H12   C27   1.083098 S    
C24   C33   1.400585 A    
O12   Cu1   1.965487 S    
C42   N6    1.435822 S    
C18   O24   1.287154 A    
O4    C16   1.306781 A    
C54   C66   1.397206 A    
C44   C56   1.419541 A    
N2    O28   1.301074 A    
N3    O30   1.300900 A    
C55   C62   1.396883 A    
C43   C55   1.419554 A    
H10   C29   1.083189 S    
C50   C62   1.397424 A    
H11   C28   1.083097 S    
H6    C33   1.083116 S    
O11   C7    1.306383 A    
Cu4   O21   1.964738 S    
C1    C19   1.474777 S    
C39   N3    1.434300 S    
N5    O33   1.301124 A    
Cu6   O19   1.966684 S    
C3    C21   1.475762 S    
H1    C32   1.083106 S    
C12   O18   1.288795 A    
C18   C56   1.476267 S    
C4    C22   1.475740 S    
C17   C55   1.476269 S    
O7    Cu6   1.962979 S    
C43   N7    1.434298 S    
N4    O31   1.300918 A    
O5    C13   1.306488 A    
C21   C36   1.403632 A    
