data_mof_unit_19729.cif
_audit_creation_date              2012-12-10T17:49:31-0500
_audit_creation_method            fapswitch 2.2
_symmetry_space_group_name_H-M    P1
_symmetry_Int_Tables_number       1
_space_group_crystal_system       triclinic
_cell_length_a                    14.7379
_cell_length_b                    14.73958
_cell_length_c                    15.867341
_cell_angle_alpha                 76.018616
_cell_angle_beta                  102.804917
_cell_angle_gamma                 115.215135
_cell_volume                      2998.25862763

loop_
_atom_site_label
_atom_site_type_symbol
_atom_type_description
_atom_site_fract_x
_atom_site_fract_y
_atom_site_fract_z
_atom_type_partial_charge
C1    C     C_R   0.880216 0.312085 0.512518 0.821750
C2    C     C_3   0.083225 0.598244 0.043824 -0.385088
C3    C     C_3   0.997415 0.501055 0.082064 0.271173
C4    C     C_3   0.895110 0.499308 0.028073 -0.438923
C5    C     C_3   0.891058 0.486635 0.932719 0.341915
C6    C     C_1   0.998548 0.500964 0.174509 -0.086618
C7    C     C_1   0.998274 0.498684 0.824607 -0.073447
C8    C     C_1   0.998882 0.498862 0.749185 -0.159279
C9    C     C_R   0.812441 0.203554 0.518965 -0.133692
C10   C     C_R   0.187218 0.795319 0.487748 -0.140621
C11   C     C_R   0.785563 0.025390 0.559487 -0.198710
C12   C     C_R   0.999615 0.499529 0.659628 0.837156
C13   C     C_R   0.850587 0.127780 0.553088 -0.275593
C14   C     C_R   0.708209 0.175142 0.490386 0.409556
C15   C     C_R   0.640846 0.073543 0.513875 -0.040710
C16   C     C_R   0.679998 0.996786 0.539719 0.051815
C17   C     C_R   0.535815 0.046880 0.510413 0.054189
C18   C     C_R   0.467964 0.944106 0.510588 0.056852
C19   C     C_R   0.508303 0.868822 0.527659 -0.257894
C20   C     C_R   0.612560 0.893994 0.545260 -0.015119
C21   C     C_R   0.498064 0.119119 0.514233 -0.164670
C22   C     C_R   0.395420 0.092475 0.512140 -0.236118
C23   C     C_R   0.119576 0.687752 0.487693 0.825339
C24   C     C_R   0.326834 0.993676 0.503984 0.105342
C25   C     C_R   0.362092 0.919525 0.499661 0.102484
C26   C     C_R   0.223564 0.967321 0.503811 -0.292160
C27   C     C_R   0.152952 0.868073 0.496606 0.431892
C28   C     C_R   0.290227 0.822788 0.486150 -0.329331
C29   C     C_R   0.709503 0.656980 0.343458 -0.322624
C30   C     C_R   0.792925 0.630836 0.370717 0.052993
C31   C     C_R   0.717816 0.516446 0.493872 0.097419
C32   C     C_R   0.634515 0.547646 0.473602 -0.055845
C33   C     C_R   0.629507 0.614579 0.393630 0.176277
C34   C     C_R   0.000120 0.500230 0.340294 0.799659
C35   C     C_R   0.553780 0.511818 0.526041 0.082057
C36   C     C_R   0.462228 0.527000 0.489934 0.084413
C37   C     C_R   0.460092 0.591095 0.408237 -0.233496
C38   C     C_R   0.543582 0.636811 0.362920 -0.184859
C39   C     C_R   0.563353 0.466800 0.614954 -0.208990
C40   C     C_R   0.480603 0.418111 0.660620 -0.198136
C41   C     C_R   0.386887 0.420258 0.622016 0.159994
C42   C     C_R   0.377112 0.478952 0.538067 -0.027560
C43   C     C_R   0.304004 0.368316 0.668834 -0.317900
C44   C     C_R   0.212852 0.378298 0.634425 0.079402
C45   C     C_3   0.084294 0.597119 0.946743 -0.401838
C46   C     C_R   0.282561 0.487650 0.507543 0.009408
C47   C     C_3   0.019370 0.408493 0.975692 -0.462011
C48   C     C_3   0.013760 0.406598 0.072728 -0.391095
C49   C     C_1   0.999740 0.500512 0.250441 -0.184503
C50   C     C_3   0.997667 0.499606 0.916342 0.219539
Cu1   Cu    Cu3+1 0.081750 0.475690 0.522550 0.930665
Cu2   Cu    Cu3+1 0.918250 0.524310 0.477450 0.972300
H1    H     H_    0.157687 0.603162 0.082341 0.170154
H2    H     H_    0.081112 0.668025 0.905256 0.145729
H3    H     H_    0.072506 0.667075 0.048597 0.155922
H4    H     H_    0.831003 0.434967 0.058120 0.147111
H5    H     H_    0.313028 0.767032 0.474197 0.166351
H6    H     H_    0.369715 0.149502 0.517352 0.150492
H7    H     H_    0.818236 0.969080 0.582618 0.156666
H8    H     H_    0.930965 0.147496 0.573039 0.176159
H9    H     H_    0.158562 0.598591 0.940058 0.176477
H10   H     H_    0.460207 0.788799 0.534006 0.152967
H11   H     H_    0.547656 0.195527 0.524798 0.204174
H12   H     H_    0.198374 0.022741 0.513625 0.141500
H13   H     H_    0.539341 0.687402 0.301336 0.133723
H14   H     H_    0.270004 0.535009 0.446753 0.121030
H15   H     H_    0.149954 0.341511 0.672028 0.125331
H16   H     H_    0.490719 0.380418 0.727604 0.148556
H17   H     H_    0.707386 0.709964 0.283097 0.135645
H18   H     H_    0.855190 0.664960 0.332464 0.127316
H19   H     H_    0.963773 0.335360 0.955068 0.162754
H20   H     H_    0.395491 0.609326 0.378288 0.126493
H21   H     H_    0.635489 0.471923 0.652204 0.160646
H22   H     H_    0.310557 0.322686 0.732832 0.136046
H23   H     H_    0.095671 0.414652 0.969531 0.187240
H24   H     H_    0.085010 0.405016 0.113866 0.176794
H25   H     H_    0.950428 0.335830 0.096588 0.163097
H26   H     H_    0.841565 0.405109 0.930105 0.117287
H27   H     H_    0.885698 0.569681 0.029695 0.169944
N1    N     N_R   0.795410 0.560790 0.443550 -0.194425
N2    N     N_R   0.204590 0.439170 0.556520 -0.177288
O1    O     O_R   0.977910 0.338120 0.529720 -0.598889
O2    O     O_R   0.839850 0.379180 0.491640 -0.526295
O3    O     O_R   0.069060 0.479460 0.639610 -0.587244
O4    O     O_R   0.931000 0.520530 0.601530 -0.567770
O5    O     O_R   0.160150 0.620820 0.508360 -0.589657
O6    O     O_R   0.022090 0.661880 0.470280 -0.553248
O7    O     O_R   0.069000 0.479470 0.398470 -0.581520
O8    O     O_R   0.930940 0.520540 0.360390 -0.596199
C51   C     C_1   0.647830 0.812269 0.567094 0.212222
N3    N     N_1   0.675931 0.746840 0.584364 -0.305867
O9    O     O_3   0.054803 0.838222 0.512744 -0.597216
C52   C     C_3   0.001534 0.883632 0.442948 0.049079
H28   H     H_    0.988800 0.850739 0.383021 0.136130
H29   H     H_    0.042741 0.967678 0.428203 0.126577
C53   C     C_3   0.899230 0.861674 0.468669 -0.283423
H30   H     H_    0.855439 0.778201 0.482049 0.242990
H31   H     H_    0.911759 0.892090 0.529759 0.213958
C54   C     C_3   0.838102 0.910301 0.396630 -0.930865
H32   H     H_    0.877670 0.994472 0.386871 0.255165
H33   H     H_    0.762620 0.889050 0.415573 0.270134
H34   H     H_    0.827244 0.883531 0.334040 0.248029
O10   O     O_3   0.673557 0.246380 0.436178 -0.616008
C55   C     C_3   0.647412 0.226958 0.348894 0.055510
H35   H     H_    0.593087 0.262280 0.314506 0.167864
H36   H     H_    0.607689 0.144343 0.344781 0.132167
C56   C     C_3   0.740900 0.275201 0.300891 -0.341379
H37   H     H_    0.776319 0.358275 0.301772 0.243102
H38   H     H_    0.797013 0.241863 0.334444 0.200344
C57   C     C_3   0.713161 0.257545 0.206062 -0.940572
H39   H     H_    0.675803 0.174812 0.203451 0.257347
H40   H     H_    0.782999 0.289886 0.174551 0.252090
H41   H     H_    0.661585 0.295197 0.169138 0.257048
C58   C     C_1   0.716551 0.429462 0.559883 0.331161
N4    N     N_1   0.714884 0.359456 0.612954 -0.310272
O11   O     O_3   0.837831 0.538624 0.867980 -0.611836
C59   C     C_3   0.891648 0.644765 0.848068 0.066707
H42   H     H_    0.946608 0.661366 0.802913 0.161939
H43   H     H_    0.930974 0.679652 0.907692 0.129709
C60   C     C_3   0.816742 0.692964 0.800223 -0.301694
H44   H     H_    0.773824 0.656534 0.741884 0.244919
H45   H     H_    0.762029 0.679759 0.844599 0.216487
C61   C     C_3   0.870710 0.807151 0.770412 -0.926244
H46   H     H_    0.914712 0.845288 0.827556 0.248312
H47   H     H_    0.814000 0.840017 0.737882 0.264787
H48   H     H_    0.922566 0.821824 0.722919 0.261770

loop_
_geom_bond_atom_site_label_1
_geom_bond_atom_site_label_2
_ccdc_geom_bond_type
C10   C27   A    
C52   H28   S    
C41   C43   A    
C41   C42   A    
C48   H24   S    
C36   C42   A    
C19   C20   A    
C9    C14   A    
C3    C6    S    
C55   H36   S    
C58   N4    T    
C14   O10   S    
C61   H46   S    
C13   H8    S    
C28   H5    S    
C25   C28   A    
C26   C27   A    
C37   C38   A    
C12   O4    A    
C36   C37   A    
C24   C26   A    
C46   H14   S    
C2    H3    S    
C59   H43   S    
C61   H47   S    
C19   H10   S    
C15   C16   A    
C53   C54   S    
C29   C33   A    
C3    C48   S    
O11   C59   S    
C12   O3    A    
C18   C19   A    
C42   C46   A    
C9    C13   A    
C57   H39   S    
C26   H12   S    
C35   C36   A    
C23   O5    A    
C53   H31   S    
C47   C48   S    
C56   H37   S    
Cu1   N2    S    
C31   C58   S    
C60   C61   S    
C16   C20   A    
C30   N1    A    
C43   H22   S    
C52   H29   S    
C23   O6    A    
C21   C22   A    
C4    H4    S    
C56   H38   S    
Cu2   O8    S    
C18   C25   A    
C11   H7    S    
Cu1   O5    S    
C55   H35   S    
C30   H18   S    
C60   H45   S    
C47   C50   S    
C29   H17   S    
C2    C45   S    
Cu1   Cu2   S    
C32   C35   A    
C7    C8    T    
C1    C9    S    
C24   C25   A    
C4    H27   S    
C31   N1    A    
C44   N2    A    
C59   C60   S    
C39   C40   A    
C61   H48   S    
C1    O1    A    
C20   C51   S    
C17   C21   A    
C48   H25   S    
Cu2   O2    S    
C35   C39   A    
C43   C44   A    
C29   C30   A    
C46   N2    A    
C11   C16   A    
C31   C32   A    
C57   H41   S    
C38   H13   S    
C8    C12   S    
C53   H30   S    
C17   C18   A    
C27   O9    S    
C34   O7    A    
Cu1   O1    S    
C47   H19   S    
C40   C41   A    
C54   H33   S    
C45   H2    S    
C52   C53   S    
C5    O11   S    
C56   C57   S    
C22   C24   A    
C5    C50   S    
C3    C4    S    
C60   H44   S    
C10   C28   A    
C15   C17   A    
Cu2   O4    S    
C34   C49   S    
Cu2   O6    S    
C7    C50   S    
C4    C5    S    
C2    H1    S    
Cu1   O7    S    
C22   H6    S    
C10   C23   S    
C1    O2    A    
C33   C38   A    
C54   H32   S    
C32   C33   A    
C2    C3    S    
C34   O8    A    
C47   H23   S    
C59   H42   S    
C11   C13   A    
C51   N3    T    
C45   C50   S    
C45   H9    S    
O9    C52   S    
C39   H21   S    
C6    C49   T    
C57   H40   S    
C21   H11   S    
C54   H34   S    
C40   H16   S    
C37   H20   S    
O10   C55   S    
C14   C15   A    
C44   H15   S    
C5    H26   S    
Cu2   N1    S    
Cu1   O3    S    
C55   C56   S    
