data_mof_unit_7508.cif
_audit_creation_date              2013-03-05T15:44:33-0500
_audit_creation_method            fapswitch 2.2
_symmetry_space_group_name_H-M    P1
_symmetry_Int_Tables_number       1
_space_group_crystal_system       triclinic
_cell_length_a                    27.766339
_cell_length_b                    10.905499
_cell_length_c                    9.7161
_cell_angle_alpha                 90.190516
_cell_angle_beta                  91.161929
_cell_angle_gamma                 90.725695
_cell_volume                      2941.23148701

loop_
_atom_site_label
_atom_site_type_symbol
_atom_site_description
_atom_site_fract_x
_atom_site_fract_y
_atom_site_fract_z
_atom_type_partial_charge
O1    O     O_R   0.500010 0.321960 0.617040 -0.584800
O2    O     O_R   0.499990 0.321920 0.382900 -0.547774
C1    C     C_R   0.498453 0.265426 0.499733 0.865937
O3    O     O_R   0.430270 0.500040 0.617060 -0.578437
O4    O     O_R   0.430260 0.500000 0.382910 -0.470807
C2    C     C_R   0.407666 0.503888 0.498821 0.884029
Cu1   Cu    Cu3+1 0.500010 0.500020 0.638630 0.976615
Cu2   Cu    Cu3+1 0.499990 0.499980 0.361370 1.043597
O5    O     O_R   0.500010 0.678080 0.617100 -0.598969
O6    O     O_R   0.499990 0.678040 0.382960 -0.549260
O7    O     O_R   0.569740 0.500000 0.617090 -0.576867
O8    O     O_R   0.569730 0.499960 0.382940 -0.599232
C3    C     C_R   0.502820 0.734616 0.500371 0.810573
C4    C     C_R   0.592562 0.499839 0.501272 0.798575
C5    C     C_R   0.177076 0.397608 0.455285 0.579496
O9    O     O_2   0.201410 0.294781 0.425682 -0.517202
N1    N     N_R   0.201799 0.503497 0.488258 -0.462564
C6    C     C_R   0.177988 0.609779 0.515745 0.546493
C7    C     C_R   0.278726 0.582335 0.401711 -0.172420
C8    C     C_R   0.329122 0.589114 0.406295 -0.019693
C9    C     C_R   0.329347 0.432383 0.585023 -0.221006
C10   C     C_R   0.279169 0.430128 0.582518 -0.079848
C11   C     C_R   0.253610 0.504366 0.490166 0.333941
C12   C     C_R   0.101408 0.504274 0.476828 -0.045026
C13   C     C_R   0.126437 0.395867 0.450010 -0.103209
C14   C     C_R   0.100682 0.290115 0.410471 -0.167080
C15   C     C_R   0.127507 0.612668 0.508255 -0.010040
C16   C     C_R   0.354829 0.509911 0.496378 -0.039219
H1    H     H_    0.348395 0.372239 0.655392 0.178288
H2    H     H_    0.260103 0.370439 0.652311 0.162288
H3    H     H_    0.119883 0.209125 0.379070 0.232413
C17   C     C_R   0.645671 0.499258 0.504255 -0.019425
C18   C     C_R   0.974169 0.391514 0.473804 0.060858
C19   C     C_R   0.974666 0.617025 0.480868 0.043962
C20   C     C_R   0.949166 0.503795 0.480435 0.080684
C21   C     C_R   0.948614 0.282614 0.503185 -0.093639
C22   C     C_R   0.898755 0.281664 0.515403 -0.121681
C23   C     C_R   0.873027 0.390826 0.504644 -0.030038
C24   C     C_R   0.898290 0.502651 0.489965 -0.044877
C25   C     C_R   0.872746 0.613337 0.486329 -0.021505
C26   C     C_R   0.822321 0.609819 0.493111 0.593924
N2    N     N_R   0.798455 0.500073 0.505828 -0.451570
C27   C     C_R   0.822604 0.391609 0.512080 0.604841
C28   C     C_R   0.721117 0.490281 0.383907 -0.136643
C29   C     C_R   0.671019 0.490658 0.381280 -0.191781
C30   C     C_R   0.671411 0.507279 0.630102 -0.286693
C31   C     C_R   0.721942 0.507283 0.634257 0.031754
C32   C     C_R   0.746862 0.498664 0.508978 0.348260
O10   O     O_2   0.797858 0.285151 0.525330 -0.511202
C33   C     C_R   0.024425 0.392783 0.448936 -0.092057
C34   C     C_R   0.050365 0.504398 0.472397 0.034799
C35   C     C_R   0.025659 0.616449 0.490945 0.063729
C36   C     C_R   0.050364 0.288716 0.402075 0.392278
H4    H     H_    0.652182 0.484102 0.282773 0.160693
H5    H     H_    0.740206 0.483849 0.288066 0.148686
H6    H     H_    0.880533 0.195105 0.534281 0.194611
H7    H     H_    0.967034 0.197706 0.521298 0.196145
O11   O     O_2   0.203105 0.712332 0.550966 -0.526690
C37   C     C_R   0.102801 0.721479 0.531459 -0.121090
H8    H     H_    0.258571 0.640764 0.331931 0.147462
H9    H     H_    0.122022 0.805912 0.556768 0.198963
C38   C     C_R   0.948124 0.726708 0.474487 -0.186620
C39   C     C_R   0.898022 0.724588 0.475921 -0.117264
O12   O     O_2   0.797278 0.715004 0.487518 -0.515833
C40   C     C_R   0.052836 0.723778 0.521907 -0.174293
H10   H     H_    0.965199 0.815585 0.464922 0.179669
H11   H     H_    0.652102 0.514129 0.725622 0.153691
H12   H     H_    0.879199 0.810918 0.470713 0.197354
H13   H     H_    0.036287 0.810303 0.544437 0.170320
C41   C     C_2   0.499019 0.932995 0.392425 -0.139847
C42   C     C_2   0.513777 0.865317 0.501100 -0.159323
H14   H     H_    0.481199 0.889269 0.304200 0.188265
C43   C     C_2   0.502424 0.066696 0.388162 -0.075837
C44   C     C_2   0.493917 0.133437 0.500430 -0.215045
H15   H     H_    0.509430 0.110005 0.289923 0.174173
H16   H     H_    0.483846 0.090065 0.596328 0.149228
C45   C     C_2   0.482400 0.412282 0.921388 -0.119829
N3    N     N_2   0.499480 0.498660 0.846910 -0.310672
H17   H     H_    0.469818 0.329015 0.870430 0.212851
H18   H     H_    0.507246 0.580880 0.895420 0.191749
C46   C     C_2   0.472113 0.429808 0.071115 0.482748
N4    N     N_2   0.499460 0.498630 0.153040 -0.337426
H19   H     H_    0.530578 0.532576 0.110648 0.153441
C47   C     C_2   0.746739 0.516821 0.770854 0.419247
H20   H     H_    0.725557 0.524239 0.863203 0.056973
O13   O     O_2   0.790566 0.516622 0.783145 -0.519795
C48   C     C_2   0.545889 0.912137 0.614988 0.352732
H21   H     H_    0.545665 0.867539 0.714658 0.085038
O14   O     O_2   0.574772 0.995582 0.596602 -0.512449
S1    S     S_3+6 0.416382 0.362542 0.120274 0.027388
O15   O     O_2   0.421347 0.283214 0.245382 -0.286332
O16   O     O_2   0.381172 0.462874 0.146790 -0.298057
O17   O     O_3   0.393836 0.274980 0.990730 -0.568296
H22   H     H_    0.361182 0.250209 0.020102 0.385173
S2    S     S_3+6 0.024320 0.167408 0.301461 -0.010447
O18   O     O_2   0.016896 0.056391 0.390260 -0.344709
O19   O     O_2   0.977183 0.204761 0.236397 -0.265365
O20   O     O_3   0.062399 0.130695 0.175718 -0.511926
H23   H     H_    0.047150 0.059185 0.128294 0.385522
C49   C     C_2   0.352419 0.684701 0.320883 0.455356
H24   H     H_    0.332960 0.722289 0.232981 0.082847
O21   O     O_2   0.392219 0.726830 0.350525 -0.555952

loop_
_geom_bond_atom_site_label_1
_geom_bond_atom_site_label_2
_geom_bond_distance
_ccdc_geom_bond_type
C48   H21   1.085219 S    
O17   H22   0.990610 S    
C36   S2    1.779672 S    
C26   N2    1.367850 A    
C20   C24   1.417455 A    
S2    O18   1.503496 D    
C12   C15   1.408069 A    
C46   N4    1.315505 D    
S2    O20   1.682475 S    
Cu1   Cu2   2.693873 S    
C45   N3    1.281820 D    
Cu1   O7    1.951640 S    
N1    C11   1.438278 S    
C25   C39   1.398881 A    
C44   H16   1.086384 S    
Cu2   N4    2.023913 S    
C21   C22   1.391789 A    
C47   O13   1.220379 D    
C23   C24   1.408233 A    
O7    C4    1.302610 A    
N3    H18   1.029945 S    
C5    C13   1.405837 A    
C5    O9    1.349692 S    
C19   C38   1.413745 A    
C18   C21   1.408744 A    
C5    N1    1.369628 A    
C19   C20   1.415571 A    
C17   C29   1.402455 A    
C1    C44   1.443369 S    
O5    C3    1.295971 A    
C39   H12   1.083420 S    
C22   H6    1.083287 S    
C6    O11   1.349929 S    
C2    C16   1.469105 S    
C38   C39   1.391412 A    
C7    C8    1.400121 A    
C41   C42   1.350133 D    
C12   C34   1.417082 A    
C14   H3    1.083592 S    
C9    C10   1.392880 A    
C43   H15   1.086364 S    
O3    Cu1   1.943508 S    
C33   C34   1.421836 A    
C45   H17   1.083383 S    
C43   C44   1.336013 D    
C37   H9    1.083448 S    
C33   C36   1.429900 A    
C38   H10   1.078700 S    
C34   C35   1.421632 A    
C47   H20   1.086133 S    
O3    C2    1.298936 A    
C21   H7    1.076754 S    
C24   C25   1.407939 A    
C27   O10   1.349428 S    
C8    C16   1.420181 A    
C18   C33   1.420901 A    
C9    H1    1.083753 S    
O1    C1    1.293713 A    
C7    C11   1.400753 A    
C22   C23   1.399223 A    
S1    O16   1.501602 D    
C31   C32   1.415727 A    
C8    C49   1.484657 S    
C45   C46   1.500287 S    
Cu2   O8    1.943503 S    
C41   C43   1.460718 S    
C49   O21   1.220092 D    
N1    C6    1.369814 A    
N2    C32   1.433382 S    
C31   C47   1.485443 S    
C12   C13   1.405220 A    
Cu1   N3    2.024123 S    
C42   C48   1.491590 S    
C46   S1    1.778876 S    
C25   C26   1.403061 A    
C9    C16   1.404162 A    
O8    C4    1.301640 A    
C29   H4    1.083064 S    
O20   H23   0.990503 S    
C48   O14   1.221304 D    
N2    C27   1.367987 A    
C14   C36   1.397750 A    
C28   C29   1.390796 A    
S1    O17   1.683120 S    
Cu1   O5    1.953761 S    
C30   C31   1.402822 A    
C10   H2    1.082863 S    
O1    Cu1   1.952437 S    
C17   C30   1.405633 A    
O2    Cu2   1.953761 S    
C6    C15   1.402839 A    
C4    C17   1.474417 S    
O6    C3    1.295639 A    
O4    Cu2   1.951643 S    
S2    O19   1.503405 D    
C7    H8    1.084155 S    
C3    C42   1.453661 S    
C19   C35   1.417397 A    
O2    C1    1.294578 A    
C13   C14   1.397885 A    
C30   H11   1.084024 S    
C15   C37   1.398080 A    
C37   C40   1.389119 A    
C28   H5    1.083286 S    
S1    O15   1.499402 D    
O4    C2    1.301046 A    
C40   H13   1.078490 S    
C49   H24   1.085631 S    
C18   C20   1.417145 A    
C23   C27   1.403493 A    
Cu2   O6    1.952437 S    
N4    H19   1.029849 S    
C10   C11   1.399207 A    
C41   H14   1.086796 S    
C26   O12   1.349578 S    
C35   C40   1.412803 A    
C28   C32   1.399457 A    
