data_mof_unit_29143.cif
_audit_creation_date              2012-12-10T19:02:40-0500
_audit_creation_method            fapswitch 2.2
_symmetry_space_group_name_H-M    P1
_symmetry_Int_Tables_number       1
_space_group_crystal_system       triclinic
_cell_length_a                    9.670706
_cell_length_b                    10.81853
_cell_length_c                    13.849855
_cell_angle_alpha                 93.302519
_cell_angle_beta                  83.809106
_cell_angle_gamma                 89.965258
_cell_volume                      1438.13416158

loop_
_atom_site_label
_atom_site_type_symbol
_atom_type_description
_atom_site_fract_x
_atom_site_fract_y
_atom_site_fract_z
_atom_type_partial_charge
C1    C     C_R   0.500038 0.737076 0.497491 0.776360
C2    C     C_1   0.461888 0.499446 0.786330 -0.187314
C3    C     C_R   0.375255 0.936799 0.504230 0.147603
C4    C     C_R   0.499323 0.869422 0.486705 -0.086268
C5    C     C_R   0.621363 0.931735 0.454606 -0.229076
C6    C     C_R   0.622366 0.060867 0.458141 -0.231587
C7    C     C_R   0.499844 0.128369 0.489144 -0.094951
C8    C     C_R   0.375169 0.064112 0.504818 0.126661
C9    C     C_3   0.263701 0.075797 0.588441 -0.458776
C10   C     C_3   0.263851 0.935399 0.587343 -0.508375
C11   C     C_R   0.939497 0.445937 0.424132 0.139130
C12   C     C_R   0.476438 0.500177 0.682805 0.802877
C13   C     C_R   0.915166 0.577097 0.564830 0.213143
C14   C     C_R   0.063314 0.569817 0.569304 0.208682
C15   C     C_R   0.084919 0.446533 0.423968 0.164052
C16   C     C_3   0.098816 0.316521 0.382375 -0.488020
C17   C     C_3   0.941140 0.316310 0.380559 0.043421
C18   C     C_R   0.500147 0.262499 0.498294 0.784836
C19   C     C_R   0.523758 0.499378 0.317147 0.816279
C20   C     C_1   0.540194 0.498675 0.213495 -0.202799
C21   C     C_2   0.568567 0.497536 0.021479 0.173990
C22   C     C_2   0.451258 0.497148 0.977336 -0.229161
C23   C     C_1   0.454385 0.498526 0.873397 -0.015321
C24   C     C_1   0.553847 0.498099 0.126215 0.003606
Cu1   Cu    Cu3+1 0.359330 0.500020 0.500000 0.929700
Cu2   Cu    Cu3+1 0.640670 0.499980 0.500000 0.928677
H1    H     H_    0.350068 0.495706 0.019901 0.144514
H2    H     H_    0.159188 0.310574 0.309201 0.208071
H3    H     H_    0.134588 0.252284 0.434412 0.183440
H4    H     H_    0.887074 0.249356 0.429061 0.151588
H5    H     H_    0.716942 0.881556 0.431268 0.169206
H6    H     H_    0.719526 0.106960 0.440203 0.156620
H7    H     H_    0.300820 0.120737 0.655086 0.197160
H8    H     H_    0.165517 0.114721 0.567619 0.192964
H9    H     H_    0.300479 0.898386 0.653477 0.187628
H10   H     H_    0.167180 0.893530 0.564281 0.201308
N1    N     N_R   0.852140 0.499070 0.499400 -0.225905
N2    N     N_R   0.148050 0.499110 0.499400 -0.208740
O1    O     O_R   0.381190 0.680360 0.500000 -0.594394
O2    O     O_R   0.618770 0.680320 0.499990 -0.582406
O3    O     O_R   0.364410 0.500000 0.637850 -0.573261
O4    O     O_R   0.602000 0.499960 0.637840 -0.597344
O5    O     O_R   0.381230 0.319680 0.500010 -0.573483
O6    O     O_R   0.618810 0.319640 0.500000 -0.582152
O7    O     O_R   0.398000 0.500040 0.362160 -0.566212
O8    O     O_R   0.635590 0.500000 0.362150 -0.564926
C25   C     C_3   0.121827 0.633116 0.657193 -0.329468
C26   C     C_3   0.102849 0.552558 0.745286 -0.822157
H11   H     H_    0.137831 0.455831 0.725344 0.270605
H12   H     H_    0.163208 0.592036 0.803383 0.239184
H13   H     H_    0.991982 0.549164 0.775290 0.223370
H14   H     H_    0.228646 0.664232 0.640783 0.238650
H15   H     H_    0.073802 0.723511 0.679934 0.166671
N3    N     N_2   0.903994 0.310629 0.281276 -0.403009
H16   H     H_    0.900835 0.393800 0.248526 0.265210
C27   C     C_3   0.794894 0.225582 0.259839 -0.664836
H17   H     H_    0.781160 0.225252 0.181271 0.217883
H18   H     H_    0.695273 0.254271 0.302644 0.229988
H19   H     H_    0.823401 0.130259 0.276418 0.224877
C28   C     C_3   0.711607 0.501462 0.963725 -0.358665
C29   C     C_3   0.832956 0.492345 0.025355 -0.852899
H20   H     H_    0.830670 0.571643 0.080164 0.255588
H21   H     H_    0.827964 0.404130 0.062775 0.255528
H22   H     H_    0.932791 0.494507 0.977646 0.240950
H23   H     H_    0.721244 0.423392 0.907531 0.206284
H24   H     H_    0.721338 0.589363 0.925804 0.198420
C30   C     C_3   0.833493 0.679197 0.628696 -0.325419
C31   C     C_3   0.861784 0.808625 0.591163 -0.881175
H25   H     H_    0.940653 0.858836 0.629965 0.229129
H26   H     H_    0.896213 0.803387 0.511914 0.252076
H27   H     H_    0.765879 0.866152 0.605351 0.253543
H28   H     H_    0.722206 0.669064 0.635941 0.256178
H29   H     H_    0.853523 0.677739 0.705763 0.162452

loop_
_geom_bond_atom_site_label_1
_geom_bond_atom_site_label_2
_ccdc_geom_bond_type
C16   H2    S    
C29   H22   S    
C6    H6    S    
C30   C31   S    
C19   O7    A    
C15   N2    A    
C25   H14   S    
C30   H29   S    
C7    C18   S    
C18   O6    A    
Cu1   N2    S    
C14   N2    A    
C9    C10   S    
C13   N1    A    
C19   C20   S    
C27   H19   S    
C25   H15   S    
C1    C4    S    
C2    C12   S    
Cu1   O5    S    
C26   H12   S    
Cu1   Cu2   S    
C19   O8    A    
C28   H24   S    
C7    C8    A    
Cu2   N1    S    
C3    C10   S    
C18   O5    A    
Cu1   O1    S    
C9    H7    S    
C17   H4    S    
Cu2   O2    S    
C6    C7    A    
C21   C28   S    
C31   H27   S    
C31   H26   S    
C26   H11   S    
C14   C25   S    
C27   H18   S    
C28   H23   S    
C3    C8    A    
C22   H1    S    
C22   C23   S    
C5    C6    A    
C10   H9    S    
N3    C27   S    
C16   C17   S    
C29   H20   S    
C1    O1    A    
Cu2   O6    S    
C15   C16   S    
C25   C26   S    
Cu1   O7    S    
C4    C5    A    
C27   H17   S    
Cu2   O4    S    
C12   O3    A    
C29   H21   S    
C30   H28   S    
C13   C30   S    
C21   C24   S    
Cu1   O3    S    
C2    C23   T    
C11   N1    A    
C20   C24   T    
N3    H16   S    
C28   C29   S    
C12   O4    A    
C1    O2    A    
C5    H5    S    
C16   H3    S    
C21   C22   D    
Cu2   O8    S    
C11   C15   A    
C17   N3    S    
C31   H25   S    
C26   H13   S    
C11   C17   S    
C3    C4    A    
C9    H8    S    
C8    C9    S    
C10   H10   S    
C13   C14   A    
