data_mof_unit_14622.cif
_audit_creation_date              2013-03-05T16:47:21-0500
_audit_creation_method            fapswitch 2.2
_symmetry_space_group_name_H-M    P1
_symmetry_Int_Tables_number       1
_space_group_crystal_system       triclinic
_cell_length_a                    10.855309
_cell_length_b                    10.924233
_cell_length_c                    9.664071
_cell_angle_alpha                 90.588436
_cell_angle_beta                  90.413506
_cell_angle_gamma                 90.224456
_cell_volume                      1145.92338406

loop_
_atom_site_label
_atom_site_type_symbol
_atom_site_description
_atom_site_fract_x
_atom_site_fract_y
_atom_site_fract_z
_atom_type_partial_charge
O1    O     O_R   0.500020 0.321960 0.617040 -0.569826
O2    O     O_R   0.499980 0.321920 0.382900 -0.587722
C1    C     C_R   0.495948 0.265483 0.499169 0.842510
O3    O     O_R   0.319660 0.500030 0.617070 -0.548716
O4    O     O_R   0.319620 0.499990 0.382930 -0.583121
C2    C     C_R   0.262260 0.503188 0.499570 0.836788
Cu1   Cu    Cu3+1 0.500020 0.500020 0.638630 1.017356
Cu2   Cu    Cu3+1 0.499980 0.499980 0.361370 0.953792
O5    O     O_R   0.500020 0.678080 0.617100 -0.521366
O6    O     O_R   0.499980 0.678040 0.382960 -0.604439
O7    O     O_R   0.680380 0.500010 0.617070 -0.561831
O8    O     O_R   0.680340 0.499970 0.382930 -0.592229
C3    C     C_R   0.505093 0.734966 0.500956 0.765478
C4    C     C_R   0.737707 0.502801 0.500959 0.816451
H1    H     H_    0.302812 0.227293 0.977015 0.167298
C5    C     C_R   0.204547 0.387194 0.044144 -0.087944
H2    H     H_    0.219811 0.435914 0.948799 0.175987
C6    C     C_R   0.138749 0.442367 0.151178 -0.160188
H3    H     H_    0.104614 0.534603 0.137769 0.160070
C7    C     C_R   0.120225 0.380967 0.276490 0.008777
C8    C     C_R   0.165661 0.259840 0.292708 0.348965
C9    C     C_R   0.231951 0.206331 0.182854 -0.175577
H4    H     H_    0.268800 0.114790 0.191602 0.176293
C10   C     C_R   0.251406 0.269665 0.060141 -0.131579
C11   C     C_R   0.933302 0.454016 0.391893 -0.172443
H5    H     H_    0.882095 0.409831 0.308313 0.158127
C12   C     C_R   0.871490 0.507282 0.503175 -0.093672
C13   C     C_R   0.937986 0.562972 0.613588 -0.015548
C14   C     C_R   0.066523 0.569899 0.606863 0.121896
C15   C     C_R   0.128310 0.508079 0.498635 -0.100576
C16   C     C_R   0.060691 0.449751 0.390752 0.038529
C17   C     C_R   0.838916 0.734372 0.743869 -0.118913
H6    H     H_    0.850418 0.792224 0.654528 0.179129
C18   C     C_R   0.790058 0.783742 0.865623 -0.020374
H7    H     H_    0.763631 0.879062 0.870068 0.201953
C19   C     C_R   0.776934 0.710776 0.982458 -0.154309
H8    H     H_    0.739182 0.749279 0.076617 0.154423
C20   C     C_R   0.812959 0.588247 0.978106 -0.177024
H9    H     H_    0.802886 0.532433 0.069239 0.153377
C21   C     C_R   0.861958 0.537816 0.856815 0.204617
C22   C     C_R   0.876292 0.611587 0.738890 0.076052
C23   C     C_2   0.505957 0.932849 0.390001 -0.239706
C24   C     C_2   0.526864 0.866534 0.504685 0.208582
H10   H     H_    0.478247 0.888181 0.293693 0.158186
C25   C     C_2   0.514395 0.066585 0.387808 -0.114187
C26   C     C_2   0.483034 0.134153 0.498166 -0.149762
H11   H     H_    0.542728 0.109559 0.292202 0.155889
H12   H     H_    0.446407 0.092824 0.590843 0.199005
C27   C     C_2   0.550190 0.415455 0.921689 -0.060198
N1    N     N_2   0.498640 0.498660 0.846910 -0.279314
H13   H     H_    0.594894 0.339330 0.869971 0.188113
H14   H     H_    0.462498 0.574569 0.894729 0.218913
C28   C     C_2   0.556507 0.419661 0.077426 -0.077281
N2    N     N_2   0.498610 0.498630 0.153040 -0.280860
H15   H     H_    0.612959 0.351698 0.128414 0.162892
H16   H     H_    0.438980 0.558262 0.106289 0.205425
I1    I     I_    0.910413 0.349883 0.856206 -0.318370
N3    N     N_R   0.581699 0.919440 0.627792 0.095472
O9    O     O_R   0.535774 0.896358 0.748804 -0.367806
O10   O     O_R   0.681402 0.985493 0.619619 -0.368726
N4    N     N_R   0.146073 0.190213 0.417219 0.105688
O11   O     O_R   0.066663 0.224645 0.509859 -0.322431
O12   O     O_R   0.200884 0.085549 0.433709 -0.370299
I2    I     I_    0.162103 0.684593 0.756446 -0.329697

loop_
_geom_bond_atom_site_label_1
_geom_bond_atom_site_label_2
_geom_bond_distance
_ccdc_geom_bond_type
C11   C16   1.383928 A    
O4    Cu2   1.970414 S    
N1    H14   1.025886 S    
C17   C22   1.403323 A    
O6    C3    1.293979 A    
N2    H16   1.025967 S    
C21   C22   1.411698 A    
C14   C15   1.413878 A    
C4    C12   1.452891 S    
C11   C12   1.394996 A    
C1    C26   1.440897 S    
C8    N4    1.446684 S    
N4    O11   1.301093 A    
Cu2   O8    1.967423 S    
C17   H6    1.082869 S    
C19   C20   1.396269 A    
O2    C1    1.288135 A    
N3    O9    1.301247 A    
C14   I2    2.160339 S    
Cu1   Cu2   2.679454 S    
C5    C10   1.392523 A    
H1    C10   1.082525 S    
C8    C9    1.410021 A    
C20   C21   1.399435 A    
O4    C2    1.291916 A    
C23   H10   1.086424 S    
O3    Cu1   1.967424 S    
C27   C28   1.506340 S    
O3    C2    1.292135 A    
C13   C14   1.399085 A    
C2    C15   1.455223 S    
O8    C4    1.295641 A    
C18   H7    1.081681 S    
C18   C19   1.396587 A    
C28   H15   1.084557 S    
C15   C16   1.415432 A    
Cu2   O6    1.954195 S    
O7    C4    1.287612 A    
C9    C10   1.396070 A    
C23   C24   1.348638 D    
N3    O10   1.301769 A    
C26   H12   1.084494 S    
C25   C26   1.337612 D    
C13   C22   1.482628 S    
C3    C24   1.455711 S    
C20   H9    1.082252 S    
C7    C8    1.423727 A    
Cu1   N1    2.013203 S    
C6    C7    1.405725 A    
C5    C6    1.394491 A    
C27   N1    1.293527 D    
C25   H11   1.086522 S    
Cu2   N2    2.013166 S    
C12   C13   1.414856 A    
Cu1   O5    1.958389 S    
C6    H3    1.083652 S    
O5    C3    1.289964 A    
C9    H4    1.082386 S    
C19   H8    1.082480 S    
Cu1   O7    1.970413 S    
C21   I1    2.121297 S    
C24   N3    1.441093 S    
C27   H13   1.083973 S    
C11   H5    1.085266 S    
O1    Cu1   1.954195 S    
C7    C16   1.482788 S    
N4    O12   1.301700 A    
O2    Cu2   1.958388 S    
C28   N2    1.292721 D    
C5    H2    1.082283 S    
O1    C1    1.290274 A    
C23   C25   1.463854 S    
C17   C18   1.398160 A    
