data_mof_unit_36030.cif
_audit_creation_date              2012-12-10T18:04:24-0500
_audit_creation_method            fapswitch 2.2
_symmetry_space_group_name_H-M    P1
_symmetry_Int_Tables_number       1
_space_group_crystal_system       triclinic
_cell_length_a                    31.495383
_cell_length_b                    18.365396
_cell_length_c                    25.663641
_cell_angle_alpha                 89.65348
_cell_angle_beta                  144.220108
_cell_angle_gamma                 90.398959
_cell_volume                      8678.96362708

loop_
_atom_site_label
_atom_site_type_symbol
_atom_type_description
_atom_site_fract_x
_atom_site_fract_y
_atom_site_fract_z
_atom_type_partial_charge
C1    C     C_R   0.859250 0.639554 0.108996 0.563105
C2    C     C_R   0.195806 0.303089 0.446915 -0.051147
C3    C     C_R   0.299187 0.753308 0.591021 0.217238
C4    C     C_3   0.154830 0.614963 0.149886 -0.007724
C5    C     C_3   0.236312 0.614422 0.221383 -0.374719
C6    C     C_3   0.846771 0.381699 0.853484 -0.009047
C7    C     C_3   0.766789 0.373366 0.787486 -0.374002
C8    C     C_3   0.652914 0.117837 0.147804 -0.006986
C9    C     C_3   0.734527 0.117004 0.220010 -0.376826
C10   C     C_3   0.348851 0.879383 0.855274 -0.008294
C11   C     C_3   0.268811 0.870538 0.788893 -0.376215
C12   C     C_3   0.251330 0.377648 0.612100 0.022585
C13   C     C_R   0.192699 0.699975 0.444512 -0.050091
C14   C     C_3   0.248401 0.456735 0.626629 -0.319982
C15   C     C_3   0.740585 0.618201 0.383890 0.025096
C16   C     C_3   0.747259 0.539140 0.373566 -0.322255
C17   C     C_3   0.831393 0.309736 0.463125 0.007147
C18   C     C_3   0.836267 0.349259 0.415753 -0.369314
C19   C     C_3   0.168578 0.690397 0.536896 0.006150
C20   C     C_3   0.164554 0.652065 0.585593 -0.369076
C21   C     C_3   0.760616 0.882658 0.616818 0.024595
C22   C     C_3   0.753718 0.961822 0.626636 -0.322029
C23   C     C_3   0.186865 0.073069 0.402394 0.009987
C24   C     C_R   0.807154 0.300133 0.555465 -0.049418
C25   C     C_3   0.180686 0.006033 0.361963 -0.330821
C26   C     C_3   0.330257 0.811322 0.461750 0.011034
C27   C     C_3   0.335157 0.853006 0.415267 -0.365670
C28   C     C_3   0.668258 0.190235 0.536554 0.006991
C29   C     C_3   0.663878 0.151356 0.584683 -0.369860
C30   C     C_3   0.842934 0.719980 0.710594 0.010764
C31   C     C_3   0.900105 0.732617 0.809355 -0.347311
C32   C     C_3   0.154904 0.259914 0.289473 0.032528
C33   C     C_3   0.091135 0.257805 0.188353 -0.350810
C34   C     C_3   0.160713 0.722874 0.285417 0.045071
C35   C     C_R   0.299393 0.191785 0.554350 -0.058449
C36   C     C_3   0.143559 0.777401 0.225099 -0.363905
C37   C     C_3   0.838964 0.276427 0.714698 0.043012
C38   C     C_3   0.857554 0.221664 0.775969 -0.361040
C39   C     C_3   0.342120 0.215173 0.712473 0.010252
C40   C     C_3   0.397277 0.231298 0.809973 -0.344438
C41   C     C_3   0.657968 0.781044 0.290116 0.010768
C42   C     C_3   0.601367 0.768518 0.191526 -0.349126
C43   C     C_3   0.660720 0.223532 0.285196 0.044252
C44   C     C_3   0.643161 0.278483 0.224837 -0.359817
C45   C     C_3   0.339991 0.775280 0.715570 0.041845
C46   C     C_R   0.699294 0.806528 0.446381 -0.051305
C47   C     C_3   0.359127 0.720075 0.776962 -0.358884
C48   C     C_3   0.720587 0.607462 0.062002 0.017841
C49   C     C_3   0.740126 0.556146 0.126019 -0.341144
C50   C     C_3   0.279284 0.392391 0.937706 0.017233
C51   C     C_3   0.259708 0.443588 0.873589 -0.340500
C52   C     C_3   0.160251 0.715643 0.791258 0.015383
C53   C     C_3   0.145880 0.678606 0.725043 -0.364008
C54   C     C_3   0.842884 0.287715 0.209667 0.002719
C55   C     C_3   0.854453 0.321759 0.274487 -0.366676
C56   C     C_3   0.219927 0.106984 0.060614 0.017036
C57   C     C_R   0.692707 0.199976 0.444494 -0.049491
C58   C     C_3   0.239118 0.055128 0.124040 -0.339511
C59   C     C_3   0.780059 0.892970 0.939293 0.016183
C60   C     C_3   0.760955 0.944692 0.875851 -0.340308
C61   C     C_3   0.660864 0.215035 0.791695 0.016346
C62   C     C_3   0.646826 0.177762 0.725853 -0.364238
C63   C     C_3   0.343477 0.787346 0.210114 0.003513
C64   C     C_3   0.355472 0.821413 0.275302 -0.366921
C65   C     C_R   0.307136 0.800144 0.555419 -0.052621
C66   C     C_R   0.759629 0.706483 0.054534 0.210342
C67   C     C_R   0.240314 0.293462 0.945378 0.210811
C68   C     C_R   0.231794 0.714381 0.934838 0.253803
C69   C     C_R   0.140745 0.360440 0.890992 0.564372
C70   C     C_R   0.767702 0.285747 0.064160 0.221863
C71   C     C_R   0.259448 0.206322 0.054238 0.211014
C72   C     C_R   0.740552 0.793679 0.945751 0.210703
C73   C     C_R   0.732020 0.214162 0.935089 0.252478
C74   C     C_R   0.267917 0.785527 0.064436 0.222206
C75   C     C_R   0.210574 0.264521 0.006578 0.039414
C76   C     C_R   0.789431 0.735481 0.993417 0.038906
C77   C     C_R   0.786682 0.266713 0.989520 0.041869
C78   C     C_R   0.212180 0.733676 0.008485 0.045262
C79   C     C_R   0.710665 0.764627 0.006754 0.039199
C80   C     C_R   0.140100 0.639905 0.890159 0.543582
C81   C     C_R   0.289291 0.235323 0.993179 0.039604
C82   C     C_R   0.286457 0.766936 0.989268 0.042812
C83   C     C_R   0.711934 0.233940 0.008161 0.044608
C84   C     C_R   0.198286 0.305633 0.948800 0.013190
C85   C     C_R   0.801699 0.694350 0.051169 0.012450
C86   C     C_R   0.804127 0.303492 0.053666 -0.018448
C87   C     C_R   0.195648 0.696609 0.945550 0.002101
C88   C     C_R   0.698374 0.805723 0.948965 0.012670
C89   C     C_R   0.301615 0.194265 0.051013 0.012966
C90   C     C_R   0.304118 0.803494 0.053671 -0.017700
C91   C     C_R   0.859676 0.360281 0.109318 0.514519
C92   C     C_R   0.695632 0.196632 0.945511 0.001290
C93   C     C_R   0.036535 0.444204 0.509473 0.048377
C94   C     C_R   0.962947 0.555429 0.490034 0.047104
C95   C     C_R   0.538430 0.945462 0.511321 0.047912
C96   C     C_R   0.461746 0.054543 0.488827 0.043855
C97   C     C_R   0.037067 0.444514 0.564295 0.041876
C98   C     C_R   0.962605 0.555247 0.435400 0.041386
C99   C     C_R   0.538822 0.945663 0.565994 0.041341
C100  C     C_R   0.461335 0.054333 0.434140 0.039586
C101  C     C_R   0.000349 0.500168 0.553818 0.075300
C102  C     C_R   0.359226 0.139529 0.108948 0.563444
C103  C     C_R   0.999499 0.499702 0.446043 0.075949
C104  C     C_R   0.500472 0.000198 0.553923 0.073055
C105  C     C_R   0.499623 0.999762 0.446153 0.075723
C106  C     C_R   0.140481 0.360302 0.390201 0.535304
C107  C     C_R   0.858675 0.638802 0.609939 0.528106
C108  C     C_R   0.860967 0.358873 0.610420 0.517570
C109  C     C_R   0.138981 0.641166 0.389578 0.517968
C110  C     C_R   0.641361 0.861251 0.390060 0.530354
C111  C     C_R   0.358665 0.138717 0.610073 0.523772
C112  C     C_R   0.360956 0.858880 0.610407 0.508019
C113  C     C_R   0.640771 0.860467 0.891045 0.564157
C114  C     C_R   0.639000 0.141151 0.389574 0.517696
C115  C     C_R   0.999807 0.499905 0.390871 0.575231
C116  C     C_R   0.000171 0.500059 0.609113 0.575228
C117  C     C_R   0.499826 0.999928 0.390884 0.574894
C118  C     C_R   0.500192 0.000014 0.609127 0.572643
C119  C     C_R   0.999822 0.500407 0.108502 0.546471
C120  C     C_R   0.000126 0.499500 0.891461 0.545970
C121  C     C_R   0.499892 0.000431 0.108566 0.544307
C122  C     C_R   0.500102 0.999526 0.891432 0.543784
C123  C     C_3   0.996731 0.569039 0.012244 0.066959
C124  C     C_R   0.640093 0.139915 0.890143 0.543335
C125  C     C_3   0.003068 0.430250 0.987552 0.066424
C126  C     C_3   0.939566 0.530401 0.922011 0.072813
C127  C     C_3   0.060185 0.468759 0.077832 0.071467
C128  C     C_3   0.495435 0.069152 0.010955 0.067590
C129  C     C_3   0.504535 0.930505 0.988986 0.066671
C130  C     C_3   0.438980 0.029389 0.921466 0.073469
C131  C     C_3   0.560934 0.970234 0.078478 0.072116
C132  C     C_3   0.058120 0.536324 0.039957 0.240253
C133  C     C_3   0.941713 0.462845 0.959994 0.238383
C134  C     C_3   0.557352 0.037693 0.039101 0.241954
C135  C     C_R   0.359672 0.860285 0.109314 0.514747
C136  C     C_3   0.442576 0.961874 0.960867 0.238919
C137  C     C_3   0.000516 0.497896 0.948702 0.043269
C138  C     C_3   0.999312 0.501514 0.051171 0.042859
C139  C     C_3   0.500489 0.998058 0.948659 0.043527
C140  C     C_3   0.499457 0.001672 0.051298 0.042438
C141  C     C_R   0.255014 0.308688 0.540841 0.212318
C142  C     C_R   0.741618 0.687708 0.459923 0.212949
C143  C     C_R   0.760688 0.293614 0.465692 0.216866
C144  C     C_R   0.239287 0.706402 0.534346 0.216528
C145  C     C_R   0.758642 0.812619 0.540080 0.212583
C146  C     C_R   0.800868 0.693676 0.553637 -0.051127
C147  C     C_R   0.238641 0.185077 0.460756 0.196623
C148  C     C_R   0.260419 0.793826 0.465510 0.206306
C149  C     C_R   0.739132 0.206528 0.534244 0.216683
C150  C     C_R   0.806957 0.754436 0.593249 0.209580
C151  C     C_R   0.188710 0.241569 0.407447 0.194914
C152  C     C_R   0.200674 0.746794 0.408950 0.213761
C153  C     C_R   0.798968 0.253513 0.590926 0.217047
C154  C     C_R   0.304092 0.251023 0.593964 0.210859
C155  C     C_R   0.693313 0.745880 0.406795 0.209977
C156  C     C_R   0.700831 0.246669 0.409010 0.217210
H1    H     H_    0.145969 0.598563 0.182483 0.095677
H2    H     H_    0.760662 0.352614 0.821832 0.168379
H3    H     H_    0.379533 0.205861 0.829496 0.137542
H4    H     H_    0.451220 0.209316 0.852655 0.190374
H5    H     H_    0.711919 0.764166 0.328582 0.079422
H6    H     H_    0.660950 0.840435 0.300981 0.155366
H7    H     H_    0.548897 0.793329 0.150841 0.189523
H8    H     H_    0.619964 0.793449 0.172888 0.137016
H9    H     H_    0.593087 0.709316 0.176995 0.137072
H10   H     H_    0.626002 0.174645 0.245313 0.136704
H11   H     H_    0.717639 0.204688 0.337608 0.096884
H12   H     H_    0.664056 0.333251 0.256018 0.206866
H13   H     H_    0.643503 0.101906 0.179873 0.095214
H14   H     H_    0.668890 0.262067 0.213374 0.063180
H15   H     H_    0.583466 0.282161 0.159942 0.137093
H16   H     H_    0.282859 0.793087 0.663611 0.095600
H17   H     H_    0.374066 0.824626 0.754822 0.134953
H18   H     H_    0.419019 0.715927 0.840568 0.140075
H19   H     H_    0.335384 0.736584 0.791056 0.067171
H20   H     H_    0.337254 0.665532 0.745213 0.205941
H21   H     H_    0.720966 0.575697 0.025507 0.148677
H22   H     H_    0.664495 0.627246 0.012740 0.113684
H23   H     H_    0.738217 0.585654 0.161738 0.130971
H24   H     H_    0.632630 0.173938 0.121142 0.140230
H25   H     H_    0.700916 0.510100 0.088452 0.104371
H26   H     H_    0.795534 0.534052 0.175346 0.209741
H27   H     H_    0.335364 0.372580 0.986948 0.113751
H28   H     H_    0.278956 0.424252 0.974207 0.149441
H29   H     H_    0.204320 0.465727 0.824293 0.209901
H30   H     H_    0.298941 0.489609 0.911080 0.108151
H31   H     H_    0.261544 0.413970 0.837840 0.130668
H32   H     H_    0.175905 0.773290 0.798799 0.131767
H33   H     H_    0.109068 0.714578 0.763411 0.116572
H34   H     H_    0.129922 0.620912 0.715701 0.178475
H35   H     H_    0.747286 0.133039 0.192007 0.153326
H36   H     H_    0.101256 0.706933 0.659711 0.082229
H37   H     H_    0.195547 0.680507 0.749947 0.150359
H38   H     H_    0.893385 0.295576 0.236757 0.133273
H39   H     H_    0.833361 0.228256 0.205865 0.104036
H40   H     H_    0.805591 0.313035 0.250516 0.140213
H41   H     H_    0.901975 0.296358 0.341276 0.085532
H42   H     H_    0.864631 0.381142 0.280395 0.180190
H43   H     H_    0.220509 0.075626 0.024142 0.147380
H44   H     H_    0.163813 0.126773 0.011258 0.113780
H45   H     H_    0.236922 0.084184 0.159644 0.134642
H46   H     H_    0.761514 0.155795 0.273761 0.081988
H47   H     H_    0.199878 0.009087 0.086009 0.104398
H48   H     H_    0.294561 0.033076 0.173475 0.209958
H49   H     H_    0.836178 0.873151 0.988732 0.110665
H50   H     H_    0.779428 0.924436 0.975667 0.146463
H51   H     H_    0.705515 0.966793 0.826347 0.210575
H52   H     H_    0.800218 0.990711 0.913856 0.105374
H53   H     H_    0.763188 0.915516 0.840333 0.130600
H54   H     H_    0.676525 0.272659 0.799161 0.132542
H55   H     H_    0.609547 0.214037 0.763563 0.118670
H56   H     H_    0.630950 0.120062 0.716669 0.178242
H57   H     H_    0.756000 0.061479 0.248868 0.149320
H58   H     H_    0.602253 0.205918 0.660396 0.084420
H59   H     H_    0.696616 0.179657 0.751007 0.149830
H60   H     H_    0.393800 0.795198 0.236828 0.135899
H61   H     H_    0.333989 0.727891 0.206390 0.106846
H62   H     H_    0.306870 0.812559 0.251832 0.140237
H63   H     H_    0.403256 0.796147 0.342112 0.088049
H64   H     H_    0.365447 0.880823 0.280962 0.180251
H65   H     H_    0.141432 0.244148 0.998144 0.245868
H66   H     H_    0.217057 0.292235 0.089440 0.254142
H67   H     H_    0.858616 0.755831 0.001911 0.244754
H68   H     H_    0.375507 0.825622 0.886009 0.142311
H69   H     H_    0.782963 0.707803 0.910560 0.253157
H70   H     H_    0.875761 0.265883 0.031262 0.267772
H71   H     H_    0.819575 0.339077 0.966571 0.244915
H72   H     H_    0.149925 0.766122 0.007144 0.257947
H73   H     H_    0.209334 0.698841 0.080785 0.232304
H74   H     H_    0.641396 0.744439 0.998153 0.245559
H75   H     H_    0.717144 0.792323 0.089628 0.252731
H76   H     H_    0.358539 0.255426 0.001731 0.245471
H77   H     H_    0.282753 0.207573 0.910256 0.252635
H78   H     H_    0.375311 0.766364 0.030574 0.271345
H79   H     H_    0.352400 0.898096 0.817487 0.097405
H80   H     H_    0.319103 0.839605 0.966214 0.244003
H81   H     H_    0.649387 0.266789 0.006261 0.258664
H82   H     H_    0.708650 0.199528 0.080107 0.232136
H83   H     H_    0.126280 0.385840 0.580412 0.219613
H84   H     H_    0.047576 0.337397 0.502254 0.215504
H85   H     H_    0.872231 0.612116 0.418465 0.221128
H86   H     H_    0.950076 0.662123 0.495328 0.217453
H87   H     H_    0.630483 0.890974 0.584198 0.221062
H88   H     H_    0.553860 0.839101 0.508596 0.217374
H89   H     H_    0.369685 0.108931 0.416096 0.238790
H90   H     H_    0.240954 0.923903 0.757851 0.148698
H91   H     H_    0.446268 0.160942 0.491395 0.217602
H92   H     H_    0.049336 0.337883 0.595889 0.220455
H93   H     H_    0.127569 0.387236 0.673225 0.236824
H94   H     H_    0.950215 0.661859 0.403705 0.220342
H95   H     H_    0.872031 0.612436 0.326437 0.236995
H96   H     H_    0.553798 0.839388 0.600259 0.221492
H97   H     H_    0.630777 0.890668 0.676225 0.236477
H98   H     H_    0.446500 0.160616 0.399967 0.221838
H99   H     H_    0.369438 0.109452 0.323988 0.238046
H100  H     H_    0.242979 0.831651 0.735794 0.082329
H101  H     H_    0.134393 0.671086 0.123453 0.139559
H102  H     H_    0.262492 0.849276 0.822892 0.170306
H103  H     H_    0.996931 0.677393 0.996225 0.226904
H104  H     H_    0.031703 0.655790 0.089297 0.220150
H105  H     H_    0.005275 0.321762 0.005578 0.227471
H106  H     H_    0.967900 0.343313 0.910597 0.218780
H107  H     H_    0.839747 0.574066 0.834007 0.259117
H108  H     H_    0.847757 0.526474 0.786601 0.205443
H109  H     H_    0.159515 0.423901 0.165422 0.259230
H110  H     H_    0.152032 0.471631 0.213315 0.207510
H111  H     H_    0.494775 0.177546 0.994298 0.225692
H112  H     H_    0.248453 0.630887 0.192748 0.154109
H113  H     H_    0.528701 0.156199 0.086766 0.221837
H114  H     H_    0.507878 0.822021 0.007993 0.225153
H115  H     H_    0.470962 0.843174 0.913317 0.220450
H116  H     H_    0.338123 0.070582 0.832499 0.258229
H117  H     H_    0.347396 0.023761 0.786108 0.200791
H118  H     H_    0.661720 0.928835 0.167377 0.258093
H119  H     H_    0.652555 0.975687 0.213873 0.205610
H120  H     H_    0.292210 0.350603 0.677707 0.144834
H121  H     H_    0.196993 0.352177 0.564556 0.123194
H122  H     H_    0.208517 0.487672 0.563304 0.230990
H123  H     H_    0.263558 0.653035 0.275390 0.082167
H124  H     H_    0.232249 0.459408 0.652170 0.066355
H125  H     H_    0.302655 0.482615 0.676077 0.163880
H126  H     H_    0.792382 0.647087 0.426023 0.121445
H127  H     H_    0.695579 0.641596 0.316000 0.153189
H128  H     H_    0.695430 0.509706 0.329308 0.167676
H129  H     H_    0.759745 0.536834 0.343704 0.064383
H130  H     H_    0.791276 0.511413 0.439121 0.232507
H131  H     H_    0.827865 0.250280 0.452179 0.092627
H132  H     H_    0.883036 0.319868 0.535607 0.141874
H133  H     H_    0.838995 0.408973 0.424553 0.177024
H134  H     H_    0.258025 0.558887 0.250055 0.151801
H135  H     H_    0.885916 0.331909 0.444115 0.095316
H136  H     H_    0.788256 0.336326 0.343583 0.129663
H137  H     H_    0.116884 0.679192 0.464713 0.141602
H138  H     H_    0.171514 0.750085 0.546518 0.087657
H139  H     H_    0.212765 0.665901 0.657506 0.130873
H140  H     H_    0.162115 0.592193 0.577798 0.175484
H141  H     H_    0.115032 0.669591 0.557438 0.094565
H142  H     H_    0.806137 0.859753 0.684953 0.153657
H143  H     H_    0.709141 0.853536 0.575534 0.121556
H144  H     H_    0.708899 0.988966 0.560761 0.232520
H145  H     H_    0.873116 0.327797 0.884006 0.141785
H146  H     H_    0.742317 0.964424 0.657723 0.063778
H147  H     H_    0.805100 0.991628 0.669623 0.168750
H148  H     H_    0.131200 0.094289 0.354208 0.152011
H149  H     H_    0.211757 0.056226 0.464955 0.106684
H150  H     H_    0.235593 0.984474 0.407945 0.222470
H151  H     H_    0.148585 0.963145 0.350314 0.113395
H152  H     H_    0.153268 0.020343 0.297461 0.146116
H153  H     H_    0.326333 0.752260 0.449166 0.094974
H154  H     H_    0.382027 0.820218 0.534485 0.143148
H155  H     H_    0.336291 0.912509 0.423750 0.189640
H156  H     H_    0.850161 0.400219 0.815485 0.099062
H157  H     H_    0.385542 0.837636 0.444451 0.094315
H158  H     H_    0.287854 0.839965 0.343120 0.127283
H159  H     H_    0.616668 0.179321 0.464268 0.142604
H160  H     H_    0.671209 0.249834 0.546511 0.092775
H161  H     H_    0.711769 0.165175 0.656608 0.130107
H162  H     H_    0.661798 0.091528 0.576932 0.176391
H163  H     H_    0.614059 0.168432 0.556061 0.095820
H164  H     H_    0.839572 0.660535 0.699627 0.154673
H165  H     H_    0.789245 0.737240 0.672628 0.079400
H166  H     H_    0.908686 0.791841 0.823886 0.136014
H167  H     H_    0.739143 0.426817 0.756432 0.151506
H168  H     H_    0.881931 0.708062 0.828649 0.136597
H169  H     H_    0.952335 0.707523 0.849566 0.194723
H170  H     H_    0.198605 0.224549 0.317239 0.160963
H171  H     H_    0.175163 0.317124 0.311524 0.133268
H172  H     H_    0.047217 0.294233 0.158421 0.196919
H173  H     H_    0.109150 0.276277 0.167084 0.122419
H174  H     H_    0.069686 0.201382 0.164072 0.145311
H175  H     H_    0.125859 0.674047 0.245614 0.138560
H176  H     H_    0.217559 0.703695 0.337997 0.097474
H177  H     H_    0.164448 0.832245 0.256056 0.205035
H178  H     H_    0.740614 0.334263 0.734370 0.083981
H179  H     H_    0.169497 0.760519 0.214023 0.064999
H180  H     H_    0.083911 0.781179 0.160038 0.136196
H181  H     H_    0.781810 0.294389 0.662293 0.098128
H182  H     H_    0.873006 0.325811 0.753803 0.136085
H183  H     H_    0.917388 0.217485 0.839906 0.140369
H184  H     H_    0.833356 0.238605 0.789363 0.066950
H185  H     H_    0.835803 0.167020 0.744504 0.205243
H186  H     H_    0.343182 0.155794 0.705438 0.150838
H187  H     H_    0.286951 0.228361 0.672511 0.073422
H188  H     H_    0.402169 0.290938 0.820804 0.139392
N1    N     N_3   0.989331 0.644349 0.021488 -0.596437
N2    N     N_3   0.823222 0.714723 0.978934 -0.576670
N3    N     N_3   0.821767 0.282997 0.975767 -0.592240
N4    N     N_3   0.172927 0.717834 0.016489 -0.563282
N5    N     N_3   0.676897 0.785460 0.021250 -0.576314
N6    N     N_3   0.323018 0.214438 0.978639 -0.577236
N7    N     N_3   0.321310 0.783483 0.975246 -0.591219
N8    N     N_3   0.672412 0.218402 0.015829 -0.562164
N9    N     N_3   0.071382 0.387132 0.515547 -0.641284
N10   N     N_3   0.927275 0.611972 0.483169 -0.637279
N11   N     N_3   0.575441 0.889783 0.519524 -0.636196
N12   N     N_3   0.010961 0.355174 0.978404 -0.594170
N13   N     N_3   0.424787 0.110258 0.480673 -0.615318
N14   N     N_3   0.072683 0.387927 0.628880 -0.611110
N15   N     N_3   0.926910 0.611796 0.370751 -0.611259
N16   N     N_3   0.575922 0.889995 0.632002 -0.609444
N17   N     N_3   0.424285 0.110032 0.368176 -0.609235
N18   N     N_3   0.873979 0.564356 0.836434 -0.636495
N19   N     N_3   0.125380 0.434022 0.163077 -0.625985
N20   N     N_3   0.486883 0.144315 0.019129 -0.596913
N21   N     N_3   0.513613 0.855581 0.980960 -0.596126
N22   N     N_3   0.372667 0.061980 0.835240 -0.640157
N23   N     N_3   0.627198 0.937521 0.164659 -0.637197
N24   N     N_3   0.176789 0.285279 0.021067 -0.575225
O1    O     O_3   0.999990 0.500000 0.250040 -0.464056
O2    O     O_R   0.585480 0.853830 0.866170 -0.507625
O3    O     O_R   0.585480 0.146170 0.866170 -0.503699
O4    O     O_R   0.414520 0.853830 0.133830 -0.557270
O5    O     O_R   0.085470 0.353820 0.304740 -0.507647
O6    O     O_R   0.914530 0.646180 0.695260 -0.512653
O7    O     O_R   0.914530 0.353820 0.695260 -0.515113
O8    O     O_R   0.085470 0.646180 0.304740 -0.516172
O9    O     O_R   0.585470 0.853820 0.304740 -0.510672
O10   O     O_R   0.414530 0.146180 0.695260 -0.514192
O11   O     O_R   0.414530 0.853820 0.695260 -0.514120
O12   O     O_3   0.000010 0.500000 0.749960 -0.469387
O13   O     O_R   0.585470 0.146180 0.304740 -0.514966
O14   O     O_R   0.853810 0.414550 0.134600 -0.507053
O15   O     O_R   0.146190 0.585450 0.865400 -0.520043
O16   O     O_R   0.146190 0.414550 0.865400 -0.524129
O17   O     O_R   0.853810 0.585450 0.134600 -0.524201
O18   O     O_R   0.353810 0.914550 0.134600 -0.508189
O19   O     O_R   0.646190 0.085450 0.865400 -0.521026
O20   O     O_R   0.646190 0.914550 0.865400 -0.524005
O21   O     O_R   0.353810 0.085450 0.134600 -0.524244
O22   O     O_R   0.146170 0.585430 0.426970 -0.520481
O23   O     O_3   0.499990 0.000000 0.250040 -0.464353
O24   O     O_R   0.853830 0.414570 0.573030 -0.523107
O25   O     O_R   0.853830 0.585430 0.573030 -0.523246
O26   O     O_R   0.146170 0.414570 0.426970 -0.522051
O27   O     O_R   0.646170 0.085430 0.426970 -0.523420
O28   O     O_R   0.353830 0.914570 0.573030 -0.532614
O29   O     O_R   0.353830 0.085430 0.573030 -0.501110
O30   O     O_R   0.646170 0.914570 0.426970 -0.522346
O31   O     O_R   0.939250 0.500000 0.306600 -0.540723
O32   O     O_R   0.060750 0.500000 0.693400 -0.541356
O33   O     O_R   0.439250 0.000000 0.306600 -0.539702
O34   O     O_3   0.500010 0.000000 0.749960 -0.471572
O35   O     O_R   0.560750 0.000000 0.693400 -0.542381
O36   O     O_R   0.999990 0.560720 0.132740 -0.545030
O37   O     O_R   0.000010 0.439280 0.867260 -0.545522
O38   O     O_R   0.000010 0.560720 0.867260 -0.520102
O39   O     O_R   0.999990 0.439280 0.132740 -0.527916
O40   O     O_R   0.499990 0.060720 0.132740 -0.546495
O41   O     O_R   0.500010 0.939280 0.867260 -0.547636
O42   O     O_R   0.500010 0.060720 0.867260 -0.519515
O43   O     O_R   0.499990 0.939280 0.132740 -0.527492
O44   O     O_R   0.060720 0.500000 0.428060 -0.554068
O45   O     O_R   0.914520 0.646170 0.133830 -0.509399
O46   O     O_R   0.939280 0.500000 0.571940 -0.553651
O47   O     O_R   0.560720 0.000000 0.428060 -0.552666
O48   O     O_R   0.439280 0.000000 0.571940 -0.529837
O49   O     O_3   0.120208 0.568972 0.079261 -0.539159
O50   O     O_3   0.879723 0.430527 0.921243 -0.549604
O51   O     O_3   0.618648 0.071652 0.077481 -0.538870
O52   O     O_3   0.381314 0.928161 0.922830 -0.549147
O53   O     O_3   0.272970 0.375295 0.580821 -0.497978
O54   O     O_3   0.723596 0.620493 0.420695 -0.503700
O55   O     O_3   0.770471 0.335615 0.430746 -0.523691
O56   O     O_R   0.085480 0.353830 0.866170 -0.508183
O57   O     O_3   0.229502 0.664447 0.569310 -0.521604
O58   O     O_3   0.776819 0.880013 0.579119 -0.504487
O59   O     O_3   0.230138 0.125790 0.419787 -0.515668
O60   O     O_3   0.269533 0.836394 0.430125 -0.534742
O61   O     O_3   0.729342 0.164529 0.569187 -0.524008
O62   O     O_3   0.862582 0.759764 0.684719 -0.506336
O63   O     O_3   0.131658 0.234886 0.315812 -0.519816
O64   O     O_3   0.144138 0.754851 0.317407 -0.508197
O65   O     O_3   0.855580 0.245315 0.682470 -0.501882
O66   O     O_3   0.360152 0.256648 0.685461 -0.498754
O67   O     O_R   0.085480 0.646170 0.866170 -0.505682
O68   O     O_3   0.637984 0.740790 0.315370 -0.507033
O69   O     O_3   0.644204 0.254885 0.317461 -0.502117
O70   O     O_3   0.356113 0.744729 0.682580 -0.500160
O71   O     O_3   0.770939 0.665944 0.110771 -0.540342
O72   O     O_3   0.228919 0.333927 0.889035 -0.540419
O73   O     O_3   0.216155 0.678119 0.873400 -0.511685
O74   O     O_3   0.783148 0.321721 0.125579 -0.540165
O75   O     O_3   0.270341 0.165435 0.109948 -0.538926
O76   O     O_3   0.729624 0.834541 0.889996 -0.538752
O77   O     O_3   0.716633 0.177660 0.873956 -0.513022
O78   O     O_R   0.914520 0.353830 0.133830 -0.561016
O79   O     O_3   0.283542 0.821334 0.126069 -0.541229
O80   O     O_R   0.414520 0.146170 0.133830 -0.508416
Zn1   Zn    Zn3+2 1.000000 0.413230 0.206100 0.933786
Zn2   Zn    Zn3+2 0.086780 0.500000 0.792790 0.946353
Zn3   Zn    Zn3+2 0.413220 0.000000 0.207210 0.944937
Zn4   Zn    Zn3+2 0.586780 0.000000 0.792790 0.946744
Zn5   Zn    Zn3+2 0.086760 0.500000 0.380740 0.923597
Zn6   Zn    Zn3+2 0.913240 0.500000 0.619260 0.919773
Zn7   Zn    Zn3+2 0.586760 0.000000 0.380740 0.921921
Zn8   Zn    Zn3+2 0.413240 0.000000 0.619260 0.933739
Zn9   Zn    Zn3+2 1.000000 0.586770 0.793900 0.961667
Zn10  Zn    Zn3+2 0.000000 0.413230 0.793900 0.954423
Zn11  Zn    Zn3+2 0.000000 0.586770 0.206100 0.952586
Zn12  Zn    Zn3+2 0.500000 0.913230 0.206100 0.937088
Zn13  Zn    Zn3+2 0.500000 0.086770 0.793900 0.960696
Zn14  Zn    Zn3+2 0.500000 0.913230 0.793900 0.949194
Zn15  Zn    Zn3+2 0.500000 0.086770 0.206100 0.952419
Zn16  Zn    Zn3+2 0.913220 0.500000 0.207210 0.944115

loop_
_geom_bond_atom_site_label_1
_geom_bond_atom_site_label_2
_ccdc_geom_bond_type
C116  O46   A    
C19   H138  S    
C142  O54   S    
C142  C146  A    
C19   C20   S    
C5    H123  S    
C35   C154  A    
O34   Zn14  S    
C66   C85   A    
C123  N1    S    
H116  N22   S    
O48   Zn8   S    
H87   N11   S    
C46   C155  A    
C123  C138  S    
C143  O55   S    
C10   H79   S    
H96   N16   S    
O13   Zn15  S    
C121  C140  S    
C122  C139  S    
C126  N18   S    
C122  O41   A    
C95   C99   A    
C141  C154  A    
H77   N6    S    
C41   C42   S    
C149  C153  A    
C82   N7    S    
O78   Zn1   S    
C38   H184  S    
C109  O22   A    
C146  C150  A    
O14   Zn16  S    
C27   H158  S    
C56   O75   S    
O45   Zn11  S    
C37   O65   S    
C53   H34   S    
C120  O38   A    
C47   H20   S    
C136  C140  S    
C14   H122  S    
C58   H48   S    
C59   C60   S    
C21   C22   S    
C124  O3    A    
C81   N6    S    
C62   H58   S    
C3    C65   A    
C83   N8    S    
C45   C47   S    
C30   H165  S    
C7    H167  S    
C74   O79   S    
C33   H174  S    
C31   H169  S    
C69   O16   A    
C70   O74   S    
C123  C126  S    
C9    H57   S    
C132  C137  S    
C18   H136  S    
O2    Zn14  S    
C111  O29   A    
C76   N2    S    
C16   H128  S    
C66   O71   S    
C29   H163  S    
C128  N20   S    
C37   C38   S    
C66   C79   A    
C113  O20   A    
C45   H17   S    
C115  O44   A    
C8    H24   S    
O21   Zn3   S    
C11   H100  S    
C100  N17   S    
H81   N8    S    
C59   H50   S    
C46   C110  S    
O34   Zn4   S    
C98   N15   S    
C45   H16   S    
C134  C139  S    
C8    H13   S    
C43   H10   S    
C110  O30   A    
C96   C104  A    
C33   H172  S    
C4    O49   S    
C50   H28   S    
O9    Zn12  S    
C4    C5    S    
H108  N18   S    
O4    Zn12  S    
C60   H51   S    
C6    C7    S    
C97   N14   S    
H103  N1    S    
C74   C90   A    
C92   C124  S    
C99   N16   S    
C96   N13   S    
C108  O7    A    
C63   H61   S    
C55   H41   S    
C17   H131  S    
C147  O59   S    
C61   H54   S    
C119  O39   A    
C31   H168  S    
C53   H36   S    
C47   H18   S    
C151  O63   S    
C9    H46   S    
O41   Zn14  S    
C112  O11   A    
C17   O55   S    
O12   Zn10  S    
C125  C127  S    
C20   H139  S    
C73   C77   A    
H69   N2    S    
C16   H129  S    
C9    H35   S    
C76   C85   A    
C49   H23   S    
C78   C87   A    
C107  O25   A    
H114  N21   S    
C25   H151  S    
C54   H38   S    
C123  C132  S    
H115  N21   S    
O40   Zn15  S    
O19   Zn4   S    
H97   N16   S    
H117  N22   S    
C93   C103  A    
C48   H22   S    
C59   O76   S    
H94   N15   S    
H66   N24   S    
C22   H146  S    
O16   Zn2   S    
C68   O73   S    
C154  O66   S    
C106  O5    A    
O23   Zn7   S    
O27   Zn7   S    
C37   H182  S    
C52   O73   S    
H65   N24   S    
C129  C136  S    
C26   H153  S    
C113  O2    A    
C13   C144  A    
C88   C113  S    
H98   N17   S    
C10   O52   S    
C121  O43   A    
C127  N19   S    
O31   Zn16  S    
C8    O51   S    
C57   C149  A    
C48   O71   S    
C156  O69   S    
C131  C140  S    
O29   Zn8   S    
C63   H60   S    
O24   Zn6   S    
C145  C150  A    
C42   H9    S    
C52   H33   S    
C1    O45   A    
C55   H40   S    
H110  N19   S    
C63   O79   S    
H76   N6    S    
C148  O60   S    
C20   H141  S    
C149  O61   S    
C14   H125  S    
C57   C156  A    
C34   O64   S    
C67   O72   S    
O1    Zn16  S    
O5    Zn1   S    
C114  O13   A    
C54   O74   S    
O15   Zn2   S    
C39   C40   S    
C107  C146  S    
C39   H186  S    
C36   H179  S    
C73   O77   S    
H74   N5    S    
C131  N23   S    
C31   H166  S    
C147  C151  A    
C65   C112  S    
C91   O14   A    
C128  C134  S    
C117  O47   A    
C118  O48   A    
H78   N7    S    
C129  C139  S    
H105  N12   S    
C17   C18   S    
H107  N18   S    
C49   H25   S    
C80   O15   A    
C67   C81   A    
C1    O17   A    
C27   H155  S    
C28   O61   S    
C106  O26   A    
O6    Zn9   S    
O43   Zn12  S    
C93   C97   A    
H67   N2    S    
C52   C53   S    
H104  N1    S    
C132  O49   S    
C72   O76   S    
C62   H56   S    
H84   N9    S    
C19   H137  S    
C64   H63   S    
C21   H143  S    
C119  C138  S    
C22   H144  S    
C148  C152  A    
C73   C92   A    
C135  O4    A    
C79   N5    S    
C10   H68   S    
C34   H175  S    
C68   C82   A    
C128  C140  S    
C26   O60   S    
C69   C84   S    
H70   N3    S    
C61   O77   S    
C90   C135  S    
C122  O42   A    
C96   C100  A    
C56   C58   S    
C45   O70   S    
C95   N11   S    
O1    Zn11  S    
O34   Zn8   S    
C61   C62   S    
C91   O78   A    
C115  O31   A    
C10   C11   S    
C38   H185  S    
C2    C106  S    
C63   C64   S    
C36   H180  S    
O12   Zn2   S    
O20   Zn4   S    
H80   N7    S    
C130  N22   S    
C15   H126  S    
C52   H32   S    
O38   Zn9   S    
C56   H44   S    
C119  O36   A    
C41   H6    S    
C12   H121  S    
C47   H19   S    
O36   Zn11  S    
C126  C137  S    
C4    H101  S    
C41   H5    S    
C53   H37   S    
C62   H59   S    
C131  C134  S    
C5    H134  S    
C114  O27   A    
C26   C27   S    
C7    H178  S    
C33   H173  S    
C28   C29   S    
C150  O62   S    
H71   N3    S    
C86   C91   S    
H113  N20   S    
C30   C31   S    
O32   Zn2   S    
C94   C98   A    
C14   H124  S    
C98   C103  A    
C155  O68   S    
C29   H162  S    
C77   N3    S    
C23   H148  S    
C40   H3    S    
C54   C55   S    
C50   O72   S    
C50   H27   S    
C6    H156  S    
C24   C108  S    
C127  C138  S    
C60   H53   S    
C121  O40   A    
C72   C76   A    
C81   C89   A    
C59   H49   S    
C99   C104  A    
C69   O56   A    
C133  C138  S    
C105  C117  S    
O34   Zn13  S    
C130  C139  S    
C79   C88   A    
C104  C118  S    
C3    O70   S    
C152  O64   S    
C6    O50   S    
H95   N15   S    
H118  N23   S    
O18   Zn3   S    
O17   Zn16  S    
C44   H12   S    
C60   H52   S    
C125  C137  S    
C4    H1    S    
C109  O8    A    
H106  N12   S    
C103  C115  S    
C38   H183  S    
H86   N10   S    
C41   O68   S    
C39   H187  S    
C50   C51   S    
C65   C148  A    
C70   C83   A    
C120  O37   A    
C57   C114  S    
C48   C49   S    
C58   H47   S    
C43   H11   S    
C110  O9    A    
C20   H140  S    
O80   Zn15  S    
C23   H149  S    
C153  O65   S    
C16   H130  S    
C21   O58   S    
C24   C153  A    
O23   Zn15  S    
C2    C151  A    
C17   H132  S    
C25   H150  S    
C54   H39   S    
C11   H90   S    
C40   H4    S    
C3    C144  A    
C13   C152  A    
C128  C130  S    
C15   O54   S    
H119  N23   S    
C18   H135  S    
O12   Zn9   S    
C82   C90   A    
C64   H62   S    
C129  N21   S    
C32   C33   S    
C22   H147  S    
O28   Zn8   S    
C44   H15   S    
C111  O10   A    
C37   H181  S    
H85   N10   S    
C26   H154  S    
H89   N13   S    
O46   Zn6   S    
C34   C36   S    
C32   H171  S    
C42   H8    S    
C28   H160  S    
C75   C84   A    
O42   Zn13  S    
C51   H31   S    
H83   N9    S    
O8    Zn11  S    
H72   N4    S    
C5    H112  S    
C74   C78   A    
H92   N14   S    
C51   H30   S    
C101  C116  S    
C120  C137  S    
C24   C143  A    
C78   N4    S    
C144  O57   S    
C43   O69   S    
O22   Zn5   S    
C93   N9    S    
C89   C102  S    
C15   H127  S    
O44   Zn5   S    
C43   C44   S    
H82   N8    S    
C12   H120  S    
C7    H2    S    
C83   C92   A    
C100  C105  A    
C6    H145  S    
C80   C87   S    
C30   H164  S    
C61   H55   S    
C28   H159  S    
C46   C145  A    
C15   C16   S    
O12   Zn6   S    
C39   O66   S    
C136  O52   S    
C127  C132  S    
C95   C105  A    
C145  O58   S    
O67   Zn9   S    
C126  C133  S    
O56   Zn10  S    
C8    C9    S    
C108  O24   A    
C13   C109  S    
C94   C101  A    
C142  C155  A    
C141  O53   S    
C56   H43   S    
C40   H188  S    
O47   Zn7   S    
C25   H152  S    
C67   C84   A    
O1    Zn5   S    
H75   N5    S    
O10   Zn13  S    
O7    Zn10  S    
C48   H21   S    
C72   C88   A    
C29   H161  S    
C1    C85   S    
C18   H133  S    
O33   Zn3   S    
C64   H64   S    
C21   H142  S    
C11   H102  S    
C19   O57   S    
C23   O59   S    
C58   H45   S    
C71   O75   S    
C42   H7    S    
H88   N11   S    
C30   O62   S    
O11   Zn14  S    
C34   H176  S    
O26   Zn5   S    
C51   H29   S    
C125  N12   S    
C112  O28   A    
C71   C89   A    
C133  O50   S    
C75   N24   S    
O35   Zn4   S    
O30   Zn7   S    
C35   C147  A    
C12   C14   S    
C77   C86   A    
C36   H177  S    
C27   H157  S    
C94   N10   S    
C70   C86   A    
H111  N20   S    
C35   C111  S    
C134  O51   S    
C117  O33   A    
C125  C133  S    
C68   C87   A    
C118  O35   A    
H93   N14   S    
C116  O32   A    
O1    Zn1   S    
C130  C136  S    
H91   N13   S    
C102  O80   A    
O23   Zn12  S    
H109  N19   S    
C107  O6    A    
C55   H42   S    
O39   Zn1   S    
O3    Zn13  S    
C71   C75   A    
H73   N4    S    
C143  C156  A    
C102  O21   A    
C23   C25   S    
C32   O63   S    
C44   H14   S    
H99   N17   S    
O23   Zn3   S    
C49   H26   S    
C80   O67   A    
O25   Zn6   S    
C124  O19   A    
C12   O53   S    
C2    C141  A    
C135  O18   A    
C32   H170  S    
O37   Zn10  S    
C97   C101  A    
C129  C131  S    
