data_mof_unit_53899.cif
_audit_creation_date              2013-03-05T15:53:43-0500
_audit_creation_method            fapswitch 2.2
_symmetry_space_group_name_H-M    P1
_symmetry_Int_Tables_number       1
_space_group_crystal_system       triclinic
_cell_length_a                    12.933867
_cell_length_b                    13.300343
_cell_length_c                    27.710442
_cell_angle_alpha                 94.379578
_cell_angle_beta                  90.393785
_cell_angle_gamma                 119.152819
_cell_volume                      4145.55690012

loop_
_atom_site_label
_atom_site_type_symbol
_atom_site_description
_atom_site_fract_x
_atom_site_fract_y
_atom_site_fract_z
_atom_type_partial_charge
O1    O     O_R   0.296680 0.802170 0.437540 -0.530125
O2    O     O_R   0.525380 0.838530 0.443500 -0.500255
C1    C     C_R   0.627168 0.898280 0.426505 0.539533
O3    O     O_R   0.702130 0.995190 0.446810 -0.518139
O4    O     O_R   0.661770 0.181390 0.458760 -0.507835
C2    C     C_R   0.601378 0.222857 0.440809 0.549546
O5    O     O_R   0.499820 0.198480 0.455280 -0.473455
O6    O     O_R   0.311660 0.976250 0.449080 -0.508148
C3    C     C_R   0.266991 0.876456 0.425890 0.506113
O7    O     O_R   0.297580 0.804960 0.544440 -0.483158
O8    O     O_R   0.526220 0.841130 0.542590 -0.480895
C4    C     C_R   0.627236 0.898714 0.564908 0.557048
O9    O     O_R   0.703030 0.997990 0.553710 -0.453003
O10   O     O_R   0.662610 0.183990 0.557860 -0.438756
C5    C     C_R   0.604679 0.228093 0.578204 0.564850
O11   O     O_R   0.500730 0.201280 0.562180 -0.498974
O12   O     O_R   0.312500 0.978850 0.548170 -0.482255
C6    C     C_R   0.272158 0.879453 0.563509 0.552638
Cr1   Cr    Cr6+3 0.416430 0.829200 0.492370 1.076685
Cr2   Cr    Cr6+3 0.674630 0.087020 0.504170 1.125938
Cr3   Cr    Cr6+3 0.408920 0.083740 0.503490 1.088159
O13   O     O_3   0.499990 0.999990 0.500010 -0.277200
C7    C     C_1   0.632877 0.270110 0.395094 0.062224
C8    C     C_R   0.730528 0.424799 0.287244 0.270312
C9    C     C_R   0.739103 0.435587 0.237354 -0.062733
C10   C     C_R   0.608012 0.228762 0.218293 0.059933
C11   C     C_R   0.598234 0.215247 0.268780 0.002515
C12   C     C_R   0.661302 0.313086 0.303025 -0.007503
C13   C     C_R   0.679394 0.340155 0.203313 -0.016197
C14   C     C_1   0.690600 0.362366 0.152923 -0.015490
C15   C     C_1   0.650025 0.295811 0.354032 0.043660
C16   C     C_1   0.701617 0.391133 0.112293 0.026881
H1    H     H_    0.791481 0.520296 0.224514 0.153868
C17   C     C_R   0.149681 0.744105 0.354373 -0.012958
C18   C     C_R   0.152697 0.739386 0.303373 0.036989
C19   C     C_R   0.147568 0.733012 0.201895 -0.005723
C20   C     C_R   0.154597 0.646480 0.224652 -0.085209
C21   C     C_R   0.160839 0.649960 0.275077 0.023425
C22   C     C_R   0.134796 0.723459 0.151824 -0.109161
H2    H     H_    0.124308 0.645555 0.131705 0.169712
H3    H     H_    0.159029 0.577547 0.202792 0.189002
C23   C     C_R   0.125684 0.807972 0.127884 -0.041454
C24   C     C_R   0.188613 0.943131 0.357599 -0.020321
C25   C     C_R   0.152693 0.924758 0.307686 -0.005837
C26   C     C_R   0.151239 0.830370 0.280048 0.046014
C27   C     C_R   0.123280 0.999712 0.284235 0.034262
C28   C     C_R   0.123845 0.998342 0.233081 0.249037
C29   C     C_R   0.144427 0.915939 0.205482 0.035450
C30   C     C_R   0.147573 0.826559 0.229196 0.029660
C31   C     C_R   0.149884 0.912708 0.154152 0.025755
C32   C     C_R   0.194478 0.853274 0.380281 -0.064079
C33   C     C_R   0.722194 0.966268 0.350571 -0.143041
C34   C     C_R   0.718568 0.955791 0.300062 -0.025313
C35   C     C_R   0.709933 0.928896 0.198079 0.064304
C36   C     C_R   0.778436 0.037923 0.223577 0.005582
C37   C     C_R   0.780877 0.053814 0.273884 -0.017508
C38   C     C_R   0.710045 0.915487 0.147047 0.038035
H4    H     H_    0.777619 0.048979 0.370404 0.132973
H5    H     H_    0.833984 0.112353 0.204651 0.236182
C39   C     C_R   0.664014 0.803247 0.124388 -0.032121
C40   C     C_R   0.580865 0.763733 0.352228 -0.086923
C41   C     C_R   0.585425 0.747008 0.301861 -0.022592
C42   C     C_R   0.650166 0.844218 0.275282 0.018794
C43   C     C_R   0.521507 0.635645 0.277764 0.196385
C44   C     C_R   0.512678 0.621480 0.226886 0.184853
C45   C     C_R   0.576722 0.718531 0.199395 -0.059325
C46   C     C_R   0.646185 0.830218 0.224235 -0.002534
C47   C     C_R   0.580458 0.707963 0.148196 -0.014534
C48   C     C_R   0.647909 0.872982 0.376379 0.001247
H6    H     H_    0.522255 0.693284 0.372788 0.173779
C49   C     C_R   0.741531 0.288120 0.652363 0.196598
C50   C     C_R   0.748914 0.304509 0.703243 0.013161
C51   C     C_R   0.757594 0.329552 0.805417 0.017928
C52   C     C_R   0.835265 0.300938 0.780744 -0.047114
C53   C     C_R   0.832539 0.290814 0.730503 -0.054278
C54   C     C_R   0.765358 0.348008 0.856419 0.196720
H7    H     H_    0.899947 0.287388 0.799911 0.210414
H8    H     H_    0.896760 0.271790 0.713509 0.211709
C55   C     C_R   0.685440 0.376451 0.879621 -0.010916
C56   C     C_R   0.578429 0.330158 0.650365 -0.106463
C57   C     C_R   0.584908 0.347867 0.700769 -0.023888
C58   C     C_R   0.668400 0.331532 0.727459 -0.007384
C59   C     C_R   0.506738 0.377730 0.724910 0.235795
C60   C     C_R   0.508364 0.386497 0.775649 0.200720
C61   C     C_R   0.589684 0.367063 0.802248 -0.059617
C62   C     C_R   0.672035 0.342960 0.778378 -0.009402
C63   C     C_R   0.592399 0.374696 0.852530 -0.135925
C64   C     C_R   0.648018 0.290488 0.626511 -0.016108
H9    H     H_    0.526949 0.389479 0.870934 0.212213
H10   H     H_    0.512473 0.338140 0.629350 0.201259
C65   C     C_1   0.226102 0.864019 0.610891 0.080041
C66   C     C_R   0.148421 0.746912 0.723440 -0.081164
C67   C     C_R   0.140967 0.738362 0.773427 0.194132
C68   C     C_R   0.208629 0.946605 0.786147 -0.000409
C69   C     C_R   0.217623 0.953009 0.735330 0.185303
C70   C     C_R   0.186044 0.852308 0.704326 -0.012392
C71   C     C_R   0.167492 0.837639 0.804994 -0.005323
C72   C     C_1   0.141055 0.822937 0.855474 0.118916
C73   C     C_1   0.202041 0.857041 0.652888 0.068007
C74   C     C_1   0.109227 0.802433 0.896087 0.110662
H11   H     H_    0.128158 0.671101 0.699133 0.204773
C75   C     C_1   0.641370 0.866298 0.611413 0.076940
C76   C     C_R   0.759218 0.869595 0.727151 -0.129279
C77   C     C_R   0.768453 0.860114 0.776787 0.213054
C78   C     C_R   0.553618 0.771516 0.779162 -0.088345
C79   C     C_R   0.544246 0.781113 0.729415 0.242096
C80   C     C_R   0.648862 0.830202 0.703332 -0.017879
C81   C     C_R   0.664174 0.811333 0.802926 -0.016950
C82   C     C_1   0.669709 0.801025 0.854030 0.059896
C83   C     C_1   0.646430 0.846441 0.652717 0.047631
C84   C     C_1   0.683743 0.791141 0.895990 0.083923
H12   H     H_    0.838753 0.907421 0.706814 0.177581
H13   H     H_    0.474425 0.734460 0.799710 0.198322
O14   O     O_R   0.820790 0.857990 0.068830 -0.509027
O15   O     O_R   0.016700 0.827330 0.062850 -0.510539
C85   C     C_R   0.065941 0.772636 0.079178 0.517275
O16   O     O_R   0.041970 0.673520 0.060040 -0.500879
O17   O     O_R   0.817980 0.483660 0.048840 -0.482849
C86   C     C_R   0.716540 0.440174 0.066952 0.548595
O18   O     O_R   0.637200 0.461990 0.052510 -0.510080
O19   O     O_R   0.664790 0.681920 0.057970 -0.494830
C87   C     C_R   0.717047 0.782569 0.080020 0.517131
O20   O     O_R   0.815840 0.852920 0.961840 -0.479333
O21   O     O_R   0.012100 0.822630 0.963670 -0.481901
C88   C     C_R   0.057502 0.766885 0.941570 0.547518
O22   O     O_R   0.037010 0.668460 0.953040 -0.463066
O23   O     O_R   0.813390 0.478970 0.949660 -0.437937
C89   C     C_R   0.709412 0.433058 0.929215 0.574407
O24   O     O_R   0.632250 0.456930 0.945520 -0.514369
O25   O     O_R   0.660200 0.677230 0.958780 -0.482184
C90   C     C_R   0.715766 0.776725 0.943336 0.555115
Cr4   Cr    Cr6+3 0.914010 0.832750 0.013970 1.091209
Cr5   Cr    Cr6+3 0.922310 0.578600 0.003000 1.146655
Cr6   Cr    Cr6+3 0.656280 0.574630 0.003870 1.100865
O26   O     O_3   0.830870 0.661990 0.006950 -0.282886
N1    N     N_R   0.790319 0.528338 0.320447 0.132922
O27   O     O_R   0.861964 0.627095 0.304256 -0.351548
O28   O     O_R   0.768653 0.527663 0.366222 -0.277263
N2    N     N_R   0.084399 0.066681 0.209105 0.104997
O29   O     O_R   0.991562 0.016260 0.179263 -0.376978
O30   O     O_R   0.148166 0.178885 0.212828 -0.120248
C91   C     C_2   0.071372 0.062478 0.312717 0.297519
H14   H     H_    0.020076 0.024842 0.343721 0.073365
O31   O     O_2   0.087882 0.157088 0.303280 -0.348762
C92   C     C_2   0.230621 0.058721 0.384185 0.266994
H15   H     H_    0.199493 0.065953 0.419863 0.118210
O32   O     O_2   0.301517 0.146421 0.366523 -0.416947
C93   C     C_2   0.747278 0.013804 0.115884 0.283044
H16   H     H_    0.766493 0.005051 0.078346 0.149589
O33   O     O_2   0.746912 0.102728 0.130089 -0.510188
C94   C     C_2   0.844943 0.174780 0.297331 0.256007
H17   H     H_    0.825156 0.196935 0.333155 0.096957
O34   O     O_2   0.919293 0.253346 0.275929 -0.386238
C95   C     C_2   0.494991 0.601485 0.118405 0.336511
H18   H     H_    0.501888 0.523389 0.118090 0.166854
O35   O     O_2   0.418756 0.602368 0.092518 -0.454614
N3    N     N_R   0.444430 0.506294 0.204195 0.080289
O36   O     O_R   0.486687 0.435316 0.204130 -0.298174
O37   O     O_R   0.332935 0.466402 0.192150 -0.221355
N4    N     N_R   0.471778 0.535492 0.304920 0.084115
O38   O     O_R   0.363516 0.452595 0.295603 -0.171520
O39   O     O_R   0.538578 0.522354 0.336295 -0.280160
N5    N     N_R   0.854646 0.340268 0.884439 0.074715
O40   O     O_R   0.966369 0.410527 0.879011 -0.237126
O41   O     O_R   0.824317 0.272181 0.919178 -0.309681
N6    N     N_R   0.826234 0.266072 0.627244 0.087337
O42   O     O_R   0.893675 0.336863 0.596756 -0.292452
O43   O     O_R   0.830362 0.171571 0.632190 -0.319595
N7    N     N_R   0.428972 0.418044 0.799823 0.092693
O44   O     O_R   0.315442 0.358320 0.789451 -0.192957
O45   O     O_R   0.471137 0.514443 0.827516 -0.327972
N8    N     N_R   0.428622 0.404012 0.698290 0.103333
O46   O     O_R   0.441017 0.507300 0.703873 -0.256487
O47   O     O_R   0.338738 0.322743 0.672075 -0.214639
C96   C     C_2   0.546665 0.129118 0.180670 0.356369
H19   H     H_    0.522773 0.142700 0.145100 0.138502
O48   O     O_2   0.526554 0.032035 0.188009 -0.464186
N9    N     N_R   0.108272 0.628453 0.791454 0.109244
O49   O     O_R   0.046682 0.533339 0.763608 -0.301049
O50   O     O_R   0.155561 0.623440 0.832171 -0.263394
C97   C     C_2   0.248323 0.055563 0.818394 0.328261
H20   H     H_    0.304215 0.138674 0.804776 0.163343
O51   O     O_2   0.219581 0.054922 0.860270 -0.456277
N10   N     N_R   0.256164 0.061133 0.715046 0.057634
O52   O     O_R   0.343826 0.099339 0.686279 -0.334109
O53   O     O_R   0.197857 0.117160 0.722429 -0.226076
N11   N     N_R   0.883920 0.901190 0.799786 0.091174
O54   O     O_R   0.976399 0.987051 0.783532 -0.276240
O55   O     O_R   0.899404 0.846216 0.833513 -0.335635
N12   N     N_R   0.428655 0.740572 0.706510 0.100036
O56   O     O_R   0.335092 0.660017 0.724680 -0.244876
O57   O     O_R   0.414520 0.789473 0.670028 -0.350346
C98   C     C_2   0.518556 0.100879 0.286766 0.306235
H21   H     H_    0.546926 0.073293 0.317682 0.068980
O58   O     O_2   0.418554 0.039307 0.268779 -0.444877
C99   C     C_2   0.086190 0.638505 0.380977 0.268659
H22   H     H_    0.094364 0.644348 0.420172 0.139490
O59   O     O_2   0.016528 0.544991 0.359899 -0.442177
C100  C     C_2   0.190465 0.567759 0.296550 0.328415
H23   H     H_    0.236967 0.590021 0.331786 0.114641
O60   O     O_2   0.162982 0.473949 0.274995 -0.338803
C101  C     C_2   0.199055 0.019607 0.128367 0.310758
H24   H     H_    0.176789 0.016432 0.090336 0.129357
O61   O     O_2   0.273103 0.112372 0.148680 -0.426038

loop_
_geom_bond_atom_site_label_1
_geom_bond_atom_site_label_2
_geom_bond_distance
_ccdc_geom_bond_type
C40   H6    1.082886 S    
C45   C47   1.418480 A    
C55   C89   1.469797 S    
N3    O36   1.300918 A    
C36   H5    1.078320 S    
O20   Cr4   2.033888 S    
N2    O30   1.301582 A    
N7    O44   1.301024 A    
C69   C70   1.409005 A    
C3    C32   1.488108 S    
C54   C55   1.406366 A    
C36   C37   1.391714 A    
O16   Cr5   2.060434 S    
C89   O24   1.262521 A    
C55   C63   1.403492 A    
N9    O49   1.300375 A    
C27   C91   1.491081 S    
O4    Cr2   1.904786 S    
C61   C62   1.408803 A    
N10   O52   1.300828 A    
O8    Cr1   1.922963 S    
C17   C32   1.405276 A    
C20   C21   1.395013 A    
C19   C22   1.384929 A    
C101  O61   1.221316 D    
C20   H3    1.085203 S    
C6    C65   1.433061 S    
C78   H13   1.084102 S    
C19   C20   1.393741 A    
N5    O41   1.301097 A    
N8    O46   1.299810 A    
C93   O33   1.219916 D    
C47   C95   1.480780 S    
C82   C84   1.202441 T    
O4    C2    1.272008 A    
C69   N10   1.435744 S    
C79   C80   1.415745 A    
C40   C48   1.388191 A    
C5    O11   1.277659 A    
C70   C73   1.443434 S    
C71   C72   1.447432 S    
C66   C70   1.390947 A    
C81   C82   1.437733 S    
O21   Cr4   1.931960 S    
C17   C18   1.411486 A    
C51   C52   1.401308 A    
O17   C86   1.273524 A    
C41   C43   1.404117 A    
C33   C48   1.399114 A    
C57   C59   1.409760 A    
C35   C36   1.403629 A    
N5    O40   1.301067 A    
O22   Cr5   2.024679 S    
N8    O47   1.300663 A    
O6    C3    1.275129 A    
C98   O58   1.220171 D    
C52   H7    1.081600 S    
C94   H17   1.081693 S    
O23   C89   1.280252 A    
C11   C98   1.489921 S    
C68   C97   1.494387 S    
O19   Cr6   1.952900 S    
C8    C12   1.417416 A    
C95   O35   1.220559 D    
C40   C41   1.402649 A    
O20   C90   1.264435 A    
C8    N1    1.449170 S    
C29   C31   1.423016 A    
C45   C46   1.422206 A    
C100  H23   1.084896 S    
N3    O37   1.301280 A    
Cr3   O13   1.975087 S    
N6    O43   1.301165 A    
N7    O45   1.301122 A    
O25   Cr6   1.902571 S    
C50   C53   1.405460 A    
C92   O32   1.221567 D    
C25   C27   1.423323 A    
C92   H15   1.085085 S    
C22   C23   1.399752 A    
O15   Cr4   1.920249 S    
C31   C101  1.488935 S    
C9    C13   1.396206 A    
C78   C81   1.398137 A    
C42   C46   1.409837 A    
O1    Cr1   2.044096 S    
O19   C87   1.268880 A    
C52   C53   1.386973 A    
C61   C63   1.388208 A    
C74   C88   1.433183 S    
C28   C29   1.419859 A    
O10   Cr2   1.951030 S    
Cr1   O13   1.975956 S    
O1    C3    1.282382 A    
C60   C61   1.414106 A    
C44   N3    1.431540 S    
C60   N7    1.437176 S    
C101  H24   1.082842 S    
C97   O51   1.220324 D    
C22   H2    1.084716 S    
C56   C57   1.393639 A    
C38   C39   1.401089 A    
C35   C46   1.423685 A    
C68   C71   1.422817 A    
C58   C62   1.405556 A    
C49   N6    1.436331 S    
C57   C58   1.415082 A    
O24   Cr6   2.072217 S    
C76   H12   1.084412 S    
C7    C15   1.204044 T    
C97   H20   1.084348 S    
C24   C25   1.420383 A    
N12   O56   1.301297 A    
C4    C75   1.427715 S    
C13   C14   1.442930 S    
C24   C92   1.486339 S    
C59   C60   1.401089 A    
O10   C5    1.267601 A    
C26   C30   1.405832 A    
O7    Cr1   2.041443 S    
C86   O18   1.264746 A    
C59   N8    1.435393 S    
C43   N4    1.442017 S    
C41   C42   1.419300 A    
O12   C6    1.271798 A    
C10   C11   1.422767 A    
C8    C9    1.400367 A    
C37   C94   1.493782 S    
C39   C87   1.483722 S    
C95   H18   1.084366 S    
C2    O5    1.266281 A    
O17   Cr5   1.907177 S    
C33   H4    1.077036 S    
C66   H11   1.084188 S    
C23   C31   1.409085 A    
C84   C90   1.427548 S    
C29   C30   1.418704 A    
Cr2   O13   1.970760 S    
C98   H21   1.085381 S    
C96   O48   1.220617 D    
C72   C74   1.205918 T    
C63   H9    1.080804 S    
C88   O22   1.269504 A    
C80   C83   1.437728 S    
C91   O31   1.219276 D    
C75   C83   1.202529 T    
C79   N12   1.441522 S    
C16   C86   1.430761 S    
C1    O3    1.257839 A    
C18   C26   1.422669 A    
C67   C71   1.415798 A    
N4    O39   1.301078 A    
C77   C81   1.413270 A    
C33   C34   1.394122 A    
N2    O29   1.300938 A    
N1    O28   1.300688 A    
C100  O60   1.221082 D    
C34   C37   1.415708 A    
C17   C99   1.494414 S    
C77   N11   1.440073 S    
C27   C28   1.416318 A    
N12   O57   1.300850 A    
O9    Cr2   2.021558 S    
C1    C48   1.461562 S    
O2    Cr1   1.927823 S    
C21   C100  1.483437 S    
O14   Cr4   2.054016 S    
C12   C15   1.446249 S    
C25   C26   1.411685 A    
O23   Cr5   1.943891 S    
C99   H22   1.083674 S    
O6    Cr3   1.947335 S    
N9    O50   1.301272 A    
C67   N9    1.441327 S    
O11   Cr3   2.067724 S    
Cr6   O26   1.970378 S    
O3    Cr2   2.068622 S    
C18   C21   1.421711 A    
C78   C79   1.403915 A    
N4    O38   1.300156 A    
O2    C1    1.277854 A    
C49   C50   1.405482 A    
C56   C64   1.393925 A    
C96   H19   1.084901 S    
O5    Cr3   2.020087 S    
C43   C44   1.404443 A    
C14   C16   1.203821 T    
C34   C42   1.418890 A    
C24   C32   1.425332 A    
N6    O42   1.300991 A    
C10   C96   1.491973 S    
O7    C6    1.268385 A    
Cr4   O26   1.975495 S    
C2    C7    1.430020 S    
C23   C85   1.474624 S    
C66   C67   1.398623 A    
C51   C54   1.410241 A    
N10   O53   1.300857 A    
C85   O16   1.268066 A    
O25   C90   1.270821 A    
O18   Cr6   2.018609 S    
C93   H16   1.081917 S    
C94   O34   1.221421 D    
C56   H10   1.081186 S    
C68   C69   1.419388 A    
C53   H8    1.080582 S    
O12   Cr3   1.903771 S    
C51   C62   1.420941 A    
N11   O55   1.301015 A    
C99   O59   1.220623 D    
C49   C64   1.416225 A    
O14   C87   1.282454 A    
N11   O54   1.301083 A    
O21   C88   1.276472 A    
C4    O9    1.267440 A    
C39   C47   1.418582 A    
C10   C13   1.409350 A    
C44   C45   1.431705 A    
C38   C93   1.500733 S    
C28   N2    1.437798 S    
C76   C77   1.400322 A    
Cr5   O26   1.975362 S    
C91   H14   1.085713 S    
N1    O27   1.301955 A    
C54   N5    1.436258 S    
C76   C80   1.397507 A    
C65   C73   1.205441 T    
C50   C58   1.414672 A    
C19   C30   1.405894 A    
O15   C85   1.279537 A    
O8    C4    1.271889 A    
C9    H1    1.084344 S    
C5    C64   1.470215 S    
C11   C12   1.423313 A    
C35   C38   1.411841 A    
