data_mof_unit_67035.cif
_audit_creation_date              2013-03-05T15:58:15-0500
_audit_creation_method            fapswitch 2.2
_symmetry_space_group_name_H-M    P1
_symmetry_Int_Tables_number       1
_space_group_crystal_system       triclinic
_cell_length_a                    8.386019
_cell_length_b                    12.791921
_cell_length_c                    14.323922
_cell_angle_alpha                 93.89465
_cell_angle_beta                  90.877809
_cell_angle_gamma                 97.716979
_cell_volume                      1518.67755718

loop_
_atom_site_label
_atom_site_type_symbol
_atom_site_description
_atom_site_fract_x
_atom_site_fract_y
_atom_site_fract_z
_atom_type_partial_charge
P1    P     P_3+3 0.054400 0.427280 0.286870 0.502265
O1    O     O_2   0.887370 0.460630 0.272300 -0.370321
O2    O     O_3   0.129410 0.451380 0.388510 -0.354327
O3    O     O_3   0.670210 0.653170 0.329170 -0.346355
O4    O     O_2   0.737375 0.553642 0.167834 -0.411406
O5    O     O_3   0.049310 0.291364 0.252225 -0.618338
O6    O     O_3   0.740633 0.752362 0.156565 -0.467240
H1    H     H_    0.730640 0.884723 0.244084 0.056364
C1    C     C_3   0.673422 0.911801 0.100056 -0.022803
H2    H     H_    0.622222 0.985503 0.120842 0.054513
P2    P     P_3+3 0.668300 0.742890 0.573060 0.457080
P3    P     P_3+3 0.136028 0.841613 0.378840 0.558060
O7    O     O_2   0.845380 0.761330 0.544970 -0.344415
O8    O     O_3   0.088930 0.704860 0.376040 -0.365299
O9    O     O_2   0.009089 0.888776 0.439988 -0.304225
O10   O     O_3   0.677789 0.759665 0.695313 -0.576334
O11   O     O_3   0.097630 0.879548 0.266321 -0.511012
C2    C     C_3   0.177058 0.820151 0.199460 1.101376
H3    H     H_    0.277213 0.783411 0.229870 -0.139776
C3    C     C_3   0.249231 0.893379 0.127107 -0.846468
H4    H     H_    0.153171 0.927446 0.090191 0.298607
H5    H     H_    0.334533 0.958809 0.161959 0.194415
C4    C     C_3   0.309778 0.762855 0.721284 0.546057
H6    H     H_    0.386227 0.712724 0.681670 0.097426
C5    C     C_3   0.387860 0.802770 0.816697 -1.093150
H7    H     H_    0.429087 0.736620 0.851596 0.244461
H8    H     H_    0.494664 0.862831 0.809407 0.296353
H9    H     H_    0.300693 0.838570 0.862245 0.268309
Ba1   Ba    Ba6+2 0.855630 0.555280 0.454520 1.612422
C6    C     C_3   0.948155 0.221313 0.303141 0.603151
C7    C     C_3   0.902787 0.116681 0.242566 0.164836
H10   H     H_    0.821933 0.127930 0.182844 0.097254
H11   H     H_    0.833712 0.057697 0.285095 0.094478
C8    C     C_3   0.735246 0.675120 0.735124 0.386426
H12   H     H_    0.835142 0.648029 0.694765 0.128571
H13   H     H_    0.635444 0.609064 0.738332 0.098232
C9    C     C_3   0.796291 0.713167 0.834282 -0.882049
H14   H     H_    0.908387 0.769843 0.831679 0.279324
H15   H     H_    0.820257 0.646158 0.874609 0.216361
H16   H     H_    0.705815 0.753787 0.872624 0.259647
P4    P     P_3+3 0.135310 0.572810 0.713130 0.479615
O12   O     O_2   0.302330 0.539400 0.727760 -0.395155
O13   O     O_3   0.060300 0.548700 0.611500 -0.364715
O14   O     O_3   0.519500 0.346920 0.670840 -0.389937
O15   O     O_3   0.154277 0.710970 0.734760 -0.566160
P5    P     P_3+3 0.038981 0.161041 0.631965 0.439332
O16   O     O_3   0.614310 0.373510 0.452640 -0.364490
O17   O     O_3   0.100780 0.295230 0.623970 -0.391525
O18   O     O_2   0.179529 0.099864 0.600975 -0.380964
O19   O     O_3   0.008118 0.142738 0.751184 -0.617698
Ba2   Ba    Ba6+2 0.334200 0.444810 0.545490 1.600002
P6    P     P_3+3 0.642654 0.641405 0.206533 0.483181
C10   C     C_3   0.665754 0.841437 0.182075 0.626423
H17   H     H_    0.537651 0.822141 0.199859 -0.214553
H18   H     H_    0.600762 0.869195 0.040034 0.110819
O20   O     O_3   0.575400 0.626570 0.547370 -0.399128
C11   C     C_3   0.452273 0.308733 0.261020 0.341343
H19   H     H_    0.344488 0.333970 0.294374 0.113119
H20   H     H_    0.553733 0.374198 0.270884 0.095097
C12   C     C_3   0.417756 0.285706 0.156529 -0.876460
H21   H     H_    0.308551 0.226801 0.144705 0.304697
H22   H     H_    0.398141 0.359245 0.123847 0.217608
H23   H     H_    0.520560 0.253467 0.122487 0.233529
P7    P     P_3+3 0.520411 0.241441 0.420348 0.479575
O21   O     O_2   0.344320 0.238700 0.455090 -0.381540
O22   O     O_3   0.491311 0.216847 0.299027 -0.554383
H24   H     H_    0.313938 0.848378 0.074433 0.181255
C13   C     C_3   0.153111 0.148659 0.802528 0.409361
H25   H     H_    0.259950 0.166436 0.759259 0.155713
C14   C     C_3   0.160255 0.042155 0.843989 -0.847897
H26   H     H_    0.276965 0.042327 0.881669 0.242893
H27   H     H_    0.060565 0.024897 0.893230 0.250597
H28   H     H_    0.147815 0.978268 0.787193 0.243227
P8    P     P_3+3 0.545317 0.361458 0.792363 0.405090
C15   C     C_3   0.618214 0.172757 0.810071 1.000903
H29   H     H_    0.730005 0.215620 0.782048 -0.010506
O23   O     O_2   0.414631 0.423169 0.834536 -0.399728
O24   O     O_3   0.502208 0.237889 0.837666 -0.604075
H30   H     H_    0.704164 0.180296 0.954154 0.211759
C16   C     C_3   0.668320 0.119671 0.895901 -0.837093
H31   H     H_    0.772639 0.077250 0.880329 0.254645
H32   H     H_    0.567196 0.062792 0.918947 0.232646
C17   C     C_R   0.984070 0.443915 0.055449 0.042746
C18   C     C_R   0.173616 0.502199 0.196935 0.131151
C19   C     C_R   0.321418 0.558997 0.228782 0.153174
C20   C     C_R   0.433606 0.600453 0.165660 0.143691
C21   C     C_R   0.392179 0.599860 0.070947 -0.374852
C22   C     C_R   0.239428 0.553464 0.036758 0.127225
C23   C     C_R   0.130089 0.498232 0.097796 -0.094251
C24   C     C_R   0.051549 0.509770 0.901209 -0.039240
C25   C     C_R   0.938980 0.460240 0.962368 0.023038
C26   C     C_R   0.010502 0.505262 0.802672 0.254198
C27   C     C_R   0.859486 0.455617 0.770806 -0.501698
C28   C     C_R   0.743970 0.421325 0.833827 0.227532
C29   C     C_R   0.782465 0.422481 0.928104 -0.298738
C30   C     C_R   0.200874 0.556637 0.940433 -0.089494
H33   H     H_    0.480693 0.634539 0.023586 0.166267
H34   H     H_    0.689476 0.391055 0.974224 0.150988
H35   H     H_    0.827291 0.449942 0.696979 0.165829
H36   H     H_    0.289556 0.594783 0.896288 0.152466
C31   C     C_R   0.761006 0.176084 0.525765 -0.478362
C32   C     C_R   0.430058 0.814366 0.465216 -0.358129
C33   C     C_R   0.407394 0.992492 0.426753 -0.209209
C34   C     C_R   0.342632 0.886408 0.425530 0.225586
C35   C     C_R   0.573949 0.848048 0.516312 0.169632
C36   C     C_R   0.636177 0.959060 0.524435 -0.055735
C37   C     C_R   0.553816 0.030583 0.474688 -0.087634
C38   C     C_R   0.616380 0.139775 0.478039 0.297909
C39   C     C_R   0.845936 0.107873 0.570933 0.249757
C40   C     C_R   0.776552 0.002943 0.579060 -0.160453
H37   H     H_    0.340099 0.044746 0.391292 0.217747
H38   H     H_    0.808923 0.259119 0.527867 0.166661
H39   H     H_    0.379273 0.731858 0.462107 0.199500
O25   O     O_3   0.809079 0.263124 0.325289 -0.800217
H40   H     H_    0.760888 0.277159 0.264819 0.323084
C41   C     C_2   0.032250 0.202139 0.391507 0.565029
H41   H     H_    0.060523 0.266956 0.444115 0.075563
O26   O     O_2   0.066056 0.114780 0.406586 -0.564401
O27   O     O_3   0.041308 0.076802 0.210315 -0.649705
H42   H     H_    0.065862 0.106246 0.149071 0.370314
O28   O     O_3   0.833168 0.936372 0.073316 -0.664338
H43   H     H_    0.830783 0.983710 0.021440 0.333796
C42   C     C_2   0.156428 0.236790 0.877773 0.683738
H44   H     H_    0.122013 0.311405 0.859527 -0.003077
O29   O     O_2   0.200030 0.226980 0.958091 -0.572669
O30   O     O_3   0.549006 0.095250 0.742467 -0.757569
H45   H     H_    0.530598 0.132344 0.685472 0.304711
O31   O     O_3   0.066242 0.741119 0.153450 -0.703709
H46   H     H_    0.030888 0.690011 0.200374 0.332803
O32   O     O_3   0.358060 0.572435 0.322863 -0.702963
H47   H     H_    0.430597 0.519739 0.335501 0.319777
C43   C     C_2   0.895311 0.350243 0.093683 0.563380
H48   H     H_    0.783420 0.355696 0.128839 0.006511
O33   O     O_2   0.937353 0.263828 0.075047 -0.610872
C44   C     C_2   0.836079 0.952529 0.659108 0.734806
H49   H     H_    0.946557 0.918766 0.655085 0.091015
O34   O     O_2   0.768458 0.957037 0.733640 -0.577238
C45   C     C_2   0.295398 0.855232 0.664709 0.355217
H50   H     H_    0.386200 0.924190 0.670469 0.103274
O35   O     O_2   0.184666 0.851808 0.608192 -0.552455

loop_
_geom_bond_atom_site_label_1
_geom_bond_atom_site_label_2
_geom_bond_distance
_ccdc_geom_bond_type
C21   C22   1.403585 A    
C22   C30   1.416808 A    
C27   C28   1.382819 A    
C4    O15   1.403910 S    
C8    C9    1.527471 S    
P4    O12   1.533712 D    
P8    C28   1.811005 S    
C3    H24   1.110186 S    
C11   O22   1.403542 S    
O31   H46   0.990361 S    
O25   H40   0.987767 S    
C11   H19   1.104592 S    
C29   H34   1.083418 S    
C44   H49   1.074206 S    
C6    C41   1.490274 S    
C10   H17   1.107065 S    
P1    C18   1.878113 S    
P5    O18   1.554096 D    
O30   H45   0.991929 S    
O3    P6    1.761867 S    
C12   H23   1.110016 S    
C33   H37   1.077931 S    
Ba1   Ba2   4.627568 S    
O6    P6    1.744929 S    
C8    H12   1.105290 S    
C9    H16   1.107782 S    
C31   H38   1.082245 S    
C3    H5    1.110399 S    
C36   C40   1.430995 A    
C6    C7    1.544154 S    
C42   O29   1.221509 D    
C36   C37   1.437029 A    
C31   C39   1.384436 A    
C41   H41   1.080913 S    
C32   C35   1.402794 A    
C12   H22   1.109119 S    
P1    O1    1.533356 D    
Ba2   O21   2.869663 S    
O2    Ba1   2.940584 S    
C4    C45   1.494317 S    
C2    O31   1.399442 S    
C13   H25   1.104547 S    
O17   Ba2   2.847852 S    
C43   H48   1.079901 S    
P8    O23   1.541744 D    
P3    O11   1.751881 S    
P2    C35   1.873747 S    
C1    O28   1.399678 S    
C4    H6    1.102886 S    
C7    H11   1.109880 S    
O4    P6    1.538509 D    
C14   H26   1.110088 S    
C1    H18   1.112929 S    
C15   C16   1.524263 S    
C27   H35   1.082587 S    
C2    C3    1.522068 S    
O3    Ba1   2.820010 S    
O12   Ba2   2.833896 S    
O10   C8    1.393663 S    
C31   C38   1.390758 A    
Ba1   O13   2.820517 S    
P4    O13   1.571252 S    
C40   C44   1.466001 S    
C13   C42   1.502989 S    
P7    C38   1.851645 S    
C17   C23   1.428859 A    
P5    O17   1.737187 S    
P1    O5    1.770065 S    
C42   H44   1.080813 S    
C18   C19   1.402881 A    
C16   H32   1.110407 S    
O16   P7    1.792634 S    
O2    Ba2   2.821101 S    
C20   C21   1.394539 A    
C2    H3    1.112951 S    
C11   C12   1.521408 S    
O16   Ba2   2.936810 S    
C5    H7    1.102812 S    
C19   C20   1.393220 A    
C24   C30   1.405084 A    
C12   H21   1.108028 S    
C5    H9    1.110701 S    
P7    O22   1.752307 S    
O14   P8    1.745031 S    
C15   H29   1.115355 S    
C9    H14   1.110131 S    
C19   O32   1.371741 S    
P2    O10   1.748990 S    
C24   C26   1.443167 A    
C7    H10   1.112378 S    
P3    O9    1.547125 D    
C37   C38   1.421928 A    
C14   H28   1.106695 S    
P1    Ba1   3.398194 S    
O11   C2    1.412364 S    
C3    H4    1.109494 S    
C32   C34   1.396332 A    
C7    O27   1.402361 S    
O28   H43   0.991541 S    
C45   O35   1.216885 D    
O14   Ba2   2.819404 S    
C43   O33   1.218584 D    
O5    C6    1.399297 S    
Ba1   O16   2.868579 S    
O1    Ba1   2.833367 S    
C1    C10   1.524772 S    
C18   C23   1.456622 A    
O6    C10   1.403140 S    
O8    Ba1   2.847245 S    
C6    O25   1.379406 S    
O7    Ba1   2.869433 S    
C44   O34   1.218027 D    
Ba2   O20   2.867888 S    
P3    O8    1.738449 S    
C16   H31   1.107499 S    
H1    C10   1.108628 S    
C33   C37   1.408773 A    
O27   H42   0.991678 S    
P3    C34   1.850213 S    
Ba1   O20   2.937615 S    
C5    H8    1.110113 S    
C17   C25   1.416978 A    
C35   C36   1.441914 A    
P5    O19   1.757708 S    
C15   O30   1.398343 S    
P7    O21   1.562208 D    
P6    C20   1.835956 S    
O32   H47   0.990212 S    
C17   C43   1.466923 S    
C9    H15   1.103983 S    
C32   H39   1.081500 S    
C39   C40   1.402603 A    
P2    O7    1.536189 D    
O13   Ba2   2.941368 S    
C24   C25   1.414251 A    
C30   H36   1.072338 S    
C26   C27   1.393698 A    
C41   O26   1.221388 D    
C1    H2    1.111914 S    
C8    H13   1.110453 S    
C4    C5    1.531429 S    
C28   C29   1.382282 A    
C15   O24   1.407667 S    
C11   H20   1.110883 S    
C45   H50   1.082847 S    
C25   C29   1.405258 A    
H30   C16   1.108977 S    
P4    C26   1.853617 S    
C22   C23   1.427879 A    
P2    Ba1   3.413374 S    
C13   C14   1.530718 S    
P8    O24   1.744531 S    
P5    C39   1.851428 S    
C33   C34   1.391158 A    
P4    O15   1.758795 S    
C14   H27   1.111212 S    
P1    O2    1.571372 S    
O19   C13   1.401922 S    
P4    Ba2   3.398667 S    
P2    O20   1.600587 S    
C21   H33   1.084381 S    
