data_mof_unit_68508.cif
_audit_creation_date              2012-12-11T14:22:47-0500
_audit_creation_method            fapswitch 2.2
_symmetry_space_group_name_H-M    P1
_symmetry_Int_Tables_number       1
_space_group_crystal_system       triclinic
_cell_length_a                    8.181479
_cell_length_b                    14.362458
_cell_length_c                    15.226348
_cell_angle_alpha                 93.934203
_cell_angle_beta                  99.67854
_cell_angle_gamma                 91.287262
_cell_volume                      1758.51500604

loop_
_atom_site_label
_atom_site_type_symbol
_atom_type_description
_atom_site_fract_x
_atom_site_fract_y
_atom_site_fract_z
_atom_type_partial_charge
Ba1   Ba    Ba6+2 0.142880 0.544780 0.454020 1.725075
Ba2   Ba    Ba6+2 0.667290 0.455210 0.545900 1.703525
C1    C     C_3   0.330895 0.816687 0.115668 0.244336
C2    C     C_R   0.816119 0.803499 0.503288 0.097098
C3    C     C_R   0.658249 0.772226 0.460435 -0.260909
C4    C     C_3   0.836524 0.790824 0.172338 0.721734
C5    C     C_R   0.543626 0.834185 0.422274 -0.036696
C6    C     C_R   0.589490 0.927204 0.419065 -0.113890
C7    C     C_R   0.751435 0.960572 0.455547 0.068584
C8    C     C_R   0.862269 0.900902 0.504768 0.029615
C9    C     C_R   0.950494 0.094404 0.491205 -0.003589
C10   C     C_R   0.059799 0.035269 0.543486 0.004392
C11   C     C_R   0.995647 0.192929 0.493227 0.045337
C12   C     C_3   0.377451 0.784751 0.209733 0.359811
C13   C     C_R   0.151797 0.224346 0.538502 -0.195351
C14   C     C_R   0.263914 0.163609 0.581300 0.034776
C15   C     C_R   0.217092 0.070356 0.586094 -0.132389
C16   C     C_3   0.883865 0.858272 0.106120 -0.191747
C17   C     C_R   0.806096 0.050589 0.437814 0.058806
C18   C     C_R   0.241561 0.474071 0.772961 -0.291079
C19   C     C_R   0.144695 0.445853 0.833368 0.022730
C20   C     C_R   0.199241 0.465934 0.925284 -0.073639
C21   C     C_R   0.356398 0.511386 0.958746 0.042884
C22   C     C_R   0.455783 0.538641 0.893999 0.009595
C23   C     C_3   0.527614 0.742705 0.657001 0.339845
C24   C     C_R   0.390138 0.524196 0.801713 0.051139
C25   C     C_R   0.542985 0.591396 0.097189 -0.167302
C26   C     C_R   0.628732 0.585758 0.183166 -0.029840
C27   C     C_R   0.413424 0.482196 0.212691 0.019905
C28   C     C_3   0.791819 0.348065 0.276519 0.496686
C29   C     C_R   0.347106 0.471693 0.120915 -0.092313
C30   C     C_R   0.413871 0.526015 0.059623 0.045409
C31   C     C_R   0.557231 0.536399 0.242331 -0.210921
C32   C     C_3   0.826703 0.331342 0.180691 0.256488
C33   C     C_3   0.043856 0.665284 0.721492 0.329773
C34   C     C_3   0.539136 0.848778 0.673308 0.222448
C35   C     C_3   0.080532 0.695844 0.820772 -0.352597
C36   C     C_3   0.384584 0.242980 0.290465 0.556762
C37   C     C_3   0.399114 0.212218 0.194534 -0.207643
C38   C     C_3   0.754597 0.931658 0.083348 -0.349344
C39   C     C_3   0.524193 0.093885 0.908375 -0.269599
C40   C     C_3   0.746334 0.080652 0.345415 -0.260529
C41   C     C_3   0.629857 0.582041 0.919869 -0.336804
C42   C     C_3   0.963843 0.206405 0.749670 0.384864
C43   C     C_3   0.979041 0.108514 0.781736 -0.290709
C44   C     C_3   0.432491 0.208172 0.792012 0.273093
C45   C     C_3   0.502629 0.196702 0.890235 0.262156
C46   C     C_R   0.016033 0.940129 0.549028 -0.006672
Cl1   Cl    Cl    0.771947 0.215801 0.132527 -0.690405
Cl2   Cl    Cl    0.323334 0.144144 0.343526 -0.696479
Cl3   Cl    Cl    0.716803 0.884695 0.754295 -0.718289
Cl4   Cl    Cl    0.337879 0.941169 0.117622 -0.675170
Cl5   Cl    Cl    0.365713 0.246641 0.958797 -0.726177
Cl6   Cl    Cl    0.868195 0.848288 0.281531 -0.711844
H1    H     H_    0.370049 0.707260 0.205518 -0.059578
H2    H     H_    0.204882 0.789158 0.085364 0.059572
H3    H     H_    0.276253 0.186950 0.156652 0.200109
H4    H     H_    0.486836 0.154563 0.193445 0.177466
H5    H     H_    0.443737 0.271898 0.161411 0.102555
H6    H     H_    0.506341 0.810273 0.236862 -0.004607
H7    H     H_    0.418797 0.788912 0.073175 -0.017878
H8    H     H_    0.644970 0.717735 0.638030 0.003352
H9    H     H_    0.423481 0.724514 0.601198 -0.019642
H10   H     H_    0.548904 0.881189 0.610285 -0.034290
H11   H     H_    0.425876 0.874056 0.697264 0.057637
H12   H     H_    0.757367 0.381437 0.137317 0.023558
H13   H     H_    0.856561 0.205851 0.694476 0.091693
H14   H     H_    0.077936 0.225860 0.723865 -0.115053
H15   H     H_    0.863036 0.087000 0.804589 0.172414
H16   H     H_    0.000501 0.058349 0.726473 0.076300
H17   H     H_    0.084115 0.106773 0.838124 0.155711
H18   H     H_    0.319773 0.162283 0.772376 -0.017997
H19   H     H_    0.400060 0.282574 0.785169 0.031165
H20   H     H_    0.624725 0.234852 0.908469 0.145537
H21   H     H_    0.621695 0.699310 0.460081 0.049975
H22   H     H_    0.499064 0.973036 0.386395 0.147792
H23   H     H_    0.960682 0.342035 0.179666 0.095613
H24   H     H_    0.304532 0.024990 0.622058 0.059983
H25   H     H_    0.188854 0.297096 0.538094 0.063953
H26   H     H_    0.102973 0.897467 0.588542 0.080230
H27   H     H_    0.581708 0.646915 0.061963 0.053052
H28   H     H_    0.116220 0.446393 0.969480 0.085137
H29   H     H_    0.246662 0.420921 0.099420 0.091924
H30   H     H_    0.704176 0.769700 0.151456 -0.144567
H31   H     H_    0.618614 0.536348 0.311083 0.056496
H32   H     H_    0.196382 0.461297 0.702040 0.052982
H33   H     H_    0.004168 0.894424 0.134636 0.215275
H34   H     H_    0.157256 0.639100 0.699592 -0.023447
H35   H     H_    0.898573 0.818101 0.042994 0.090237
H36   H     H_    0.660998 0.365166 0.273145 -0.289572
H37   H     H_    0.867840 0.409559 0.308571 0.041853
H38   H     H_    0.638340 0.897894 0.045411 0.155552
H39   H     H_    0.728709 0.970502 0.144768 0.203422
H40   H     H_    0.801997 0.982154 0.040787 0.176399
H41   H     H_    0.613268 0.062072 0.868678 0.135455
H42   H     H_    0.572898 0.087907 0.980237 0.193844
H43   H     H_    0.403517 0.054293 0.890915 0.136695
H44   H     H_    0.853961 0.103085 0.315452 0.191221
H45   H     H_    0.945831 0.609210 0.710039 0.055307
H46   H     H_    0.685554 0.022786 0.298419 0.147835
H47   H     H_    0.654608 0.134697 0.348151 0.148506
H48   H     H_    0.623914 0.658784 0.932580 0.095910
H49   H     H_    0.703406 0.546465 0.974961 0.118399
H50   H     H_    0.707023 0.575379 0.868240 0.158086
H51   H     H_    0.185169 0.748325 0.834526 0.139116
H52   H     H_    0.113883 0.635655 0.860688 0.020911
H53   H     H_    0.969105 0.727077 0.842001 0.164179
H54   H     H_    0.502699 0.271222 0.329087 0.043538
O1    O     O_2   0.113690 0.728200 0.532750 -0.473940
O2    O     O_2   0.796211 0.427473 0.821076 -0.482639
O3    O     O_3   0.939326 0.268890 0.820918 -0.556539
O4    O     O_3   0.871900 0.612110 0.540440 -0.507182
O5    O     O_3   0.421180 0.451020 0.394720 -0.476945
O6    O     O_2   0.662730 0.548230 0.717350 -0.476988
O7    O     O_3   0.499419 0.703436 0.735160 -0.627417
O8    O     O_2   0.600978 0.168639 0.573940 -0.466573
O9    O     O_3   0.550174 0.182365 0.738377 -0.618943
O10   O     O_3   0.325660 0.668890 0.372600 -0.486075
O11   O     O_2   0.204674 0.830273 0.425537 -0.422919
O12   O     O_3   0.258418 0.306077 0.290634 -0.593047
O13   O     O_3   0.992120 0.743055 0.675669 -0.605690
O14   O     O_3   0.266742 0.820374 0.263544 -0.508828
O15   O     O_2   0.147570 0.451710 0.282630 -0.456105
O16   O     O_3   0.905540 0.621350 0.329600 -0.442086
O17   O     O_2   0.945035 0.535291 0.178202 -0.510944
O18   O     O_3   0.939856 0.713988 0.171945 -0.582835
O19   O     O_2   0.696600 0.271740 0.467230 -0.463623
O20   O     O_3   0.938380 0.387880 0.459490 -0.498637
O21   O     O_3   0.484630 0.331100 0.627330 -0.464907
O22   O     O_3   0.821853 0.266663 0.322021 -0.624639
O23   O     O_3   0.389110 0.548970 0.605210 -0.483860
O24   O     O_3   0.904740 0.378630 0.670330 -0.505105
P1    P     P_3+3 0.947560 0.714050 0.560480 0.998895
P2    P     P_3+3 0.325150 0.423860 0.297970 0.992762
P3    P     P_3+3 0.850773 0.617730 0.213700 0.987621
P4    P     P_3+3 0.862730 0.285940 0.439440 1.008159
P5    P     P_3+3 0.945992 0.382869 0.787324 0.991756
P6    P     P_3+3 0.335191 0.790069 0.372529 1.065094
P7    P     P_3+3 0.481423 0.581766 0.715771 0.943879
P8    P     P_3+3 0.473780 0.209536 0.629098 0.994039

loop_
_geom_bond_atom_site_label_1
_geom_bond_atom_site_label_2
_ccdc_geom_bond_type
C12   O14   S    
C43   H17   S    
C26   P3    S    
Ba2   O6    S    
Ba1   O20   S    
C19   P5    S    
C38   H39   S    
C10   C46   A    
C32   H12   S    
C5    C6    A    
C9    C17   A    
C20   H28   S    
C33   C35   S    
C22   C24   A    
C35   H53   S    
O20   P4    S    
Ba1   O4    S    
C23   H9    S    
C36   C37   S    
Ba2   O5    S    
Ba1   P1    S    
C39   H42   S    
C13   C14   A    
C37   H3    S    
C27   C31   A    
C6    H22   S    
Ba2   O21   S    
C29   H29   S    
Ba1   Ba2   S    
C33   H34   S    
C31   H31   S    
C41   H50   S    
C16   C38   S    
Ba1   O1    S    
C7    C17   A    
C13   H25   S    
C14   C15   A    
C18   H32   S    
C10   C15   A    
Ba2   O24   S    
C21   C22   A    
C28   H37   S    
C7    C8    A    
O4    P1    S    
C44   H18   S    
C17   C40   S    
C28   H36   S    
C45   Cl5   S    
C36   O12   S    
Ba2   O19   S    
O17   P3    D    
C27   P2    S    
C25   C30   A    
C19   C20   A    
Ba2   O4    S    
O11   P6    D    
C14   P8    S    
Ba1   O5    S    
C4    Cl6   S    
C33   H45   S    
C1    H7    S    
C4    C16   S    
C4    H30   S    
C28   C32   S    
O15   P2    D    
O1    P1    D    
C25   H27   S    
O19   P4    D    
C4    O18   S    
C24   P7    S    
C3    C5    A    
C34   H11   S    
C6    C7    A    
O24   P5    S    
C28   O22   S    
C37   H4    S    
C43   H15   S    
Ba2   P4    S    
C44   O9    S    
C3    H21   S    
Ba1   O15   S    
C35   H51   S    
C40   H46   S    
C1    H2    S    
C29   C30   A    
C33   O13   S    
C1    Cl4   S    
C37   H5    S    
Ba2   O23   S    
C39   C45   S    
O6    P7    D    
C38   H38   S    
C34   Cl3   S    
O14   P6    S    
C1    C12   S    
O7    P7    S    
O18   P3    S    
O5    P2    S    
C11   C13   A    
C8    C46   A    
C11   P4    S    
C39   H43   S    
C42   H14   S    
O9    P8    S    
C2    C8    A    
Ba1   P2    S    
C40   H47   S    
C42   C43   S    
O3    P5    S    
C44   C45   S    
C32   Cl1   S    
O16   P3    S    
C43   H16   S    
C16   H35   S    
O2    P5    D    
O22   P4    S    
C45   H20   S    
C38   H40   S    
C2    C3    A    
Ba1   O23   S    
C40   H44   S    
C26   C31   A    
C5    P6    S    
C9    C10   A    
C36   Cl2   S    
C23   H8    S    
C12   H6    S    
C16   H33   S    
C21   C30   S    
C46   H26   S    
C23   O7    S    
C41   H48   S    
C35   H52   S    
C32   H23   S    
O10   P6    S    
C9    C11   A    
C39   H41   S    
O21   P8    S    
C18   C24   A    
C15   H24   S    
C12   H1    S    
O12   P2    S    
Ba1   O10   S    
C36   H54   S    
C41   H49   S    
Ba1   O16   S    
O23   P7    S    
C23   C34   S    
C42   O3    S    
C18   C19   A    
C27   C29   A    
C25   C26   A    
C22   C41   S    
C20   C21   A    
C42   H13   S    
O13   P1    S    
C34   H10   S    
C44   H19   S    
C2    P1    S    
O8    P8    D    
Ba2   O20   S    
