data_mof_unit_37388.cif
_audit_creation_date              2012-12-11T14:06:07-0500
_audit_creation_method            fapswitch 2.2
_symmetry_space_group_name_H-M    P1
_symmetry_Int_Tables_number       1
_space_group_crystal_system       triclinic
_cell_length_a                    24.125753
_cell_length_b                    24.094454
_cell_length_c                    24.078937
_cell_angle_alpha                 89.997222
_cell_angle_beta                  89.911551
_cell_angle_gamma                 89.861258
_cell_volume                      13996.9524011

loop_
_atom_site_label
_atom_site_type_symbol
_atom_type_description
_atom_site_fract_x
_atom_site_fract_y
_atom_site_fract_z
_atom_type_partial_charge
C1    C     C_R   0.291780 0.708494 0.221865 0.042211
C2    C     C_R   0.780296 0.708728 0.292315 0.041154
C3    C     C_1   0.675695 0.816049 0.677310 -0.019939
C4    C     C_1   0.821731 0.321349 0.321252 -0.030253
C5    C     C_1   0.181051 0.676948 0.675213 -0.035020
C6    C     C_1   0.680852 0.823767 0.321846 -0.025694
C7    C     C_1   0.318682 0.176293 0.681194 -0.046689
C8    C     C_1   0.177651 0.323207 0.682568 -0.023206
C9    C     C_1   0.822947 0.678065 0.318912 -0.027166
C10   C     C_1   0.324604 0.816206 0.674051 -0.031027
C11   C     C_1   0.678144 0.180772 0.321825 -0.015388
C12   C     C_1   0.826151 0.683086 0.678478 -0.026381
C13   C     C_R   0.216452 0.286556 0.288606 0.027971
C14   C     C_1   0.176261 0.315764 0.321440 -0.029755
C15   C     C_1   0.681001 0.178986 0.676823 -0.034633
C16   C     C_1   0.322117 0.820375 0.322271 -0.024124
C17   C     C_1   0.317808 0.322677 0.178321 -0.035822
C18   C     C_1   0.679421 0.676828 0.819613 -0.044928
C19   C     C_1   0.321922 0.676551 0.819993 -0.009207
C20   C     C_1   0.679127 0.320666 0.177162 -0.048284
C21   C     C_1   0.673701 0.324282 0.814215 -0.028762
C22   C     C_1   0.323884 0.678742 0.182125 -0.025101
C23   C     C_1   0.676970 0.675264 0.183059 -0.039525
C24   C     C_R   0.781327 0.708186 0.707514 0.028222
C25   C     C_1   0.324298 0.321720 0.817750 -0.022326
C26   C     C_R   0.367937 0.434278 0.093099 -0.124098
C27   C     C_R   0.631657 0.566500 0.906555 -0.131996
C28   C     C_R   0.567406 0.367493 0.091702 -0.132210
C29   C     C_R   0.431609 0.633025 0.909630 -0.139700
C30   C     C_R   0.631731 0.566488 0.093140 -0.130366
C31   C     C_R   0.369705 0.434664 0.904182 -0.126287
C32   C     C_R   0.434404 0.631412 0.094219 -0.123615
C33   C     C_R   0.564950 0.369218 0.904774 -0.123332
C34   C     C_R   0.366814 0.568289 0.910111 -0.133321
C35   C     C_R   0.218312 0.710594 0.290610 -0.007143
C36   C     C_R   0.632417 0.432193 0.091517 -0.133874
C37   C     C_R   0.566732 0.631556 0.906351 -0.133091
C38   C     C_R   0.432280 0.368765 0.093782 -0.145147
C39   C     C_R   0.630063 0.433904 0.904064 -0.144393
C40   C     C_R   0.369076 0.567080 0.094445 -0.142934
C41   C     C_R   0.434405 0.369452 0.904599 -0.134941
C42   C     C_R   0.567110 0.631791 0.093023 -0.133331
C43   C     C_R   0.092225 0.367365 0.433870 -0.122286
C44   C     C_R   0.910611 0.633807 0.567368 -0.122820
C45   C     C_R   0.092067 0.567287 0.367580 -0.131877
C46   C     C_R   0.785060 0.288294 0.712741 0.028089
C47   C     C_R   0.910394 0.432493 0.633764 -0.119231
C48   C     C_R   0.091714 0.632360 0.567095 -0.130266
C49   C     C_R   0.908500 0.367344 0.433056 -0.124446
C50   C     C_R   0.091540 0.433685 0.632836 -0.122371
C51   C     C_R   0.908723 0.566583 0.367113 -0.118378
C52   C     C_R   0.909810 0.367110 0.569524 -0.143607
C53   C     C_R   0.091823 0.632342 0.432409 -0.131961
C54   C     C_R   0.910518 0.569783 0.633143 -0.147390
C55   C     C_R   0.092491 0.431360 0.368080 -0.144880
C56   C     C_R   0.907334 0.631775 0.431886 -0.149933
C57   C     C_R   0.226245 0.703177 0.702010 0.004701
C58   C     C_R   0.091986 0.367930 0.568830 -0.147681
C59   C     C_R   0.908704 0.431728 0.367546 -0.143784
C60   C     C_R   0.091695 0.567627 0.632329 -0.133956
C61   C     C_R   0.434088 0.092575 0.367623 -0.124305
C62   C     C_R   0.565453 0.905022 0.630895 -0.129799
C63   C     C_R   0.367813 0.092527 0.567350 -0.132442
C64   C     C_R   0.634206 0.911949 0.431298 -0.125407
C65   C     C_R   0.567653 0.092482 0.632110 -0.131637
C66   C     C_R   0.434140 0.906628 0.368179 -0.122924
C67   C     C_R   0.631537 0.093434 0.433294 -0.137136
C68   C     C_R   0.778157 0.294359 0.292086 0.030184
C69   C     C_R   0.368770 0.906172 0.566098 -0.134627
C70   C     C_R   0.569991 0.911820 0.366139 -0.139947
C71   C     C_R   0.432567 0.092377 0.632286 -0.130822
C72   C     C_R   0.630296 0.904201 0.565716 -0.140990
C73   C     C_R   0.368420 0.093030 0.431773 -0.146027
C74   C     C_R   0.433494 0.906258 0.631355 -0.131018
C75   C     C_R   0.566817 0.093378 0.368302 -0.138215
C76   C     C_R   0.368531 0.906970 0.432622 -0.143184
C77   C     C_R   0.632336 0.091984 0.566972 -0.131089
C78   C     C_3   0.210481 0.635389 0.217956 -0.404814
C79   C     C_R   0.708528 0.221052 0.291316 0.063692
C80   C     C_3   0.231903 0.607976 0.164447 -0.232808
C81   C     C_3   0.192957 0.563648 0.141326 -0.964817
C82   C     C_3   0.792306 0.361675 0.788677 -0.409221
C83   C     C_3   0.766768 0.389598 0.840360 -0.227367
C84   C     C_3   0.803715 0.432149 0.869707 -0.947121
C85   C     C_3   0.364946 0.210708 0.214003 -0.399431
C86   C     C_3   0.389460 0.231968 0.159013 -0.234908
C87   C     C_3   0.435870 0.196130 0.134933 -0.977673
C88   C     C_3   0.638592 0.782463 0.792406 -0.398941
C89   C     C_3   0.617669 0.840977 0.777189 -0.235934
C90   C     C_R   0.296011 0.773929 0.702927 0.005328
C91   C     C_3   0.577844 0.866759 0.819633 -0.942251
C92   C     C_3   0.767706 0.378774 0.222461 -0.388501
C93   C     C_3   0.811585 0.415288 0.250460 -0.251222
C94   C     C_3   0.817514 0.471415 0.221816 -0.985380
C95   C     C_3   0.230792 0.615681 0.759173 -0.390955
C96   C     C_3   0.262602 0.576960 0.798436 -0.249801
C97   C     C_3   0.239482 0.518172 0.797144 -0.982438
C98   C     C_3   0.615432 0.757309 0.236379 -0.394723
C99   C     C_3   0.576989 0.796474 0.269058 -0.234885
C100  C     C_3   0.516467 0.790055 0.250675 -0.976097
C101  C     C_R   0.289244 0.216341 0.287149 0.027951
C102  C     C_3   0.357493 0.204527 0.789020 -0.389305
C103  C     C_3   0.367950 0.214377 0.851384 -0.248426
C104  C     C_3   0.398897 0.166080 0.878256 -0.958190
C105  C     C_3   0.223707 0.370923 0.781872 -0.395051
C106  C     C_3   0.197673 0.361749 0.839497 -0.222314
C107  C     C_3   0.165865 0.412807 0.860272 -0.933554
C108  C     C_3   0.781980 0.631253 0.219743 -0.394824
C109  C     C_3   0.832701 0.646397 0.184540 -0.229714
C110  C     C_3   0.860402 0.594979 0.159687 -0.936624
C111  C     C_3   0.372907 0.781693 0.772964 -0.391779
C112  C     C_R   0.706857 0.294056 0.776111 0.042671
C113  C     C_R   0.709426 0.779246 0.708721 0.056397
C114  C     C_3   0.402832 0.761068 0.825152 -0.252355
C115  C     C_3   0.453531 0.795766 0.839043 -0.987905
C116  C     C_3   0.633129 0.220364 0.211259 -0.394589
C117  C     C_3   0.604398 0.167709 0.232495 -0.248026
C118  C     C_3   0.555679 0.149410 0.196936 -0.987366
C119  C     C_3   0.771375 0.620631 0.774562 -0.395600
C120  C     C_3   0.816504 0.585410 0.745640 -0.245967
C121  C     C_3   0.825544 0.528396 0.773049 -0.953559
C122  C     C_3   0.215439 0.364522 0.211360 -0.390819
C123  C     C_3   0.160449 0.390007 0.230948 -0.245929
C124  C     C_R   0.287728 0.217393 0.711385 -0.006295
C125  C     C_3   0.142133 0.439062 0.195546 -0.988583
C126  C     C_3   0.622669 0.230101 0.768082 -0.383149
C127  C     C_3   0.623589 0.200645 0.824723 -0.232277
C128  C     C_3   0.566634 0.177786 0.840582 -0.950035
C129  C     C_3   0.370854 0.779989 0.224030 -0.388765
C130  C     C_3   0.361311 0.836842 0.195540 -0.225995
C131  C     C_3   0.412930 0.857501 0.164688 -0.912664
C132  C     C_3   0.221558 0.216168 0.630094 -0.393894
C133  C     C_3   0.171292 0.240843 0.599828 -0.251698
C134  C     C_3   0.155865 0.209628 0.547359 -0.998264
C135  C     C_R   0.705644 0.776696 0.295971 0.029008
C136  C     C_3   0.781346 0.787757 0.368839 -0.398492
C137  C     C_3   0.834242 0.764865 0.396190 -0.238799
C138  C     C_3   0.855007 0.798121 0.445708 -0.990025
C139  C     C_3   0.211734 0.779969 0.369291 -0.388837
C140  C     C_3   0.230396 0.834983 0.396104 -0.248779
C141  C     C_3   0.191992 0.853817 0.443112 -0.971358
C142  C     C_3   0.787259 0.208126 0.637348 -0.404515
C143  C     C_3   0.843575 0.226506 0.614063 -0.236185
C144  C     C_3   0.865935 0.189371 0.567673 -0.959602
C145  C     C_3   0.787275 0.222105 0.367764 -0.393471
C146  C     C_R   0.709634 0.221627 0.706557 0.004972
C147  C     C_3   0.766593 0.169365 0.396721 -0.250161
C148  C     C_3   0.801844 0.152639 0.446271 -0.977882
C149  C     C_3   0.225594 0.775328 0.623269 -0.393967
C150  C     C_3   0.207100 0.836638 0.627813 -0.198566
C151  C     C_3   0.158579 0.851300 0.588781 -0.917617
C152  C     C_3   0.789678 0.783026 0.633332 -0.400426
C153  C     C_3   0.766128 0.835695 0.606121 -0.235073
C154  C     C_3   0.800995 0.859801 0.559092 -0.983474
C155  C     C_3   0.210302 0.212802 0.363538 -0.402006
C156  C     C_3   0.233042 0.159370 0.390012 -0.231874
C157  C     C_R   0.290583 0.779978 0.293120 0.043754
C158  C     C_3   0.197246 0.135783 0.436694 -0.979576
C159  C     C_R   0.241545 0.686069 0.242521 0.058066
C160  C     C_R   0.760059 0.313521 0.759787 0.039953
C161  C     C_R   0.312659 0.239836 0.238591 0.049683
C162  C     C_R   0.687535 0.757021 0.758707 0.050906
C163  C     C_R   0.752622 0.320591 0.246148 0.061788
C164  C     C_R   0.288039 0.289006 0.217250 0.026388
C165  C     C_R   0.252230 0.675102 0.746438 0.035483
C166  C     C_R   0.676602 0.747638 0.253864 0.053703
C167  C     C_R   0.310217 0.237687 0.761513 0.055853
C168  C     C_R   0.244633 0.315803 0.757209 0.030658
C169  C     C_R   0.755692 0.683419 0.245826 0.052480
C170  C     C_R   0.320402 0.751517 0.751253 0.032768
C171  C     C_R   0.684785 0.243490 0.242198 0.046516
C172  C     C_R   0.755264 0.679568 0.752188 0.063632
C173  C     C_R   0.238983 0.311875 0.240249 0.046042
C174  C     C_R   0.681408 0.248407 0.750127 0.048131
C175  C     C_R   0.709742 0.706260 0.777950 -0.007468
C176  C     C_R   0.315914 0.756009 0.246037 0.030029
C177  C     C_R   0.241860 0.243003 0.685042 0.054262
C178  C     C_R   0.756806 0.756908 0.317545 0.034899
C179  C     C_R   0.241242 0.758137 0.316212 0.051376
C180  C     C_R   0.761492 0.240558 0.686736 0.057331
C181  C     C_R   0.756884 0.244688 0.315476 0.027589
C182  C     C_R   0.248487 0.751454 0.678315 0.073639
C183  C     C_R   0.758913 0.757604 0.684541 0.031806
C184  C     C_R   0.239956 0.237801 0.311777 0.047756
C185  C     C_R   0.380963 0.383697 0.115002 0.109456
C186  C     C_R   0.707975 0.292807 0.220706 -0.006694
C187  C     C_R   0.617762 0.617365 0.885084 0.103651
C188  C     C_R   0.619002 0.380621 0.111404 0.103627
C189  C     C_R   0.379333 0.620322 0.891311 0.115196
C190  C     C_R   0.618091 0.617585 0.114068 0.104203
C191  C     C_R   0.384743 0.384586 0.881248 0.110420
C192  C     C_R   0.384130 0.617675 0.116437 0.112256
C193  C     C_R   0.614267 0.383918 0.881272 0.113099
C194  C     C_R   0.113071 0.379565 0.382579 0.107443
C195  C     C_R   0.892559 0.622514 0.619630 0.106732
C196  C     C_R   0.112152 0.618943 0.380815 0.102259
C197  C     C_R   0.296999 0.702143 0.773457 0.064708
C198  C     C_R   0.891067 0.380526 0.622175 0.107190
C199  C     C_R   0.111439 0.619093 0.618594 0.105158
C200  C     C_R   0.888931 0.379989 0.381294 0.108889
C201  C     C_R   0.111909 0.382383 0.620690 0.110736
C202  C     C_R   0.888124 0.617767 0.379747 0.110002
C203  C     C_R   0.383240 0.113933 0.380265 0.109832
C204  C     C_R   0.615105 0.881527 0.616031 0.119527
C205  C     C_R   0.381106 0.113094 0.618934 0.101322
C206  C     C_R   0.622993 0.894647 0.378571 0.102127
C207  C     C_R   0.619224 0.112730 0.618251 0.102433
C208  C     C_R   0.704664 0.703862 0.226753 0.005206
C209  C     C_R   0.383277 0.885606 0.381737 0.112147
C210  C     C_R   0.617557 0.114869 0.382390 0.120862
C211  C     C_R   0.383093 0.884768 0.616696 0.107523
C212  C     C_1   0.145060 0.653201 0.346726 -0.062100
C213  C     C_1   0.858667 0.347273 0.658295 -0.090056
C214  C     C_1   0.350748 0.146851 0.344135 -0.093337
C215  C     C_1   0.647596 0.846336 0.649704 -0.124545
C216  C     C_1   0.854649 0.346205 0.348372 -0.096776
C217  C     C_1   0.147003 0.651721 0.650562 -0.068787
C218  C     C_1   0.656813 0.859200 0.346583 -0.093668
C219  C     C_R   0.291175 0.289592 0.780842 0.037866
C220  C     C_1   0.346513 0.145779 0.653597 -0.060415
C221  C     C_1   0.145654 0.350382 0.656278 -0.101182
C222  C     C_1   0.854854 0.650344 0.344668 -0.092880
C223  C     C_1   0.350790 0.849003 0.648636 -0.081450
C224  C     C_1   0.651047 0.149259 0.348909 -0.131421
C225  C     C_1   0.859398 0.657969 0.651852 -0.095562
C226  C     C_1   0.145828 0.343221 0.349732 -0.092639
C227  C     C_1   0.653751 0.146942 0.650962 -0.066882
C228  C     C_1   0.350281 0.851558 0.347943 -0.099282
C229  C     C_1   0.345130 0.351130 0.148259 -0.092705
C230  C     C_R   0.219709 0.291924 0.709854 0.043884
C231  C     C_1   0.651845 0.650548 0.851056 -0.062827
C232  C     C_1   0.346479 0.652366 0.855433 -0.132283
C233  C     C_1   0.652589 0.346891 0.144959 -0.064122
C234  C     C_1   0.645712 0.350564 0.845343 -0.098202
C235  C     C_1   0.351687 0.652017 0.151044 -0.099039
C236  C     C_1   0.651035 0.649804 0.149753 -0.067462
C237  C     C_1   0.351558 0.350602 0.847160 -0.092853
C238  C     C_1   0.176278 0.680665 0.319813 -0.045691
C239  C     C_1   0.827385 0.319430 0.685059 -0.033006
C240  C     C_1   0.322536 0.177017 0.316603 -0.034283
H1    H     H_    0.327959 0.454472 0.094258 0.093643
H2    H     H_    0.672534 0.451886 0.093161 0.094875
H3    H     H_    0.409560 0.177164 0.921758 0.254350
H4    H     H_    0.394848 0.251217 0.856580 0.204722
H5    H     H_    0.328138 0.220767 0.873815 0.205231
H6    H     H_    0.347234 0.159763 0.784503 0.201822
H7    H     H_    0.396511 0.211895 0.765562 0.181984
H8    H     H_    0.194961 0.443127 0.879541 0.259128
H9    H     H_    0.142663 0.433048 0.825753 0.261516
H10   H     H_    0.135265 0.400097 0.892567 0.249480
H11   H     H_    0.168594 0.326110 0.837304 0.196221
H12   H     H_    0.230443 0.351563 0.870298 0.195082
H13   H     H_    0.546769 0.671646 0.903888 0.097328
H14   H     H_    0.258551 0.400805 0.784727 0.192853
H15   H     H_    0.192865 0.391874 0.755049 0.197446
H16   H     H_    0.885657 0.573494 0.191751 0.261205
H17   H     H_    0.829149 0.565769 0.142749 0.267500
H18   H     H_    0.888386 0.607535 0.125275 0.251099
H19   H     H_    0.819389 0.674225 0.150267 0.197175
H20   H     H_    0.863626 0.668792 0.210223 0.199644
H21   H     H_    0.793475 0.600879 0.252536 0.195680
H22   H     H_    0.752647 0.608006 0.193133 0.188994
H23   H     H_    0.488140 0.783844 0.810787 0.273226
H24   H     H_    0.451833 0.328518 0.096333 0.102348
H25   H     H_    0.444297 0.840812 0.835044 0.272708
H26   H     H_    0.466650 0.787058 0.882499 0.256819
H27   H     H_    0.374007 0.762807 0.861179 0.214041
H28   H     H_    0.418875 0.718605 0.817398 0.216237
H29   H     H_    0.404332 0.781481 0.739035 0.199258
H30   H     H_    0.361086 0.825711 0.780648 0.190126
H31   H     H_    0.517640 0.170323 0.212446 0.269118
H32   H     H_    0.562361 0.158682 0.152289 0.278550
H33   H     H_    0.549132 0.104071 0.202018 0.256892
H34   H     H_    0.634828 0.133112 0.234318 0.212531
H35   H     H_    0.670199 0.453318 0.900710 0.101579
H36   H     H_    0.585885 0.177027 0.273560 0.215092
H37   H     H_    0.600830 0.253419 0.210345 0.197678
H38   H     H_    0.645830 0.212300 0.167562 0.192032
H39   H     H_    0.844336 0.534524 0.815693 0.265306
H40   H     H_    0.785545 0.505253 0.774884 0.276868
H41   H     H_    0.855427 0.502691 0.747677 0.242931
H42   H     H_    0.803456 0.577383 0.701439 0.213842
H43   H     H_    0.857140 0.607527 0.748839 0.208725
H44   H     H_    0.783560 0.625191 0.819072 0.189528
H45   H     H_    0.733193 0.594624 0.773190 0.195390
H46   H     H_    0.328835 0.547816 0.097046 0.100808
H47   H     H_    0.164383 0.476571 0.210114 0.269353
H48   H     H_    0.150486 0.432091 0.150754 0.277944
H49   H     H_    0.097085 0.446580 0.201609 0.257454
H50   H     H_    0.127298 0.358065 0.230797 0.211236
H51   H     H_    0.166856 0.407989 0.272651 0.213437
H52   H     H_    0.247159 0.397870 0.213848 0.196160
H53   H     H_    0.210017 0.353914 0.166710 0.191218
H54   H     H_    0.537868 0.212254 0.851484 0.261552
H55   H     H_    0.548585 0.153089 0.806118 0.260114
H56   H     H_    0.570912 0.150232 0.877392 0.253603
H57   H     H_    0.453647 0.329057 0.902391 0.090431
H58   H     H_    0.653795 0.165818 0.823206 0.198059
H59   H     H_    0.636893 0.229799 0.857804 0.200371
H60   H     H_    0.594368 0.266608 0.769638 0.188420
H61   H     H_    0.602765 0.202015 0.737635 0.192096
H62   H     H_    0.443637 0.875227 0.195312 0.256168
H63   H     H_    0.432511 0.822594 0.140417 0.255688
H64   H     H_    0.400914 0.891484 0.134457 0.245533
H65   H     H_    0.326830 0.832859 0.164981 0.195178
H66   H     H_    0.349479 0.868861 0.226968 0.196236
H67   H     H_    0.400834 0.784270 0.259146 0.193113
H68   H     H_    0.547374 0.671980 0.095384 0.093543
H69   H     H_    0.392176 0.751903 0.193979 0.194435
H70   H     H_    0.183984 0.222873 0.513287 0.276134
H71   H     H_    0.158023 0.164110 0.553799 0.280867
H72   H     H_    0.112922 0.220916 0.534942 0.254571
H73   H     H_    0.134711 0.240518 0.627908 0.214410
H74   H     H_    0.182154 0.283144 0.585491 0.217024
H75   H     H_    0.256562 0.216509 0.599980 0.197777
H76   H     H_    0.211739 0.172040 0.639264 0.191007
H77   H     H_    0.845366 0.842955 0.441639 0.281338
H78   H     H_    0.836612 0.780663 0.484360 0.268702
H79   H     H_    0.093473 0.327591 0.454514 0.095830
H80   H     H_    0.900647 0.792862 0.449501 0.255094
H81   H     H_    0.824519 0.723254 0.413210 0.211912
H82   H     H_    0.868061 0.763552 0.364899 0.210870
H83   H     H_    0.789833 0.831339 0.356248 0.190904
H84   H     H_    0.748971 0.789112 0.401850 0.196106
H85   H     H_    0.148102 0.855861 0.429031 0.270953
H86   H     H_    0.196223 0.824345 0.478460 0.272140
H87   H     H_    0.204587 0.895892 0.457622 0.252013
H88   H     H_    0.271433 0.828237 0.416139 0.210287
H89   H     H_    0.231802 0.868520 0.364112 0.208956
H90   H     H_    0.909482 0.673486 0.546514 0.094725
H91   H     H_    0.167092 0.785162 0.358699 0.194376
H92   H     H_    0.214675 0.747158 0.401847 0.189997
H93   H     H_    0.845891 0.147723 0.567387 0.277015
H94   H     H_    0.859461 0.210607 0.526972 0.255109
H95   H     H_    0.911694 0.184156 0.572107 0.254981
H96   H     H_    0.837940 0.267749 0.594724 0.208849
H97   H     H_    0.874552 0.227613 0.648136 0.207949
H98   H     H_    0.791796 0.164174 0.650802 0.191860
H99   H     H_    0.757333 0.208747 0.602225 0.193318
H100  H     H_    0.846756 0.160371 0.438308 0.276301
H101  H     H_    0.094029 0.547123 0.327551 0.096545
H102  H     H_    0.787042 0.176601 0.483336 0.267831
H103  H     H_    0.795596 0.107491 0.455483 0.255069
H104  H     H_    0.725181 0.178043 0.414684 0.215578
H105  H     H_    0.765953 0.134340 0.366693 0.212464
H106  H     H_    0.831131 0.214419 0.355607 0.191851
H107  H     H_    0.787234 0.255333 0.399867 0.198188
H108  H     H_    0.169391 0.888316 0.562759 0.249975
H109  H     H_    0.147526 0.816694 0.560400 0.253939
H110  H     H_    0.120784 0.861892 0.613709 0.251900
H111  H     H_    0.195054 0.846547 0.671624 0.191266
H112  H     H_    0.671725 0.546526 0.904439 0.094133
H113  H     H_    0.910756 0.452606 0.673793 0.088259
H114  H     H_    0.242871 0.864015 0.616642 0.185545
H115  H     H_    0.258180 0.771580 0.590595 0.171577
H116  H     H_    0.190624 0.750468 0.607294 0.195410
H117  H     H_    0.845061 0.846853 0.561399 0.281826
H118  H     H_    0.782594 0.847249 0.518678 0.262380
H119  H     H_    0.798597 0.905819 0.560250 0.255727
H120  H     H_    0.726317 0.824256 0.586399 0.212026
H121  H     H_    0.761097 0.868290 0.638328 0.210082
H122  H     H_    0.832838 0.792505 0.646548 0.192972
H123  H     H_    0.792475 0.750929 0.600073 0.194410
H124  H     H_    0.094134 0.672162 0.546651 0.092678
H125  H     H_    0.217461 0.144390 0.477197 0.258708
H126  H     H_    0.154539 0.152942 0.436421 0.282591
H127  H     H_    0.195223 0.089921 0.433153 0.256253
H128  H     H_    0.237462 0.126814 0.357657 0.209996
H129  H     H_    0.273246 0.169687 0.409595 0.208578
H130  H     H_    0.209361 0.244728 0.396898 0.193998
H131  H     H_    0.166690 0.204437 0.351315 0.192686
H132  H     H_    0.906408 0.327669 0.453821 0.094304
H133  H     H_    0.092701 0.454259 0.672639 0.091399
H134  H     H_    0.907817 0.546212 0.327163 0.090483
H135  H     H_    0.908438 0.326759 0.550049 0.099144
H136  H     H_    0.093378 0.672531 0.452183 0.094045
H137  H     H_    0.909126 0.550267 0.673439 0.103143
H138  H     H_    0.094393 0.450641 0.327652 0.101501
H139  H     H_    0.903378 0.671531 0.452259 0.105076
H140  H     H_    0.547290 0.327546 0.093666 0.095936
H141  H     H_    0.094146 0.327543 0.549581 0.104514
H142  H     H_    0.906927 0.451349 0.327296 0.099621
H143  H     H_    0.094062 0.547728 0.672420 0.094515
H144  H     H_    0.454321 0.093602 0.327626 0.094938
H145  H     H_    0.545858 0.903168 0.671184 0.093264
H146  H     H_    0.327830 0.094475 0.547301 0.095824
H147  H     H_    0.673981 0.910983 0.451814 0.093901
H148  H     H_    0.547702 0.094928 0.672212 0.093468
H149  H     H_    0.454715 0.904384 0.328396 0.091572
H150  H     H_    0.671514 0.095620 0.453204 0.099986
H151  H     H_    0.451999 0.672782 0.907187 0.100871
H152  H     H_    0.328937 0.903382 0.545893 0.095482
H153  H     H_    0.550171 0.910533 0.325972 0.095295
H154  H     H_    0.452384 0.094037 0.672431 0.093670
H155  H     H_    0.670185 0.900807 0.545568 0.103171
H156  H     H_    0.328009 0.095005 0.450998 0.103377
H157  H     H_    0.453104 0.903640 0.671531 0.094401
H158  H     H_    0.547221 0.095425 0.328109 0.100669
H159  H     H_    0.328209 0.905175 0.451986 0.098415
H160  H     H_    0.672334 0.093467 0.546874 0.095792
H161  H     H_    0.213536 0.522292 0.143644 0.255478
H162  H     H_    0.671505 0.546054 0.095764 0.093878
H163  H     H_    0.152886 0.562208 0.164095 0.273346
H164  H     H_    0.184280 0.571890 0.096754 0.257381
H165  H     H_    0.237741 0.640092 0.131897 0.207906
H166  H     H_    0.271468 0.586575 0.174217 0.205877
H167  H     H_    0.208726 0.602321 0.250148 0.193632
H168  H     H_    0.167230 0.649133 0.209783 0.194578
H169  H     H_    0.846542 0.433007 0.851990 0.276080
H170  H     H_    0.784024 0.474497 0.866506 0.249059
H171  H     H_    0.805820 0.422733 0.915460 0.249456
H172  H     H_    0.729412 0.412819 0.826394 0.202446
H173  H     H_    0.329724 0.454615 0.901287 0.092395
H174  H     H_    0.756261 0.357060 0.871374 0.206661
H175  H     H_    0.833461 0.344798 0.801076 0.192648
H176  H     H_    0.799859 0.395207 0.757760 0.197150
H177  H     H_    0.476419 0.215093 0.145380 0.259543
H178  H     H_    0.434143 0.152618 0.149945 0.279637
H179  H     H_    0.433415 0.196343 0.088878 0.255624
H180  H     H_    0.356095 0.235193 0.127443 0.210149
H181  H     H_    0.409095 0.272510 0.167521 0.209663
H182  H     H_    0.398678 0.212084 0.245446 0.192957
H183  H     H_    0.354076 0.166349 0.207508 0.192330
H184  H     H_    0.454483 0.671324 0.096353 0.091141
H185  H     H_    0.534869 0.866229 0.802684 0.253788
H186  H     H_    0.578558 0.844990 0.860502 0.271988
H187  H     H_    0.588392 0.911398 0.825915 0.252121
H188  H     H_    0.653694 0.869141 0.771826 0.205038
H189  H     H_    0.593445 0.837676 0.738331 0.205694
H190  H     H_    0.602697 0.753569 0.790474 0.188891
H191  H     H_    0.652180 0.784231 0.836545 0.195004
H192  H     H_    0.830871 0.465803 0.178022 0.271425
H193  H     H_    0.777760 0.494746 0.223107 0.269246
H194  H     H_    0.849394 0.496143 0.243931 0.253810
H195  H     H_    0.545314 0.329081 0.902688 0.096202
H196  H     H_    0.798990 0.423918 0.294025 0.217364
H197  H     H_    0.852660 0.394497 0.248235 0.210987
H198  H     H_    0.780307 0.373218 0.178375 0.190210
H199  H     H_    0.729073 0.404128 0.222705 0.198454
H200  H     H_    0.194628 0.518745 0.807996 0.273736
H201  H     H_    0.245275 0.499233 0.755340 0.268129
H202  H     H_    0.262237 0.492569 0.828067 0.256428
H203  H     H_    0.306926 0.574370 0.785641 0.219034
H204  H     H_    0.257707 0.592166 0.841751 0.209701
H205  H     H_    0.187407 0.619126 0.774501 0.187056
H206  H     H_    0.326929 0.548168 0.908611 0.095269
H207  H     H_    0.229632 0.593016 0.718862 0.203826
H208  H     H_    0.512973 0.793797 0.204648 0.271759
H209  H     H_    0.499919 0.748859 0.263990 0.265225
H210  H     H_    0.490862 0.823069 0.270301 0.253597
H211  H     H_    0.578558 0.786428 0.314284 0.216347
H212  H     H_    0.589385 0.840250 0.260586 0.203103
H213  H     H_    0.615198 0.770874 0.192169 0.184839
H214  H     H_    0.594780 0.715995 0.238409 0.204036
H215  H     H_    0.372515 0.128407 0.878846 0.266235
H216  H     H_    0.437907 0.157222 0.855315 0.271103
N1    N     N_R   0.411340 0.449990 0.062390 -0.043269
N2    N     N_R   0.588660 0.449990 0.062390 -0.042614
N3    N     N_R   0.550010 0.588660 0.937610 -0.043118
N4    N     N_R   0.449990 0.411340 0.062390 -0.041780
N5    N     N_R   0.588660 0.449990 0.937610 -0.042018
N6    N     N_R   0.411340 0.550010 0.062390 -0.042155
N7    N     N_R   0.449990 0.411340 0.937610 -0.042811
N8    N     N_R   0.550010 0.588660 0.062390 -0.043120
N9    N     N_R   0.062390 0.411340 0.449990 -0.043286
N10   N     N_R   0.937610 0.588660 0.550010 -0.042511
N11   N     N_R   0.062390 0.550010 0.411340 -0.042613
N12   N     N_R   0.588660 0.550010 0.937610 -0.042231
N13   N     N_R   0.937610 0.449990 0.588660 -0.043197
N14   N     N_R   0.062390 0.588660 0.550010 -0.042648
N15   N     N_R   0.937610 0.411340 0.449990 -0.043149
N16   N     N_R   0.062390 0.449990 0.588660 -0.043276
N17   N     N_R   0.937610 0.550010 0.411340 -0.043512
N18   N     N_R   0.937610 0.411340 0.550010 -0.041751
N19   N     N_R   0.062390 0.588660 0.449990 -0.042686
N20   N     N_R   0.937610 0.550010 0.588660 -0.041267
N21   N     N_R   0.062390 0.449990 0.411340 -0.041430
N22   N     N_R   0.937610 0.588660 0.449990 -0.041788
N23   N     N_R   0.550010 0.411340 0.062390 -0.042563
N24   N     N_R   0.062390 0.411340 0.550010 -0.041575
N25   N     N_R   0.937610 0.449990 0.411340 -0.041784
N26   N     N_R   0.062390 0.550010 0.588660 -0.042924
N27   N     N_R   0.449990 0.062390 0.411340 -0.043426
N28   N     N_R   0.550010 0.937610 0.588660 -0.042908
N29   N     N_R   0.411340 0.062390 0.550010 -0.042457
N30   N     N_R   0.588660 0.937610 0.449990 -0.042383
N31   N     N_R   0.550010 0.062390 0.588660 -0.042778
N32   N     N_R   0.449990 0.937610 0.411340 -0.043675
N33   N     N_R   0.588660 0.062390 0.449990 -0.042124
N34   N     N_R   0.449990 0.588660 0.937610 -0.041789
N35   N     N_R   0.411340 0.937610 0.550010 -0.042256
N36   N     N_R   0.550010 0.937610 0.411340 -0.041048
N37   N     N_R   0.449990 0.062390 0.588660 -0.043086
N38   N     N_R   0.588660 0.937610 0.550010 -0.043025
N39   N     N_R   0.411340 0.062390 0.449990 -0.041315
N40   N     N_R   0.449990 0.937610 0.588660 -0.043215
N41   N     N_R   0.550010 0.062390 0.411340 -0.042342
N42   N     N_R   0.411340 0.937610 0.449990 -0.041558
N43   N     N_R   0.588660 0.062390 0.550010 -0.042791
N44   N     N_R   0.588660 0.550010 0.062390 -0.042886
N45   N     N_R   0.411340 0.449990 0.937610 -0.044103
N46   N     N_R   0.449990 0.588660 0.062390 -0.043548
N47   N     N_R   0.550010 0.411340 0.937610 -0.043961
N48   N     N_R   0.411340 0.550010 0.937610 -0.041641
Ni1   Ni    Ni4+2 0.412730 0.500000 0.000000 0.212447
Ni2   Ni    Ni4+2 0.500000 0.000000 0.587270 0.212344
Ni3   Ni    Ni4+2 0.412730 0.000000 0.500000 0.212263
Ni4   Ni    Ni4+2 0.587270 0.000000 0.500000 0.212038
Ni5   Ni    Ni4+2 0.587270 0.500000 0.000000 0.212907
Ni6   Ni    Ni4+2 0.500000 0.412730 0.000000 0.212673
Ni7   Ni    Ni4+2 0.500000 0.587270 0.000000 0.211693
Ni8   Ni    Ni4+2 1.000000 0.412730 0.500000 0.211816
Ni9   Ni    Ni4+2 1.000000 0.587270 0.500000 0.212301
Ni10  Ni    Ni4+2 1.000000 0.500000 0.412730 0.211724
Ni11  Ni    Ni4+2 1.000000 0.500000 0.587270 0.211113
Ni12  Ni    Ni4+2 0.500000 0.000000 0.412730 0.211619

loop_
_geom_bond_atom_site_label_1
_geom_bond_atom_site_label_2
_ccdc_geom_bond_type
C191  C237  S    
C76   N42   A    
C205  C220  S    
N40   Ni2   S    
C126  C127  S    
N9    N21   A    
C84   H169  S    
C131  H62   S    
C102  H6    S    
C151  H110  S    
N35   Ni3   S    
C114  C115  S    
C1    C176  A    
C70   N36   A    
C128  H54   S    
C204  C215  S    
C43   C194  A    
N32   N42   A    
N6    N46   A    
N7    Ni6   S    
C69   H152  S    
C144  H94   S    
C26   C185  A    
C68   C163  A    
N2    Ni5   S    
C86   H180  S    
C106  C107  S    
C3    C215  T    
C143  C144  S    
C65   H148  S    
N10   N20   A    
C108  C109  S    
C157  C179  A    
C106  H12   S    
C98   H213  S    
N34   N48   A    
C60   H143  S    
C5    C217  T    
C110  H16   S    
C155  H131  S    
C47   C198  A    
C108  H22   S    
C69   C211  A    
N8    Ni7   S    
C50   N16   A    
C52   N18   A    
C47   H113  S    
C172  C175  A    
C187  C231  S    
C153  H121  S    
N13   Ni11  S    
C101  C240  S    
C64   N30   A    
C133  H74   S    
C62   N28   A    
C33   N47   A    
C61   H144  S    
C44   N10   A    
C59   N25   A    
C210  C224  S    
C48   C199  A    
C76   H159  S    
C121  H39   S    
C1    C159  A    
C87   H178  S    
C122  H52   S    
C140  C141  S    
C70   H153  S    
C41   C191  A    
C130  H66   S    
C81   H163  S    
C116  C171  S    
C15   C227  T    
N15   N25   A    
C109  H19   S    
C13   C173  A    
C17   C164  S    
C114  H28   S    
C82   C160  S    
C42   C190  A    
C21   C234  T    
C40   C192  A    
C89   H189  S    
C13   C184  A    
C211  C223  S    
C189  C232  S    
C146  C180  A    
C164  C173  A    
C122  H53   S    
C27   C187  A    
C101  C184  A    
C11   C79   S    
C142  H99   S    
C134  H70   S    
C85   H182  S    
C149  C182  S    
C84   H171  S    
C29   C189  A    
N3    N12   A    
C52   C198  A    
C105  H15   S    
C193  C234  S    
C21   C112  S    
C185  C229  S    
N48   Ni1   S    
C192  C235  S    
N17   N22   A    
C128  H56   S    
C16   C228  T    
N43   Ni4   S    
C112  C160  A    
C87   H177  S    
C137  H82   S    
C74   H157  S    
N8    N44   A    
C139  C140  S    
C95   H207  S    
C74   C211  A    
C63   N29   A    
C111  C170  S    
C132  H76   S    
C116  H38   S    
C130  C131  S    
C152  H123  S    
C127  H58   S    
C129  H67   S    
N23   Ni6   S    
C37   C187  A    
C126  H61   S    
C36   N2    A    
C88   C162  S    
C146  C174  A    
C156  C158  S    
C135  C166  A    
C71   H154  S    
C148  H100  S    
C97   H202  S    
C104  H216  S    
C48   N14   A    
C139  C179  S    
C65   N31   A    
C2    C169  A    
C20   C186  S    
C196  C212  S    
C71   C205  A    
C88   C89   S    
C61   N27   A    
N11   Ni10  S    
C98   C99   S    
C155  C156  S    
C53   C196  A    
N16   Ni11  S    
C149  C150  S    
C99   H212  S    
C138  H80   S    
C188  C233  S    
C112  C174  A    
C125  H47   S    
C75   C210  A    
C4    C216  T    
N41   Ni12  S    
C87   H179  S    
C147  C148  S    
C201  C221  S    
C81   H164  S    
C139  H91   S    
C85   C86   S    
C154  H118  S    
N10   Ni9   S    
C73   C203  A    
C103  H5    S    
C141  H85   S    
C131  H63   S    
N25   Ni10  S    
C110  H18   S    
C77   C207  A    
N9    Ni8   S    
C34   N48   A    
C78   C80   S    
N46   Ni7   S    
C145  C181  S    
C97   H200  S    
C123  H50   S    
C67   N33   A    
C9    C222  T    
C120  H43   S    
C142  C180  S    
C92   H199  S    
N14   Ni9   S    
C150  H114  S    
C209  C228  S    
C100  H210  S    
C89   C91   S    
C145  H107  S    
C51   C202  A    
C45   C196  A    
C77   H160  S    
C1    C22   S    
C13   C14   S    
C156  H128  S    
C56   N22   A    
C82   H175  S    
C48   H124  S    
C83   H174  S    
C121  H41   S    
C158  H126  S    
C28   N23   A    
N30   Ni4   S    
C47   N13   A    
C167  C219  A    
C57   C182  A    
C118  H32   S    
C35   C179  A    
C29   N34   A    
C195  C225  S    
N39   Ni3   S    
C107  H8    S    
C49   H132  S    
C58   H141  S    
C177  C230  A    
C4    C68   S    
C129  H69   S    
C162  C175  A    
C140  H89   S    
C59   H142  S    
C148  H102  S    
N31   N43   A    
N28   N38   A    
C6    C135  S    
C50   H133  S    
N4    Ni6   S    
C96   H204  S    
C83   C84   S    
C59   C200  A    
C67   H150  S    
C103  H4    S    
C140  H88   S    
C43   H79   S    
C138  H78   S    
C46   C239  S    
C152  C183  S    
C54   N20   A    
C62   C204  A    
C124  C177  A    
C98   C166  S    
N19   Ni9   S    
C7    C220  T    
C71   N37   A    
C92   C163  S    
N33   N41   A    
C63   C205  A    
N29   N37   A    
N21   Ni10  S    
C66   N32   A    
C51   H134  S    
C120  C121  S    
C147  H104  S    
C94   H194  S    
C39   H35   S    
C141  H87   S    
C107  H10   S    
N38   Ni4   S    
C93   H197  S    
N2    N23   A    
C102  H7    S    
C151  H109  S    
C136  C137  S    
C126  C174  S    
C15   C146  S    
C65   C207  A    
C104  H3    S    
C12   C24   S    
C111  H30   S    
C105  C168  S    
C72   C204  A    
C55   N21   A    
C36   H2    S    
C55   H138  S    
C117  C118  S    
C62   H145  S    
C113  C183  A    
C86   H181  S    
N34   Ni7   S    
N15   Ni8   S    
C200  C216  S    
C93   H196  S    
C30   H162  S    
C30   C190  A    
C102  C103  S    
C24   C172  A    
C40   N6    A    
C152  H122  S    
C98   H214  S    
C157  C176  A    
C127  H59   S    
C22   C235  T    
C55   C194  A    
C152  C153  S    
C20   C233  T    
N32   Ni12  S    
N18   Ni8   S    
C150  C151  S    
C83   H172  S    
C2    C178  A    
N31   Ni2   S    
C170  C197  A    
C212  C238  T    
C32   N46   A    
C153  H120  S    
C75   N41   A    
C66   H149  S    
C85   C161  S    
N35   N40   A    
C45   H101  S    
C199  C217  S    
C133  H73   S    
C37   N3    A    
C26   H1    S    
C114  H27   S    
C44   H90   S    
C102  C167  S    
C163  C186  A    
N42   Ni3   S    
C75   H158  S    
C14   C226  T    
C81   H161  S    
C18   C231  T    
C28   C188  A    
C104  H215  S    
C123  C125  S    
C57   C165  A    
C31   C191  A    
C32   C192  A    
C136  H83   S    
C79   C171  A    
N12   Ni5   S    
C151  H108  S    
C91   H186  S    
C6    C218  T    
C41   H57   S    
C89   H188  S    
C64   H147  S    
N30   N36   A    
C73   H156  S    
C123  H51   S    
C19   C232  T    
C7    C124  S    
C134  H71   S    
C119  H45   S    
C120  H42   S    
C33   C193  A    
C92   H198  S    
C24   C183  A    
C166  C208  A    
C105  H14   S    
C149  H115  S    
C95   C165  S    
C145  C147  S    
C60   N26   A    
C43   N9    A    
C68   C181  A    
C19   C197  S    
C46   C180  A    
C39   N5    A    
N20   Ni11  S    
C144  H93   S    
C17   C229  T    
C86   C87   S    
C31   N45   A    
C64   C206  A    
C79   C181  A    
C88   H190  S    
C42   H68   S    
C106  H11   S    
C148  H103  S    
C165  C197  A    
C124  C167  A    
C39   C193  A    
C108  H21   S    
C97   H201  S    
N29   Ni3   S    
C88   H191  S    
C10   C223  T    
C207  C227  S    
C73   N39   A    
C37   H13   S    
C133  C134  S    
N37   Ni2   S    
C25   C219  S    
C190  C236  S    
C111  H29   S    
C127  C128  S    
C38   C185  A    
C99   H211  S    
C161  C164  A    
C84   H170  S    
N24   Ni8   S    
C50   C201  A    
C149  H116  S    
N45   Ni1   S    
C44   C195  A    
C54   C195  A    
C171  C186  A    
C16   C157  S    
C72   H155  S    
C135  C178  A    
C117  H34   S    
N5    N47   A    
C11   C224  T    
C119  C120  S    
C119  H44   S    
C147  H105  S    
C130  H65   S    
C154  H119  S    
N11   N19   A    
C105  C106  S    
C5    C57   S    
C194  C226  S    
C109  H20   S    
C129  C130  S    
C38   N4    A    
C109  C110  S    
C100  H208  S    
C92   C93   S    
C78   H167  S    
C111  C114  S    
C137  H81   S    
C168  C219  A    
N22   Ni9   S    
C142  H98   S    
C85   H183  S    
C56   H139  S    
C78   C159  S    
C34   H206  S    
C26   N1    A    
C56   C202  A    
C10   C90   S    
C82   C83   S    
C156  H129  S    
C94   H192  S    
C103  C104  S    
C142  C143  S    
C36   C188  A    
C198  C213  S    
C145  H106  S    
C115  H25   S    
N33   Ni4   S    
C76   C209  A    
C41   N7    A    
C128  H55   S    
C93   C94   S    
C23   C208  S    
C82   H176  S    
C202  C222  S    
C203  C214  S    
C214  C240  T    
C95   C96   S    
C121  H40   S    
C158  H127  S    
C144  H95   S    
C169  C208  A    
N16   N24   A    
C27   H112  S    
C206  C218  S    
C31   H173  S    
C132  H75   S    
C116  H37   S    
C29   H151  S    
C32   H184  S    
C126  H60   S    
C155  H130  S    
C136  C178  S    
C116  C117  S    
C67   C210  A    
N6    Ni1   S    
C60   C199  A    
C113  C162  A    
C77   N43   A    
C8    C230  S    
C90   C182  A    
C58   C201  A    
C132  C133  S    
C28   H140  S    
C129  C176  S    
C25   C237  T    
C150  H111  S    
C49   N15   A    
C91   H187  S    
C119  C172  S    
C18   C175  S    
C69   N35   A    
C125  H48   S    
C46   C160  A    
C143  H97   S    
C108  C169  S    
C80   H166  S    
C35   C238  S    
C117  H36   S    
N14   N26   A    
N7    N45   A    
C27   N12   A    
N28   Ni2   S    
C139  H92   S    
C154  H117  S    
C74   N40   A    
N36   Ni12  S    
C141  H86   S    
C107  H9    S    
C78   H168  S    
C52   H135  S    
C131  H64   S    
C110  H17   S    
C3    C113  S    
C72   N38   A    
C155  C184  S    
N17   Ni10  S    
C53   N19   A    
C95   H205  S    
C38   H24   S    
C33   H195  S    
C99   C100  S    
N27   N39   A    
C96   C97   S    
C90   C170  A    
C53   H136  S    
C100  H209  S    
C51   N17   A    
C66   C209  A    
C45   N11   A    
C115  H23   S    
N27   Ni12  S    
C23   C236  T    
N44   Ni5   S    
C54   H137  S    
C158  H125  S    
N5    Ni5   S    
C118  H31   S    
C63   H146  S    
C34   C189  A    
C80   C81   S    
C213  C239  T    
N26   Ni11  S    
N13   N18   A    
C115  H26   S    
C42   N8    A    
C70   C206  A    
C122  C173  S    
C137  C138  S    
C132  C177  S    
N1    Ni1   S    
C143  H96   S    
C125  H49   S    
C101  C161  A    
C122  C123  S    
C30   N44   A    
C61   C203  A    
C2    C9    S    
C96   H203  S    
C12   C225  T    
N3    Ni7   S    
C40   H46   S    
N1    N4    A    
C136  H84   S    
C80   H165  S    
C35   C159  A    
C138  H77   S    
C91   H185  S    
C168  C230  A    
N47   Ni6   S    
C58   N24   A    
C153  C154  S    
C49   C200  A    
C118  H33   S    
C8    C221  T    
C134  H72   S    
C94   H193  S    
