data_mof_unit_10463.cif
_audit_creation_date              2012-12-10T17:52:23-0500
_audit_creation_method            fapswitch 2.2
_symmetry_space_group_name_H-M    P1
_symmetry_Int_Tables_number       1
_space_group_crystal_system       triclinic
_cell_length_a                    18.967168
_cell_length_b                    10.62849
_cell_length_c                    9.982371
_cell_angle_alpha                 87.025259
_cell_angle_beta                  90.017829
_cell_angle_gamma                 92.95
_cell_volume                      2006.98927152

loop_
_atom_site_label
_atom_site_type_symbol
_atom_type_description
_atom_site_fract_x
_atom_site_fract_y
_atom_site_fract_z
_atom_type_partial_charge
C1    C     C_R   0.501761 0.260746 0.504063 0.960963
C2    C     C_R   0.292527 0.548134 0.497687 -0.246637
C3    C     C_R   0.933927 0.557194 0.503627 0.329181
C4    C     C_R   0.075079 0.592296 0.508035 0.451799
C5    C     C_R   0.817838 0.592955 0.594260 0.741409
C6    C     C_R   0.745266 0.576927 0.593248 -0.260531
C7    C     C_R   0.711343 0.500194 0.500757 -0.201766
C8    C     C_R   0.750967 0.434515 0.409082 -0.003545
C9    C     C_R   0.824886 0.461190 0.401385 -0.121742
C10   C     C_R   0.857759 0.536800 0.498659 -0.153753
C11   C     C_R   0.631087 0.131508 0.575132 0.572570
C12   C     C_R   0.365933 0.510396 0.499396 0.985025
C13   C     C_R   0.695223 0.074357 0.570402 -0.230307
C14   C     C_R   0.700816 0.960991 0.507369 -0.102962
C15   C     C_R   0.638146 0.897110 0.462333 -0.140905
C16   C     C_R   0.571094 0.944816 0.491701 0.006751
C17   C     C_R   0.568888 0.069657 0.528543 -0.042030
C18   C     C_R   0.504211 0.127951 0.515077 -0.132449
C19   C     C_R   0.441114 0.060419 0.494084 -0.152246
C20   C     C_R   0.440532 0.931979 0.482416 -0.054305
C21   C     C_R   0.505651 0.874185 0.483729 -0.091751
C22   C     C_R   0.380221 0.393830 0.139932 -0.012599
C23   C     C_R   0.504010 0.739907 0.495872 0.782477
C24   C     C_R   0.316055 0.391695 0.070281 0.723090
C25   C     C_R   0.317221 0.382289 0.931145 -0.295360
C26   C     C_R   0.384001 0.384292 0.868150 -0.127461
C27   C     C_R   0.442283 0.446736 0.930489 0.027444
C28   C     C_R   0.441753 0.447938 0.073999 -0.147987
C29   C     C_R   0.556008 0.547222 0.068172 0.711136
C30   C     C_R   0.555564 0.548501 0.925751 -0.145886
C31   C     C_R   0.634461 0.496272 0.500172 0.892632
C32   C     C_R   0.259096 0.569661 0.618736 -0.379310
C33   C     C_R   0.188479 0.596656 0.620421 0.693588
C34   C     C_R   0.151066 0.606878 0.500119 -0.153568
C35   C     C_R   0.186132 0.602524 0.375650 -0.204830
C36   C     C_R   0.257613 0.576046 0.376108 0.615822
H1    H     H_    0.287145 0.563043 0.712864 0.203968
H2    H     H_    0.741897 0.124078 0.607903 0.179127
H3    H     H_    0.601078 0.588582 0.870383 0.177459
H4    H     H_    0.715242 0.626484 0.664344 0.176826
H5    H     H_    0.392242 0.108506 0.487427 0.246217
N1    N     N_R   0.044594 0.474356 0.519808 -0.125463
N2    N     N_R   0.974928 0.457008 0.518337 -0.163347
N3    N     N_R   0.964364 0.675717 0.495382 -0.053710
N4    N     N_R   0.034268 0.693179 0.497234 -0.064303
N5    N     N_R   0.499340 0.498800 0.142780 -0.150856
N6    N     N_R   0.499320 0.498720 0.857170 -0.129221
O1    O     O_R   0.500000 0.316780 0.614690 -0.574537
O2    O     O_R   0.499990 0.316750 0.385360 -0.670112
O3    O     O_R   0.398140 0.500000 0.614700 -0.625464
O4    O     O_R   0.398130 0.499970 0.385370 -0.556734
O5    O     O_R   0.500010 0.683250 0.614640 -0.612809
O6    O     O_R   0.500000 0.683220 0.385310 -0.575626
O7    O     O_R   0.601870 0.500030 0.614630 -0.572072
O8    O     O_R   0.601860 0.500000 0.385300 -0.599675
Zn1   Zn    Zn3+2 0.500000 0.500020 0.653130 1.003140
Zn2   Zn    Zn3+2 0.500000 0.499980 0.346870 1.037821
F1    F     F_    0.630127 0.243664 0.633097 -0.675653
C37   C     C_2   0.773656 0.919325 0.486767 0.503352
H6    H     H_    0.817208 0.963131 0.541047 0.111862
O9    O     O_2   0.787020 0.839986 0.407865 -0.563362
C38   C     C_2   0.642975 0.801906 0.360648 0.583101
H7    H     H_    0.677243 0.724446 0.374729 0.103352
O10   O     O_2   0.610493 0.813897 0.255568 -0.477318
C39   C     C_2   0.372144 0.860698 0.462722 0.465825
H8    H     H_    0.371259 0.766097 0.428077 0.059308
O11   O     O_2   0.315963 0.907637 0.483304 -0.508438
F2    F     F_    0.614373 0.593542 0.130400 -0.618783
C40   C     C_2   0.385134 0.285530 0.236574 0.505914
H9    H     H_    0.426988 0.221012 0.225630 0.040360
O12   O     O_2   0.339790 0.261713 0.322325 -0.504917
F3    F     F_    0.254876 0.364664 0.139412 -0.567136
C41   C     C_2   0.251039 0.348270 0.857709 0.607744
H10   H     H_    0.252139 0.335220 0.750944 0.110307
O13   O     O_2   0.193850 0.337189 0.914369 -0.435298
C42   C     C_2   0.398816 0.271839 0.794154 0.492645
H11   H     H_    0.446336 0.222408 0.817689 0.089147
O14   O     O_2   0.358421 0.230662 0.709920 -0.588300
F4    F     F_    0.155330 0.604616 0.740062 -0.605190
C43   C     C_2   0.150115 0.620281 0.243839 0.596985
H12   H     H_    0.177025 0.599670 0.152181 0.168953
O15   O     O_2   0.090932 0.659767 0.234725 -0.534432
F5    F     F_    0.293507 0.583027 0.258319 -0.663026
F6    F     F_    0.849268 0.665798 0.687385 -0.619544
C44   C     C_2   0.716444 0.330469 0.333103 0.523317
H13   H     H_    0.660360 0.325771 0.313587 0.086894
O16   O     O_2   0.750002 0.242924 0.297700 -0.536250
C45   C     C_2   0.866930 0.421369 0.286097 0.596444
H14   H     H_    0.921999 0.401038 0.297570 0.076368
O17   O     O_2   0.841041 0.416745 0.174319 -0.466814

loop_
_geom_bond_atom_site_label_1
_geom_bond_atom_site_label_2
_ccdc_geom_bond_type
C8    C9    A    
C16   C21   A    
C41   H10   S    
C35   C36   A    
C2    C12   S    
C7    C8    A    
C44   H13   S    
C14   C37   S    
C28   N5    A    
C26   C27   A    
C29   C30   A    
C42   O14   D    
C8    C44   S    
C9    C45   S    
C5    C6    A    
C36   F5    S    
C27   N6    A    
C15   C16   A    
C35   C43   S    
O2    Zn2   S    
C2    C32   A    
C34   C35   A    
C40   O12   D    
C38   O10   D    
C19   C20   A    
C16   C17   A    
C39   O11   D    
C26   C42   S    
O4    Zn2   S    
C11   F1    S    
C9    C10   A    
C22   C40   S    
C25   C41   S    
C45   H14   S    
C37   H6    S    
C22   C28   A    
C13   C14   A    
C41   O13   D    
C23   O6    A    
O7    Zn1   S    
C4    N4    A    
C44   O16   D    
C4    C34   S    
C3    N3    A    
C37   O9    D    
C7    C31   S    
C30   N6    A    
C42   H11   S    
C43   O15   D    
C5    F6    S    
O6    Zn2   S    
C18   C19   A    
C25   C26   A    
O3    Zn1   S    
C38   H7    S    
C29   F2    S    
C20   C39   S    
C3    N2    A    
C17   C18   A    
C1    C18   S    
C32   H1    S    
C24   C25   A    
C13   H2    S    
C45   O17   D    
O8    Zn2   S    
N5    Zn2   S    
C22   C24   A    
N1    N2    A    
C12   O4    A    
N3    N4    A    
C24   F3    S    
C2    C36   A    
O1    Zn1   S    
C11   C17   A    
C33   F4    S    
C43   H12   S    
C12   O3    A    
C1    O1    A    
C6    C7    A    
C29   N5    A    
C32   C33   A    
C21   C23   S    
C5    C10   A    
C3    C10   S    
C11   C13   A    
C23   O5    A    
C4    N1    A    
C15   C38   S    
C33   C34   A    
C30   H3    S    
C6    H4    S    
C31   O7    A    
C40   H9    S    
C19   H5    S    
C20   C21   A    
C39   H8    S    
C27   C28   A    
C14   C15   A    
C31   O8    A    
C1    O2    A    
O5    Zn1   S    
N6    Zn1   S    
