data_mof_unit_22636.cif
_audit_creation_date              2013-03-05T15:41:44-0500
_audit_creation_method            fapswitch 2.2
_symmetry_space_group_name_H-M    P1
_symmetry_Int_Tables_number       1
_space_group_crystal_system       triclinic
_cell_length_a                    11.108073
_cell_length_b                    12.804155
_cell_length_c                    23.513048
_cell_angle_alpha                 90.896553
_cell_angle_beta                  97.255048
_cell_angle_gamma                 68.865893
_cell_volume                      3092.72326

loop_
_atom_site_label
_atom_site_type_symbol
_atom_site_description
_atom_site_fract_x
_atom_site_fract_y
_atom_site_fract_z
_atom_type_partial_charge
O1    O     O_R   0.196340 0.303200 0.448500 -0.467334
O2    O     O_R   0.199310 0.519670 0.454880 -0.485901
C1    C     C_R   0.150160 0.616284 0.429314 0.545541
O3    O     O_R   0.045660 0.691380 0.441680 -0.456052
O4    O     O_R   0.811930 0.659460 0.430950 -0.443745
C2    C     C_R   0.750597 0.601851 0.402873 0.569602
O5    O     O_R   0.757900 0.507620 0.421760 -0.460699
O6    O     O_R   0.988630 0.322990 0.439840 -0.468860
C3    C     C_R   0.100971 0.280823 0.423984 0.561167
O7    O     O_R   0.196380 0.301720 0.573850 -0.441686
O8    O     O_R   0.199350 0.518300 0.571080 -0.458519
C4    C     C_R   0.154117 0.618564 0.589784 0.548668
O9    O     O_R   0.045700 0.689900 0.567030 -0.445459
O10   O     O_R   0.811960 0.658090 0.547150 -0.477245
C5    C     C_R   0.753926 0.599913 0.567017 0.554083
O11   O     O_R   0.757930 0.506140 0.547110 -0.453557
O12   O     O_R   0.988670 0.321620 0.556040 -0.464591
C6    C     C_R   0.099647 0.277734 0.585481 0.564121
Cr1   Cr    Cr6+3 0.189770 0.415650 0.511620 1.185661
Cr2   Cr    Cr6+3 0.930400 0.667320 0.496770 1.194564
Cr3   Cr    Cr6+3 0.879870 0.417010 0.491650 1.194442
O13   O     O_3   0.000020 0.499990 0.500010 -0.340741
C7    C     C_R   0.685929 0.753616 0.136920 -0.041751
C8    C     C_R   0.703986 0.624451 0.340682 -0.049306
C9    C     C_R   0.731572 0.534990 0.248264 0.223749
C10   C     C_R   0.713225 0.531144 0.305566 0.167021
C11   C     C_R   0.681323 0.729185 0.314466 -0.019019
C12   C     C_R   0.701743 0.734059 0.256207 -0.105841
C13   C     C_R   0.723978 0.636652 0.222454 -0.051882
C14   C     C_R   0.726025 0.646405 0.162736 0.132307
C15   C     C_R   0.692608 0.843608 0.170647 0.148138
C16   C     C_R   0.703257 0.833482 0.230757 0.146147
C17   C     C_1   0.244991 0.152267 0.125265 0.098208
C18   C     C_2   0.228181 0.191271 0.235248 -0.033462
C19   C     C_2   0.138766 0.167170 0.262355 0.231264
C20   C     C_1   0.124736 0.197107 0.321410 0.097013
C21   C     C_1   0.234060 0.174194 0.174719 0.024121
C22   C     C_1   0.113459 0.229612 0.369460 0.106482
C23   C     C_1   0.175217 0.762206 0.126802 0.087712
C24   C     C_2   0.165328 0.745123 0.238032 -0.042265
C25   C     C_2   0.246145 0.655057 0.271352 0.201700
C26   C     C_1   0.223844 0.642198 0.329893 0.066092
C27   C     C_1   0.169484 0.750198 0.176986 0.013518
C28   C     C_1   0.196333 0.631379 0.376911 0.076013
C29   C     C_1   0.624373 0.763741 0.864927 0.118089
C30   C     C_2   0.672540 0.745648 0.757450 0.167339
C31   C     C_2   0.716994 0.643070 0.735396 0.190346
C32   C     C_1   0.719593 0.631740 0.674612 0.086805
C33   C     C_1   0.652465 0.756925 0.816925 0.093466
C34   C     C_1   0.726182 0.620604 0.624300 0.096469
C35   C     C_R   0.191940 0.195817 0.858003 -0.004924
C36   C     C_R   0.104584 0.223744 0.641667 0.006373
C37   C     C_R   0.972442 0.225026 0.717958 0.028911
C38   C     C_R   0.987697 0.222634 0.659266 0.163353
C39   C     C_R   0.215030 0.203039 0.682281 0.176514
C40   C     C_R   0.202547 0.205400 0.741141 -0.064975
C41   C     C_R   0.081370 0.214943 0.759978 -0.006508
C42   C     C_R   0.080761 0.200435 0.819931 0.158600
C43   C     C_R   0.286913 0.228417 0.837788 0.133745
C44   C     C_R   0.309892 0.200591 0.781845 0.167691
C45   C     C_R   0.122891 0.745040 0.850847 0.031629
C46   C     C_R   0.209708 0.646770 0.646217 -0.036961
C47   C     C_R   0.303853 0.557517 0.739375 -0.015230
C48   C     C_R   0.311976 0.564762 0.680428 0.157768
C49   C     C_R   0.133736 0.744676 0.672182 0.193767
C50   C     C_R   0.133210 0.745124 0.732347 -0.005125
C51   C     C_R   0.214957 0.648527 0.766320 -0.092746
C52   C     C_R   0.213686 0.652078 0.826895 0.163115
C53   C     C_R   0.020949 0.822139 0.814474 -0.069802
C54   C     C_R   0.044415 0.836109 0.758735 0.003972
O14   O     O_R   0.113660 0.883270 0.047820 -0.466118
O15   O     O_R   0.186930 0.068530 0.043990 -0.483590
C55   C     C_R   0.266206 0.110252 0.069318 0.562867
O16   O     O_R   0.377770 0.089040 0.054220 -0.449242
O17   O     O_R   0.562800 0.872960 0.056970 -0.464656
C56   C     C_R   0.603288 0.774848 0.080640 0.550420
O18   O     O_R   0.555390 0.700940 0.062700 -0.469500
O19   O     O_R   0.295020 0.731920 0.049950 -0.478927
C57   C     C_R   0.189587 0.788811 0.069739 0.557918
O20   O     O_R   0.094290 0.884230 0.921550 -0.480514
O21   O     O_R   0.168980 0.069410 0.926940 -0.488281
C58   C     C_R   0.238488 0.119628 0.909241 0.574740
O22   O     O_R   0.358400 0.089990 0.927950 -0.448532
O23   O     O_R   0.544850 0.873850 0.939920 -0.481494
C59   C     C_R   0.574459 0.776971 0.918744 0.555785
O24   O     O_R   0.536020 0.701900 0.936430 -0.449037
O25   O     O_R   0.277070 0.732810 0.932890 -0.445519
C60   C     C_R   0.162436 0.785710 0.907072 0.582103
Cr4   Cr    Cr6+3 0.149500 0.973980 0.985330 1.145853
Cr5   Cr    Cr6+3 0.457000 0.976510 0.994660 1.189077
Cr6   Cr    Cr6+3 0.411170 0.724270 0.995270 1.184867
O26   O     O_3   0.339220 0.891590 0.991750 -0.325931
N1    N     N_R   0.752393 0.549461 0.127601 -0.103890
O27   O     O_R   0.819293 0.537573 0.084619 -0.000493
O28   O     O_R   0.819129 0.537614 0.084732 -0.000493
C61   C     C_2   0.069290 0.844901 0.261026 0.288798
H1    H     H_    0.987185 0.899635 0.232244 0.213465
O29   O     O_2   0.083473 0.870228 0.311066 -0.427511
N2    N     N_R   0.775866 0.543616 0.771551 0.101749
O30   O     O_R   0.888714 0.471551 0.762657 -0.336948
O31   O     O_R   0.718929 0.524725 0.813294 -0.219822
N3    N     N_R   0.637708 0.845067 0.721786 0.105210
O32   O     O_R   0.693186 0.917642 0.734731 -0.279465
O33   O     O_R   0.556513 0.860270 0.674883 -0.240639
N4    N     N_R   0.976069 0.178520 0.840978 -0.159076
O34   O     O_R   0.929576 0.225376 0.886942 -0.000703
O35   O     O_R   0.929209 0.225132 0.886927 -0.000703
N5    N     N_R   0.377711 0.259329 0.877653 0.105130
O36   O     O_R   0.497981 0.236119 0.868947 -0.197415
O37   O     O_R   0.341017 0.306483 0.925127 -0.244601
C62   C     C_2   0.840811 0.237639 0.732148 0.366070
H2    H     H_    0.786734 0.191092 0.709096 0.169348
O38   O     O_2   0.786871 0.306016 0.766143 -0.308276
N6    N     N_R   0.436897 0.124988 0.773760 0.149521
O39   O     O_R   0.530102 0.160294 0.765732 -0.171846
O40   O     O_R   0.462629 0.018220 0.781285 -0.279095
N7    N     N_R   0.882843 0.220675 0.617021 0.076540
O41   O     O_R   0.904318 0.143439 0.578932 -0.214690
O42   O     O_R   0.769569 0.301274 0.613243 -0.251454
N8    N     N_R   0.337792 0.189118 0.663444 0.128569
O43   O     O_R   0.392782 0.104120 0.632565 -0.183505
O44   O     O_R   0.382152 0.270451 0.668372 -0.243599
N9    N     N_R   0.310617 0.568575 0.865006 0.063909
O45   O     O_R   0.274885 0.526501 0.906912 -0.261398
O46   O     O_R   0.433002 0.554438 0.865969 -0.238337
N10   N     N_R   0.695319 0.942599 0.144012 0.123371
O47   O     O_R   0.798262 0.939224 0.121660 -0.289144
O48   O     O_R   0.595212 0.035553 0.141301 -0.244130
C63   C     C_2   0.900191 0.897015 0.836725 0.303237
H3    H     H_    0.841383 0.977466 0.816160 0.160165
O49   O     O_2   0.862972 0.867243 0.878152 -0.459224
C64   C     C_2   0.369798 0.446430 0.768740 0.390211
H4    H     H_    0.316742 0.416145 0.795683 0.116441
O50   O     O_2   0.482441 0.389072 0.764046 -0.290267
C65   C     C_2   0.999822 0.951456 0.734943 0.292359
H5    H     H_    0.898943 0.005676 0.732695 0.121086
O51   O     O_2   0.078272 0.986183 0.718024 -0.473101
N11   N     N_R   0.432101 0.501428 0.658365 0.129758
O52   O     O_R   0.541383 0.502113 0.685463 -0.244073
O53   O     O_R   0.434390 0.453134 0.609085 -0.230872
N12   N     N_R   0.048062 0.838950 0.636371 0.126911
O54   O     O_R   0.095905 0.885749 0.600899 -0.223452
O55   O     O_R   0.922481 0.865033 0.632090 -0.267035
N13   N     N_R   0.761279 0.432801 0.217652 0.138011
O56   O     O_R   0.880887 0.377665 0.208814 -0.291635
O57   O     O_R   0.673402 0.387956 0.205108 -0.156236
N14   N     N_R   0.723406 0.920788 0.265643 0.082242
O58   O     O_R   0.646718 0.024847 0.256013 -0.229090
O59   O     O_R   0.813129 0.895310 0.309856 -0.253651
N15   N     N_R   0.704148 0.430484 0.327805 0.140159
O60   O     O_R   0.799561 0.334798 0.326901 -0.238018
O61   O     O_R   0.600616 0.434879 0.349664 -0.218473
C66   C     C_2   0.606504 0.833731 0.342503 0.335715
H6    H     H_    0.529535 0.900425 0.315834 0.135403
O62   O     O_2   0.629693 0.847457 0.394486 -0.408249
N16   N     N_R   0.048090 0.120688 0.232802 0.112535
O63   O     O_R   0.942344 0.130303 0.254308 -0.177706
O64   O     O_R   0.075781 0.058858 0.188313 -0.338092
C67   C     C_2   0.328505 0.233069 0.264420 0.284623
H7    H     H_    0.390591 0.255704 0.238737 0.207814
O65   O     O_2   0.346420 0.240033 0.316431 -0.435630
N17   N     N_R   0.345145 0.564068 0.247970 0.088035
O66   O     O_R   0.378387 0.462748 0.268901 -0.257232
O67   O     O_R   0.412160 0.583238 0.210530 -0.310502

loop_
_geom_bond_atom_site_label_1
_geom_bond_atom_site_label_2
_geom_bond_distance
_ccdc_geom_bond_type
C11   C66   1.491882 S    
C39   C40   1.407001 A    
N1    O27   1.303892 A    
O15   Cr4   1.925299 S    
O25   Cr6   1.928189 S    
C18   C21   1.442599 S    
N9    O45   1.299323 A    
C55   O16   1.265279 A    
C44   N6    1.428537 S    
C62   H2    1.084276 S    
C8    C11   1.408880 A    
C7    C56   1.480616 S    
O25   C60   1.282356 A    
O14   C57   1.270392 A    
N6    O39   1.304377 A    
C6    C36   1.486332 S    
C65   H5    1.079659 S    
C16   N14   1.441508 S    
C48   N11   1.445210 S    
C59   O24   1.277704 A    
C40   C41   1.432917 A    
N4    O35   1.300867 A    
C30   C33   1.440656 S    
O8    Cr1   1.923345 S    
N10   O47   1.304265 A    
O23   Cr5   1.917307 S    
C25   N17   1.441430 S    
C12   C13   1.429285 A    
N14   O59   1.301898 A    
C8    C10   1.421887 A    
N17   O66   1.300092 A    
C14   N1    1.440801 S    
O24   Cr6   2.026138 S    
N7    O42   1.301690 A    
C67   H7    1.085856 S    
O4    C2    1.295231 A    
N9    O46   1.302431 A    
C5    O11   1.269591 A    
C31   N2    1.436976 S    
N5    O36   1.302262 A    
C18   C19   1.369328 D    
C25   C26   1.451136 S    
C5    C34   1.419197 S    
O20   Cr4   2.041488 S    
C46   C48   1.405564 A    
O17   Cr5   1.946249 S    
C24   C27   1.445143 S    
N14   O58   1.301710 A    
C36   C38   1.416492 A    
O6    C3    1.270083 A    
C61   O29   1.221641 D    
C67   O65   1.221067 D    
C66   O62   1.240012 D    
O9    Cr2   2.042251 S    
C36   C39   1.401726 A    
O21   Cr4   1.934678 S    
C18   C67   1.491427 S    
C37   C62   1.492182 S    
C32   C34   1.197569 T    
C50   C51   1.424880 A    
C43   C44   1.388125 A    
N1    O28   1.300556 A    
Cr3   O13   1.974467 S    
C53   C54   1.394560 A    
C26   C28   1.206405 T    
C24   C61   1.484540 S    
C52   N9    1.435833 S    
N8    O44   1.300996 A    
O21   C58   1.276833 A    
N17   O67   1.301309 A    
C39   N8    1.436060 S    
C9    C13   1.415088 A    
C47   C51   1.428128 A    
C1    C28   1.434279 S    
O1    Cr1   2.041034 S    
C51   C52   1.426003 A    
C7    C14   1.402920 A    
O10   Cr2   1.912655 S    
C12   C16   1.421541 A    
Cr1   O13   1.976334 S    
O1    C3    1.263376 A    
O23   C59   1.273834 A    
N13   O57   1.302200 A    
C49   N12   1.439733 S    
Cr6   O26   1.997394 S    
O4    Cr2   1.926995 S    
C37   C41   1.430487 A    
O19   C57   1.276937 A    
C64   H4    1.079746 S    
C23   C27   1.204904 T    
C9    C10   1.392104 A    
O5    Cr3   2.060585 S    
O12   Cr3   1.943170 S    
C40   C44   1.415015 A    
C19   C20   1.447136 S    
C23   C57   1.431564 S    
C29   C59   1.428319 S    
O17   C56   1.281175 A    
C13   C14   1.415393 A    
C45   C60   1.486128 S    
C4    C46   1.487044 S    
Cr5   O26   1.974717 S    
C31   C32   1.437188 S    
O14   Cr4   2.049639 S    
C29   C33   1.202123 T    
O7    Cr1   2.058361 S    
C10   N15   1.439747 S    
C2    C8    1.484623 S    
C61   H1    1.085806 S    
O12   C6    1.269549 A    
C62   O38   1.218704 D    
C35   C42   1.414153 A    
C47   C64   1.479220 S    
C19   N16   1.447128 S    
Cr4   O26   1.974433 S    
N3    O33   1.302486 A    
C35   C58   1.478571 S    
N11   O53   1.303584 A    
C17   C55   1.428357 S    
C24   C25   1.361512 D    
N2    O31   1.302450 A    
Cr2   O13   1.997417 S    
C49   C50   1.415327 A    
C54   C65   1.472393 S    
N15   O61   1.300640 A    
C9    N13   1.434632 S    
C35   C43   1.401262 A    
C1    O3    1.276008 A    
N8    O43   1.301028 A    
C63   H3    1.082693 S    
C45   C53   1.401424 A    
C65   O51   1.219782 D    
O22   Cr5   2.064227 S    
C30   C31   1.346657 D    
O18   Cr6   2.048812 S    
N10   O48   1.298949 A    
C46   C49   1.414123 A    
O2    Cr1   1.938595 S    
N15   O60   1.301274 A    
C15   C16   1.407451 A    
O15   C55   1.269778 A    
O6    Cr3   1.915693 S    
N6    O40   1.301898 A    
O8    C4    1.291125 A    
O11   Cr3   2.030393 S    
C37   C38   1.409998 A    
C2    O5    1.263585 A    
O19   Cr6   1.910791 S    
N4    O34   1.300754 A    
C43   N5    1.445697 S    
N2    O30   1.300996 A    
N13   O56   1.302146 A    
C42   N4    1.435631 S    
O16   Cr5   2.036067 S    
N12   O55   1.302770 A    
O2    C1    1.281844 A    
O20   C60   1.281898 A    
N7    O41   1.301204 A    
C20   C22   1.203666 T    
C56   O18   1.284698 A    
C45   C52   1.417041 A    
C41   C42   1.425910 A    
C50   C54   1.420697 A    
O7    C6    1.280044 A    
C53   C63   1.492114 S    
N16   O64   1.302074 A    
C3    C22   1.430309 S    
N5    O37   1.301167 A    
N3    O32   1.301019 A    
C17   C21   1.202727 T    
N11   O52   1.300676 A    
C47   C48   1.406945 A    
O3    Cr2   2.031697 S    
N16   O63   1.301690 A    
C4    O9    1.276806 A    
C64   O50   1.219366 D    
C58   O22   1.266673 A    
C38   N7    1.439430 S    
C11   C12   1.422387 A    
O10   C5    1.273541 A    
C15   N10   1.434146 S    
C63   O49   1.221496 D    
C66   H6    1.099229 S    
N12   O54   1.301672 A    
C7    C15   1.407231 A    
C30   N3    1.438631 S    
