data_mof_unit_56682.cif
_audit_creation_date              2012-12-11T14:38:06-0500
_audit_creation_method            fapswitch 2.2
_symmetry_space_group_name_H-M    P1
_symmetry_Int_Tables_number       1
_space_group_crystal_system       triclinic
_cell_length_a                    19.68816
_cell_length_b                    11.141971
_cell_length_c                    19.705032
_cell_angle_alpha                 89.860827
_cell_angle_beta                  96.696522
_cell_angle_gamma                 90.411038
_cell_volume                      4292.98664122

loop_
_atom_site_label
_atom_site_type_symbol
_atom_type_description
_atom_site_fract_x
_atom_site_fract_y
_atom_site_fract_z
_atom_type_partial_charge
C1    C     C_R   0.724724 0.954228 0.360598 0.542425
C2    C     C_R   0.275226 0.954389 0.639546 0.537974
C3    C     C_R   0.224721 0.454236 0.360604 0.542403
C4    C     C_R   0.775225 0.454386 0.639547 0.537946
C5    C     C_3   0.676395 0.442403 0.457437 -0.225451
C6    C     C_3   0.322194 0.445942 0.543318 -0.227309
C7    C     C_3   0.176390 0.942374 0.457442 -0.225457
C8    C     C_3   0.822193 0.945954 0.543320 -0.227303
C9    C     C_3   0.821371 0.478476 0.531158 -0.224600
C10   C     C_3   0.177232 0.476516 0.468556 -0.227112
C11   C     C_3   0.321369 0.978496 0.531154 -0.224602
C12   C     C_3   0.677233 0.976500 0.468553 -0.227108
C13   C     C_3   0.757636 0.291579 0.552763 -0.272323
C14   C     C_3   0.242433 0.292019 0.447877 -0.273164
C15   C     C_3   0.257656 0.791583 0.552765 -0.272312
C16   C     C_3   0.742446 0.792016 0.447878 -0.273174
C17   C     C_3   0.759846 0.425518 0.566861 0.054936
C18   C     C_3   0.239517 0.426028 0.433465 0.054863
C19   C     C_3   0.259849 0.925523 0.566861 0.054948
C20   C     C_3   0.739522 0.926024 0.433463 0.054864
C21   C     C_3   0.743902 0.392298 0.434920 0.043404
C22   C     C_3   0.255039 0.393057 0.565413 0.044259
C23   C     C_3   0.243901 0.892294 0.434921 0.043400
C24   C     C_3   0.755041 0.893058 0.565413 0.044258
C25   C     C_3   0.803912 0.479263 0.453226 -0.267824
C26   C     C_3   0.194406 0.477493 0.546668 -0.269032
C27   C     C_3   0.303903 0.979278 0.453224 -0.267820
C28   C     C_3   0.694404 0.977486 0.546665 -0.269035
C29   C     C_3   0.760029 0.276344 0.475980 -0.227830
C30   C     C_3   0.239185 0.276359 0.524530 -0.225903
C31   C     C_3   0.260043 0.776347 0.475982 -0.227843
C32   C     C_3   0.739197 0.776357 0.524530 -0.225908
C33   C     C_3   0.474045 0.311880 0.965037 -0.092417
C34   C     C_3   0.498770 0.312067 0.040175 -0.096656
C35   C     C_3   0.974040 0.811888 0.965044 -0.092421
C36   C     C_3   0.998811 0.812123 0.040177 -0.096659
C37   C     C_3   0.434755 0.094993 0.967143 -0.239145
C38   C     C_3   0.573386 0.130324 0.031866 -0.241781
C39   C     C_3   0.934729 0.595018 0.967145 -0.239110
C40   C     C_3   0.073329 0.630229 0.031871 -0.241688
C41   C     C_3   0.557737 0.134270 0.953452 -0.258829
C42   C     C_3   0.450404 0.093593 0.045386 -0.258160
C43   C     C_3   0.057704 0.634228 0.953460 -0.258849
C44   C     C_3   0.950294 0.593811 0.045399 -0.258293
C45   C     C_R   0.535643 0.180033 0.338135 0.526454
C46   C     C_R   0.439897 0.183340 0.652394 0.541745
C47   C     C_R   0.035643 0.680033 0.338135 0.526427
C48   C     C_R   0.939896 0.683340 0.652394 0.541736
C49   C     C_3   0.484679 0.181461 0.934271 0.042666
C50   C     C_3   0.511527 0.178772 0.066887 0.041134
C51   C     C_3   0.984660 0.681464 0.934275 0.042652
C52   C     C_3   0.011503 0.678810 0.066890 0.041109
C53   C     C_1   0.778197 0.466104 0.913367 -0.040919
C54   C     C_1   0.221386 0.469834 0.086181 -0.020671
C55   C     C_1   0.278204 0.966136 0.913371 -0.040942
C56   C     C_1   0.721398 0.969811 0.086185 -0.020649
C57   C     C_1   0.756523 0.428689 0.040306 -0.056089
C58   C     C_1   0.243596 0.431050 0.959431 -0.054187
C59   C     C_1   0.256521 0.928715 0.040308 -0.056012
C60   C     C_1   0.743603 0.931032 0.959435 -0.054238
C61   C     C_1   0.767672 0.449111 0.971714 -0.068069
C62   C     C_1   0.232261 0.452815 0.027921 -0.045728
C63   C     C_1   0.267672 0.949148 0.971717 -0.067960
C64   C     C_1   0.732272 0.952791 0.027925 -0.045725
C65   C     C_1   0.747383 0.404079 0.098172 -0.018736
C66   C     C_1   0.252725 0.405189 0.901730 -0.032314
C67   C     C_1   0.247383 0.904092 0.098173 -0.018698
C68   C     C_1   0.752727 0.905178 0.901732 -0.032356
C69   C     C_R   0.738062 0.359460 0.362173 0.543658
C70   C     C_R   0.261587 0.360571 0.638122 0.540987
C71   C     C_R   0.238061 0.859456 0.362174 0.543653
C72   C     C_R   0.761587 0.860571 0.638122 0.540979
C73   C     C_R   0.706489 0.994273 0.154550 0.547430
C74   C     C_R   0.293021 0.992266 0.845228 0.547503
C75   C     C_R   0.206484 0.494285 0.154550 0.547408
C76   C     C_R   0.793015 0.492251 0.845228 0.547511
C77   C     C_R   0.532768 0.179842 0.140787 0.530223
C78   C     C_R   0.465645 0.180894 0.859983 0.544105
C79   C     C_R   0.032765 0.679848 0.140788 0.530060
C80   C     C_R   0.965634 0.680895 0.859987 0.544107
C81   C     C_R   0.736386 0.359434 0.164373 0.539672
C82   C     C_R   0.263702 0.359643 0.835711 0.537428
C83   C     C_R   0.236385 0.859435 0.164373 0.539663
C84   C     C_R   0.763702 0.859642 0.835711 0.537416
C85   C     C_1   0.461054 0.176797 0.585172 -0.032426
C86   C     C_1   0.508356 0.172285 0.402459 -0.027560
C87   C     C_1   0.961053 0.676797 0.585172 -0.032426
C88   C     C_1   0.008356 0.672285 0.402459 -0.027566
C89   C     C_1   0.491519 0.170713 0.459372 -0.054371
C90   C     C_1   0.475353 0.172890 0.527339 -0.058666
C91   C     C_1   0.991519 0.670713 0.459372 -0.054373
C92   C     C_1   0.975352 0.672890 0.527339 -0.058665
C93   C     C_3   0.689960 0.478377 0.533144 -0.112538
C94   C     C_3   0.308720 0.482076 0.467926 -0.111553
C95   C     C_3   0.189957 0.978363 0.533145 -0.112537
C96   C     C_3   0.808720 0.982086 0.467928 -0.111542
Cr1   Cr    Cr6+3 0.765780 0.160710 0.267420 0.990164
Cr2   Cr    Cr6+3 0.234220 0.160710 0.732580 1.005695
Cr3   Cr    Cr6+3 0.265780 0.660710 0.267420 0.990233
Cr4   Cr    Cr6+3 0.734220 0.660710 0.732580 1.005775
Cr5   Cr    Cr6+3 0.612200 0.009560 0.248850 0.996532
Cr6   Cr    Cr6+3 0.387800 0.009560 0.751150 0.993056
Cr7   Cr    Cr6+3 0.112200 0.509560 0.248850 0.996564
Cr8   Cr    Cr6+3 0.887800 0.509560 0.751150 0.993040
Cr9   Cr    Cr6+3 0.616030 0.323720 0.248510 0.994532
Cr10  Cr    Cr6+3 0.383970 0.323720 0.751490 0.986058
Cr11  Cr    Cr6+3 0.116030 0.823720 0.248510 0.994538
Cr12  Cr    Cr6+3 0.883970 0.823720 0.751490 0.986137
H1    H     H_    0.701104 0.571515 0.531239 0.125038
H2    H     H_    0.296497 0.573887 0.469877 0.125091
H3    H     H_    0.201091 0.071506 0.531231 0.125027
H4    H     H_    0.796490 0.073893 0.469877 0.125095
H5    H     H_    0.813350 0.252378 0.468585 0.137248
H6    H     H_    0.185747 0.250617 0.531404 0.136561
H7    H     H_    0.313362 0.752389 0.468580 0.137249
H8    H     H_    0.685760 0.750610 0.531401 0.136565
H9    H     H_    0.867138 0.420704 0.543788 0.140452
H10   H     H_    0.132023 0.416419 0.455899 0.139365
H11   H     H_    0.367140 0.920735 0.543782 0.140449
H12   H     H_    0.632028 0.916395 0.455897 0.139364
H13   H     H_    0.849875 0.452637 0.428984 0.132251
H14   H     H_    0.148544 0.448480 0.570757 0.134539
H15   H     H_    0.349866 0.952671 0.428977 0.132245
H16   H     H_    0.648542 0.948468 0.570754 0.134544
H17   H     H_    0.417378 0.322981 0.960539 0.120697
H18   H     H_    0.551198 0.352267 0.046436 0.136445
H19   H     H_    0.917373 0.822947 0.960586 0.120735
H20   H     H_    0.051247 0.852301 0.046406 0.136479
H21   H     H_    0.381160 0.124702 0.953144 0.105430
H22   H     H_    0.620641 0.183617 0.047725 0.107089
H23   H     H_    0.881132 0.624645 0.953065 0.105413
H24   H     H_    0.120618 0.683421 0.047745 0.107105
H25   H     H_    0.403642 0.115786 0.068333 0.110017
H26   H     H_    0.595904 0.189763 0.930409 0.117562
H27   H     H_    0.903527 0.616400 0.068234 0.110086
H28   H     H_    0.095891 0.689708 0.930440 0.117489
H29   H     H_    0.561933 0.042084 0.932704 0.129059
H30   H     H_    0.463732 0.000590 0.062647 0.132857
H31   H     H_    0.061892 0.542052 0.932694 0.129061
H32   H     H_    0.963465 0.500812 0.062772 0.132816
H33   H     H_    0.584291 0.035912 0.047842 0.139467
H34   H     H_    0.438617 0.001762 0.947779 0.146986
H35   H     H_    0.084159 0.535787 0.047834 0.139539
H36   H     H_    0.938653 0.501754 0.947850 0.146954
H37   H     H_    0.635368 0.372621 0.450608 0.152260
H38   H     H_    0.363432 0.377631 0.550181 0.146190
H39   H     H_    0.135374 0.872574 0.450622 0.152245
H40   H     H_    0.863435 0.877647 0.550185 0.146196
H41   H     H_    0.658523 0.521439 0.425709 0.106892
H42   H     H_    0.339671 0.525246 0.575166 0.106695
H43   H     H_    0.158502 0.021396 0.425711 0.106910
H44   H     H_    0.839666 0.025260 0.575169 0.106690
H45   H     H_    0.339337 0.066961 0.550053 0.098138
H46   H     H_    0.658202 0.064348 0.449170 0.111874
H47   H     H_    0.839342 0.566939 0.550056 0.098150
H48   H     H_    0.158206 0.564368 0.449173 0.111861
H49   H     H_    0.289031 0.068630 0.433962 0.108943
H50   H     H_    0.708469 0.067314 0.565869 0.109241
H51   H     H_    0.789054 0.568623 0.433964 0.108940
H52   H     H_    0.208473 0.567317 0.565873 0.109238
H53   H     H_    0.800883 0.243289 0.582083 0.121747
H54   H     H_    0.199736 0.242051 0.418199 0.120218
H55   H     H_    0.300911 0.743309 0.582081 0.121755
H56   H     H_    0.699751 0.742044 0.418204 0.120208
H57   H     H_    0.709116 0.254014 0.566126 0.109286
H58   H     H_    0.291402 0.256330 0.435272 0.109772
H59   H     H_    0.209147 0.753998 0.566136 0.109268
H60   H     H_    0.791412 0.756328 0.435272 0.109774
H61   H     H_    0.722582 0.208739 0.456044 0.115668
H62   H     H_    0.276041 0.209303 0.545046 0.111630
H63   H     H_    0.222597 0.708738 0.456053 0.115668
H64   H     H_    0.776056 0.709306 0.545047 0.111621
O1    O     O_R   0.783100 0.287550 0.345460 -0.526574
O2    O     O_R   0.216900 0.287550 0.654540 -0.523163
O3    O     O_R   0.283100 0.787550 0.345460 -0.526594
O4    O     O_R   0.716900 0.787550 0.654540 -0.523157
O5    O     O_R   0.554710 0.081900 0.170950 -0.522010
O6    O     O_R   0.445290 0.081900 0.829050 -0.518749
O7    O     O_R   0.054710 0.581900 0.170950 -0.521993
O8    O     O_R   0.945290 0.581900 0.829050 -0.518742
O9    O     O_R   0.545650 0.284910 0.163740 -0.517769
O10   O     O_R   0.454350 0.284910 0.836260 -0.513038
O11   O     O_R   0.045650 0.784910 0.163740 -0.517815
O12   O     O_R   0.954350 0.784910 0.836260 -0.512971
O13   O     O_R   0.677950 0.374280 0.185410 -0.498053
O14   O     O_R   0.322050 0.374280 0.814590 -0.509386
O15   O     O_R   0.177950 0.874280 0.185410 -0.498041
O16   O     O_R   0.822050 0.874280 0.814590 -0.509299
O17   O     O_3   0.664670 0.164660 0.254930 -0.268825
O18   O     O_3   0.335330 0.164660 0.745070 -0.284890
O19   O     O_3   0.164670 0.664660 0.254930 -0.268838
O20   O     O_3   0.835330 0.664660 0.745070 -0.284918
O21   O     O_R   0.760020 0.037400 0.337700 -0.502608
O22   O     O_R   0.239980 0.037400 0.662300 -0.500115
O23   O     O_R   0.260020 0.537400 0.337700 -0.502617
O24   O     O_R   0.739980 0.537400 0.662300 -0.500130
O25   O     O_R   0.666600 0.921990 0.332020 -0.523771
O26   O     O_R   0.333400 0.921990 0.667980 -0.528931
O27   O     O_R   0.166600 0.421990 0.332020 -0.523760
O28   O     O_R   0.833400 0.421990 0.667980 -0.528928
O29   O     O_R   0.557260 0.082670 0.312540 -0.499476
O30   O     O_R   0.442740 0.082670 0.687460 -0.493596
O31   O     O_R   0.057260 0.582670 0.312540 -0.499472
O32   O     O_R   0.942740 0.582670 0.687460 -0.493601
O33   O     O_R   0.548410 0.285740 0.316480 -0.526914
O34   O     O_R   0.451590 0.285740 0.683520 -0.523842
O35   O     O_R   0.048410 0.785740 0.316480 -0.526949
O36   O     O_R   0.951590 0.785740 0.683520 -0.523840
O37   O     O_R   0.680500 0.375040 0.327000 -0.506711
O38   O     O_R   0.319500 0.375040 0.673000 -0.517988
O39   O     O_R   0.180500 0.875040 0.327000 -0.506711
O40   O     O_R   0.819500 0.875040 0.673000 -0.517988
O41   O     O_R   0.780350 0.286720 0.192720 -0.528668
O42   O     O_R   0.219650 0.286720 0.807280 -0.519734
O43   O     O_R   0.280350 0.786720 0.192720 -0.528475
O44   O     O_R   0.719650 0.786720 0.807280 -0.519743
O45   O     O_R   0.757470 0.036630 0.196110 -0.517727
O46   O     O_R   0.242530 0.036630 0.803890 -0.502440
O47   O     O_R   0.257470 0.536630 0.196110 -0.517657
O48   O     O_R   0.742530 0.536630 0.803890 -0.502285
O49   O     O_R   0.663840 0.921160 0.179280 -0.511397
O50   O     O_R   0.336160 0.921160 0.820720 -0.513339
O51   O     O_R   0.163840 0.421160 0.179280 -0.511386
O52   O     O_R   0.836160 0.421160 0.820720 -0.513375
C97   C     C_R   0.502401 0.424583 0.931512 0.048532
C98   C     C_R   0.456246 0.514583 0.905440 -0.058627
C99   C     C_R   0.479401 0.618036 0.874960 -0.129176
C100  C     C_R   0.549010 0.634580 0.870848 -0.116620
C101  C     C_R   0.595529 0.548047 0.897620 -0.104703
C102  C     C_R   0.572747 0.443653 0.927779 -0.102333
H65   H     H_    0.402029 0.504969 0.908829 0.121021
H66   H     H_    0.443312 0.685775 0.854892 0.121689
H67   H     H_    0.567029 0.715098 0.847604 0.126502
H68   H     H_    0.649432 0.563008 0.895593 0.144824
H69   H     H_    0.610440 0.380731 0.949832 0.101080
C103  C     C_R   0.457036 0.399795 0.078646 0.044909
C104  C     C_R   0.475211 0.522810 0.079327 -0.091666
C105  C     C_R   0.447796 0.603042 0.122929 -0.122396
C106  C     C_R   0.403186 0.561350 0.167659 -0.085157
C107  C     C_R   0.384001 0.440446 0.166667 -0.099590
C108  C     C_R   0.409111 0.361081 0.121644 -0.069459
H70   H     H_    0.513259 0.556150 0.048460 0.114950
H71   H     H_    0.463149 0.696582 0.123785 0.110142
H72   H     H_    0.384495 0.622174 0.203830 0.152295
H73   H     H_    0.351458 0.405461 0.202605 0.133075
H74   H     H_    0.394527 0.268861 0.125572 0.090245
C109  C     C_R   0.002330 0.924597 0.931475 0.048558
C110  C     C_R   0.956131 0.014616 0.905511 -0.058700
C111  C     C_R   0.979217 0.118048 0.874959 -0.129134
C112  C     C_R   0.048799 0.134492 0.870605 -0.116697
C113  C     C_R   0.095364 0.047930 0.897257 -0.104848
C114  C     C_R   0.072651 0.943610 0.927548 -0.102193
H75   H     H_    0.901934 0.005052 0.909062 0.120888
H76   H     H_    0.943093 0.185824 0.855002 0.121776
H77   H     H_    0.066765 0.214961 0.847269 0.126428
H78   H     H_    0.149250 0.062796 0.895022 0.145015
H79   H     H_    0.110379 0.880681 0.949516 0.101070
C115  C     C_R   0.957077 0.899887 0.078640 0.044922
C116  C     C_R   0.975063 0.022954 0.079057 -0.091974
C117  C     C_R   0.947545 0.103338 0.122493 -0.122475
C118  C     C_R   0.903050 0.061758 0.167356 -0.085278
C119  C     C_R   0.884093 0.940784 0.166667 -0.099702
C120  C     C_R   0.909305 0.861240 0.121822 -0.069262
H80   H     H_    0.013045 0.056262 0.048112 0.115073
H81   H     H_    0.962731 0.196932 0.123117 0.110232
H82   H     H_    0.884291 0.122728 0.203403 0.152604
H83   H     H_    0.851646 0.905910 0.202727 0.133081
H84   H     H_    0.894981 0.768975 0.126071 0.090278
C121  C     C_R   0.626469 0.473758 0.571508 0.037206
C122  C     C_R   0.577557 0.564815 0.557175 -0.086067
C123  C     C_R   0.527400 0.585280 0.600366 -0.117175
C124  C     C_R   0.525349 0.515561 0.658832 -0.078541
C125  C     C_R   0.572336 0.423224 0.673158 -0.063200
C126  C     C_R   0.621048 0.399612 0.628961 -0.059167
H85   H     H_    0.581234 0.625437 0.514851 0.081318
H86   H     H_    0.491852 0.658443 0.590044 0.093934
H87   H     H_    0.487779 0.533721 0.693394 0.120079
H88   H     H_    0.571924 0.370840 0.719457 0.140976
H89   H     H_    0.657485 0.330323 0.644314 0.090367
C127  C     C_R   0.372978 0.482630 0.431268 0.044787
C128  C     C_R   0.420768 0.576419 0.446607 -0.085453
C129  C     C_R   0.473171 0.597409 0.405924 -0.118674
C130  C     C_R   0.479495 0.523874 0.350075 -0.089200
C131  C     C_R   0.433530 0.429214 0.335257 -0.091495
C132  C     C_R   0.381495 0.406977 0.375809 -0.065955
H90   H     H_    0.415185 0.637547 0.488098 0.077065
H91   H     H_    0.507699 0.672753 0.416543 0.093114
H92   H     H_    0.519471 0.540864 0.317871 0.120689
H93   H     H_    0.437313 0.373141 0.291431 0.130452
H94   H     H_    0.345966 0.335885 0.359768 0.084571
C133  C     C_R   0.126469 0.973728 0.571517 0.037211
C134  C     C_R   0.077565 0.064794 0.557210 -0.086052
C135  C     C_R   0.027421 0.085253 0.600417 -0.117180
C136  C     C_R   0.025379 0.015524 0.658878 -0.078554
C137  C     C_R   0.072354 0.923169 0.673174 -0.063220
C138  C     C_R   0.121049 0.899560 0.628959 -0.059177
H95   H     H_    0.081236 0.125425 0.514892 0.081313
H96   H     H_    0.991876 0.158415 0.590109 0.093945
H97   H     H_    0.987821 0.033676 0.693453 0.120116
H98   H     H_    0.071940 0.870762 0.719460 0.140961
H99   H     H_    0.157469 0.830246 0.644286 0.090348
C139  C     C_R   0.872985 0.982659 0.431282 0.044783
C140  C     C_R   0.920773 0.076442 0.446638 -0.085473
C141  C     C_R   0.973186 0.097442 0.405970 -0.118662
C142  C     C_R   0.979526 0.023914 0.350123 -0.089126
C143  C     C_R   0.933565 0.929257 0.335290 -0.091479
C144  C     C_R   0.881516 0.907013 0.375825 -0.065963
H100  H     H_    0.915183 0.137555 0.488135 0.077073
H101  H     H_    0.007711 0.172784 0.416601 0.093110
H102  H     H_    0.019512 0.040908 0.317932 0.120693
H103  H     H_    0.937360 0.873190 0.291466 0.130385
H104  H     H_    0.845994 0.835917 0.359779 0.084575

loop_
_geom_bond_atom_site_label_1
_geom_bond_atom_site_label_2
_ccdc_geom_bond_type
C133  C134  A    
Cr2   O18   S    
Cr4   O20   S    
C109  C114  A    
C76   O52   A    
C129  C130  A    
C104  H70   S    
Cr8   O32   S    
C15   H55   S    
C131  C132  A    
Cr5   O17   S    
C6    H38   S    
C123  C124  A    
Cr10  O38   S    
Cr3   O23   S    
C5    H41   S    
C49   C78   S    
Cr1   O21   S    
C37   C42   S    
C127  C132  A    
Cr7   O51   S    
C55   C74   S    
C40   C43   S    
C35   C36   S    
C124  C125  A    
C6    C94   S    
C25   H51   S    
C77   O9    A    
C26   H52   S    
Cr11  O35   S    
C44   H27   S    
C32   H64   S    
C134  H95   S    
C69   O1    A    
C41   C49   S    
C100  C101  A    
C11   C27   S    
Cr4   O24   S    
Cr1   O1    S    
C37   H34   S    
Cr12  O12   S    
C140  H100  S    
Cr9   O17   S    
Cr10  O14   S    
C21   C29   S    
C3    O23   A    
C23   C31   S    
C1    O21   A    
C24   C32   S    
C101  C102  A    
C66   C82   S    
C99   C100  A    
C75   O47   A    
C16   C20   S    
C48   O36   A    
C33   H17   S    
C143  C144  A    
C48   C87   S    
C32   H8    S    
C35   H19   S    
C82   O14   A    
C71   O39   A    
Cr2   O46   S    
C35   C51   S    
C107  H73   S    
C79   O7    A    
C50   C77   S    
C119  H83   S    
Cr6   O50   S    
C128  H90   S    
C4    O24   A    
C29   H5    S    
Cr4   O44   S    
C1    C20   S    
C56   C73   S    
C2    C19   S    
C130  H92   S    
C59   C63   S    
Cr12  O16   S    
C125  H88   S    
C12   H46   S    
Cr10  O34   S    
C85   C90   T    
C57   C61   S    
C33   C97   S    
C97   C102  A    
C73   O49   A    
C60   C64   S    
C118  H82   S    
Cr5   O29   S    
C113  H78   S    
C39   H23   S    
C10   C18   S    
C37   H21   S    
C94   C127  S    
C93   C121  S    
C29   H61   S    
C25   H13   S    
C142  H102  S    
Cr8   O20   S    
C39   C51   S    
C67   C83   S    
Cr12  O36   S    
C16   H56   S    
C111  C112  A    
C121  C126  A    
C8    H44   S    
C118  C119  A    
Cr5   O25   S    
C101  H68   S    
C103  C104  A    
C144  H104  S    
C135  H96   S    
C59   C67   T    
C51   C80   S    
C53   C61   T    
C81   O41   A    
C55   C63   T    
C56   C64   T    
C36   C115  S    
C14   H58   S    
C52   C79   S    
C36   C52   S    
C44   C52   S    
Cr1   O17   S    
C20   C96   S    
C129  H91   S    
C28   H50   S    
C104  C105  A    
Cr8   O28   S    
C15   H59   S    
C36   H20   S    
C96   C139  S    
C31   H7    S    
Cr12  O40   S    
C97   C98   A    
C7    H39   S    
C123  H86   S    
C5    H37   S    
C73   O45   A    
C126  H89   S    
C127  C128  A    
C38   C41   S    
C91   C92   S    
C110  H75   S    
C105  H71   S    
C77   O5    A    
C21   C69   S    
C78   O10   A    
C103  C108  A    
C135  C136  A    
C88   C91   T    
C74   O46   A    
C5    C21   S    
C70   O2    A    
C100  H67   S    
C42   C50   S    
Cr6   O6    S    
C38   H33   S    
C17   C93   S    
Cr10  O18   S    
C19   C95   S    
C141  H101  S    
C24   C72   S    
C46   O34   A    
C21   C25   S    
C22   C30   S    
C122  H85   S    
C1    O25   A    
C24   C28   S    
C117  C118  A    
C28   H16   S    
C15   C31   S    
C39   C44   S    
C16   C32   S    
C48   O32   A    
C143  H103  S    
C13   C17   S    
C45   C86   S    
C117  H81   S    
C136  H97   S    
C31   H63   S    
C7    C23   S    
C107  C108  A    
C8    C24   S    
C79   O11   A    
C80   O12   A    
Cr2   O42   S    
C43   H28   S    
C11   H45   S    
C54   C75   S    
C4    O28   A    
Cr7   O19   S    
C39   H36   S    
C9    H47   S    
C98   C99   A    
C40   H35   S    
Cr11  O19   S    
C130  C131  A    
Cr12  O20   S    
C70   O38   A    
Cr9   O9    S    
C87   C92   T    
Cr8   O52   S    
C93   H1    S    
C58   C62   S    
C42   H30   S    
C106  C107  A    
C9    C25   S    
C113  C114  A    
C15   C19   S    
C11   C19   S    
C12   C28   S    
C38   H22   S    
C13   C29   S    
C136  C137  A    
Cr11  O39   S    
C33   C49   S    
C6    C22   S    
Cr9   O37   S    
Cr2   O22   S    
C30   H62   S    
Cr4   O4    S    
C41   H29   S    
C46   C85   S    
C11   H11   S    
C111  H76   S    
C44   H32   S    
Cr1   O41   S    
C121  C122  A    
C8    H40   S    
C114  H79   S    
C120  H84   S    
C108  H74   S    
C68   C84   S    
C23   C71   S    
C116  H80   S    
C137  C138  A    
C54   C62   T    
C112  C113  A    
C139  C144  A    
C94   H2    S    
C2    O22   A    
C14   H54   S    
C37   C49   S    
C13   H57   S    
C34   H18   S    
C47   O31   A    
C102  H69   S    
C119  C120  A    
C7    H43   S    
C4    C17   S    
Cr3   O47   S    
C131  H93   S    
Cr1   O45   S    
C84   O16   A    
C53   C76   S    
C27   H49   S    
C110  C111  A    
C30   H6    S    
Cr5   O49   S    
C105  C106  A    
C45   O33   A    
C78   O6    A    
C57   C65   T    
C86   C89   T    
C83   O43   A    
Cr9   O33   S    
C137  H98   S    
C74   O50   A    
C133  C138  A    
Cr6   O30   S    
Cr3   O19   S    
C43   C51   S    
C76   O48   A    
Cr6   O18   S    
C71   O3    A    
C115  C116  A    
Cr7   O7    S    
C72   O4    A    
Cr5   O5    S    
C6    H42   S    
C46   O30   A    
C60   C68   T    
C142  C143  A    
C22   C26   S    
C122  C123  A    
C26   H14   S    
C89   C90   S    
C124  H87   S    
C9    H9    S    
C14   C18   S    
C115  C120  A    
C8    C96   S    
C34   C103  S    
Cr8   O8    S    
C96   H4    S    
C12   C20   S    
C42   H25   S    
C80   O8    A    
C134  C135  A    
Cr6   O26   S    
Cr2   O2    S    
C98   H65   S    
Cr11  O15   S    
C3    C18   S    
Cr9   O13   S    
Cr10  O10   S    
C12   H12   S    
C65   C81   S    
C58   C66   T    
C140  C141  A    
C3    O27   A    
C43   H31   S    
C106  H72   S    
C23   C27   S    
C10   C26   S    
C99   H66   S    
C40   H24   S    
C75   O51   A    
C82   O42   A    
C83   O15   A    
C14   C30   S    
C81   O13   A    
C41   H26   S    
C138  H99   S    
C34   C50   S    
C10   H48   S    
C27   H15   S    
C128  C129  A    
C40   C52   S    
C132  H94   S    
Cr11  O11   S    
C10   H10   S    
C33   C34   S    
Cr3   O3    S    
Cr7   O27   S    
Cr4   O48   S    
C9    C17   S    
C141  C142  A    
C95   C133  S    
C18   C94   S    
C69   O37   A    
C116  C117  A    
C112  H77   S    
C139  C140  A    
C2    O26   A    
C5    C93   S    
C109  C110  A    
C13   H53   S    
C38   C50   S    
C7    C95   S    
C35   C109  S    
C47   O35   A    
C47   C88   S    
C95   H3    S    
C72   O40   A    
Cr3   O43   S    
C16   H60   S    
C22   C70   S    
Cr7   O31   S    
C45   O29   A    
C84   O44   A    
C125  C126  A    
