data_mof_unit_7120.cif
_audit_creation_date              2012-12-10T19:11:27-0500
_audit_creation_method            fapswitch 2.2
_symmetry_space_group_name_H-M    P1
_symmetry_Int_Tables_number       1
_space_group_crystal_system       triclinic
_cell_length_a                    10.635114
_cell_length_b                    9.708902
_cell_length_c                    10.495589
_cell_angle_alpha                 89.629205
_cell_angle_beta                  89.99772
_cell_angle_gamma                 89.935905
_cell_volume                      1083.701604

loop_
_atom_site_label
_atom_site_type_symbol
_atom_type_description
_atom_site_fract_x
_atom_site_fract_y
_atom_site_fract_z
_atom_type_partial_charge
C1    C     C_R   0.257663 0.499916 0.499123 0.862829
C2    C     C_3   0.500019 0.501523 0.122171 0.029410
C3    C     C_3   0.072189 0.572329 0.618295 -0.496634
C4    C     C_3   0.071697 0.348761 0.499680 -0.431909
C5    C     C_3   0.928178 0.576483 0.616467 -0.432955
C6    C     C_3   0.928913 0.348539 0.500617 -0.400045
C7    C     C_3   0.070919 0.573353 0.372301 0.830666
C8    C     C_3   0.121180 0.499742 0.496560 0.065334
C9    C     C_3   0.878648 0.498924 0.498178 0.075819
C10   C     C_3   0.925229 0.571460 0.375094 -0.405838
C11   C     C_3   0.377341 0.081637 0.453831 -0.241905
C12   C     C_3   0.377379 0.919228 0.453742 -0.212164
C13   C     C_3   0.598022 0.081710 0.411380 -0.233443
C14   C     C_3   0.598043 0.919184 0.411406 -0.239873
C15   C     C_3   0.524019 0.080253 0.626230 -0.234066
C16   C     C_3   0.523947 0.918023 0.626250 -0.234759
C17   C     C_R   0.499969 0.500510 0.257106 0.862790
C18   C     C_R   0.742494 0.499666 0.499862 0.867877
C19   C     C_R   0.500426 0.499479 0.742772 0.866619
C20   C     C_3   0.496489 0.631500 0.039205 -0.139198
C21   C     C_3   0.398609 0.431627 0.042575 -0.179028
C22   C     C_3   0.395050 0.561453 0.956923 -0.168648
C23   C     C_3   0.500544 0.498408 0.877690 0.026435
C24   C     C_3   0.602007 0.568265 0.957242 -0.184396
C25   C     C_3   0.504119 0.368435 0.960635 -0.151174
C26   C     C_3   0.605530 0.438465 0.042949 -0.180117
H1    H     H_    0.309520 0.611156 0.916903 0.131113
H2    H     H_    0.886928 0.678124 0.369435 0.144901
H3    H     H_    0.887618 0.516478 0.290381 0.169270
H4    H     H_    0.355400 0.121200 0.356614 0.150984
H5    H     H_    0.355635 0.881221 0.356431 0.176120
H6    H     H_    0.300596 0.118579 0.516982 0.145451
H7    H     H_    0.300579 0.881405 0.516751 0.155761
H8    H     H_    0.583027 0.120668 0.312654 0.149309
H9    H     H_    0.583076 0.881531 0.312705 0.144969
H10   H     H_    0.615856 0.118470 0.662366 0.141544
H11   H     H_    0.615720 0.879026 0.662513 0.143601
H12   H     H_    0.451265 0.117688 0.693876 0.144233
H13   H     H_    0.451064 0.880050 0.693865 0.148351
H14   H     H_    0.692197 0.119311 0.441146 0.143248
H15   H     H_    0.692229 0.880948 0.441217 0.146665
H16   H     H_    0.493338 0.738668 0.075406 0.131936
H17   H     H_    0.316096 0.375817 0.081934 0.145123
H18   H     H_    0.684655 0.623519 0.917426 0.125886
H19   H     H_    0.507290 0.261251 0.924480 0.128200
H20   H     H_    0.691019 0.388753 0.083048 0.127325
H21   H     H_    0.109974 0.678618 0.626741 0.175048
H22   H     H_    0.105941 0.290322 0.415538 0.204242
H23   H     H_    0.104471 0.515094 0.704632 0.184465
H24   H     H_    0.106368 0.293858 0.586407 0.176938
H25   H     H_    0.890808 0.528406 0.705324 0.174684
H26   H     H_    0.895154 0.293565 0.587612 0.179130
H27   H     H_    0.896189 0.685721 0.614389 0.174702
H28   H     H_    0.894252 0.290993 0.416123 0.178277
N1    N     N_3   0.499750 0.138610 0.497240 -0.030819
N2    N     N_3   0.499750 0.861390 0.497240 -0.038721
O1    O     O_R   0.314910 0.616040 0.499970 -0.603531
O2    O     O_R   0.314910 0.383960 0.499970 -0.639212
O3    O     O_R   0.500080 0.616020 0.313900 -0.626775
O4    O     O_R   0.500080 0.383980 0.313900 -0.629227
O5    O     O_R   0.685320 0.616040 0.499930 -0.635853
O6    O     O_R   0.685320 0.383960 0.499930 -0.635415
O7    O     O_R   0.500150 0.616060 0.686000 -0.634075
O8    O     O_R   0.500150 0.383940 0.686000 -0.634463
Zn1   Zn    Zn3+2 0.500150 0.654960 0.499940 0.910050
Zn2   Zn    Zn3+2 0.500150 0.345040 0.499940 0.897885
O9    O     O_3   0.114915 0.710411 0.361886 -0.797619
H29   H     H_    0.075924 0.766243 0.430103 0.300625
O10   O     O_3   0.110715 0.500451 0.263785 -0.796947
H30   H     H_    0.201142 0.521078 0.250200 0.330991

loop_
_geom_bond_atom_site_label_1
_geom_bond_atom_site_label_2
_ccdc_geom_bond_type
C7    O10   S    
C7    C10   S    
C19   C23   S    
C23   C24   S    
O7    Zn1   S    
C18   O5    A    
C5    C9    S    
N2    Zn1   S    
C25   H19   S    
C3    H21   S    
C1    C8    S    
C9    C10   S    
C19   O8    A    
C20   H16   S    
C4    C8    S    
C16   H11   S    
C11   C12   S    
C13   N1    S    
N1    Zn2   S    
C2    C21   S    
C16   N2    S    
C3    H23   S    
O4    Zn2   S    
C7    C8    S    
C2    C26   S    
C15   N1    S    
C21   H17   S    
C21   C22   S    
O3    Zn1   S    
C2    C17   S    
C12   H7    S    
C10   H3    S    
O2    Zn2   S    
C12   N2    S    
C15   H12   S    
C19   O7    A    
C9    C18   S    
C17   O3    A    
C14   H15   S    
C5    H27   S    
O9    H29   S    
C6    H28   S    
C11   H6    S    
C1    O1    A    
C22   H1    S    
C23   C25   S    
C12   H5    S    
O10   H30   S    
C24   H18   S    
C10   H2    S    
C20   C22   S    
C17   O4    A    
C7    O9    S    
C15   C16   S    
O5    Zn1   S    
C15   H10   S    
C13   H8    S    
C6    C9    S    
C11   N1    S    
C18   O6    A    
C4    C6    S    
C3    C8    S    
C4    H22   S    
O1    Zn1   S    
C14   H9    S    
O6    Zn2   S    
C22   C23   S    
C5    H25   S    
C13   H14   S    
C21   C25   S    
C16   H13   S    
C13   C14   S    
C6    H26   S    
C25   C26   S    
C1    O2    A    
C26   H20   S    
C2    C20   S    
C20   C24   S    
C14   N2    S    
C24   C26   S    
C11   H4    S    
C4    H24   S    
C3    C5    S    
O8    Zn2   S    
