data_mof_unit_36633.cif
_audit_creation_date              2013-03-05T16:00:51-0500
_audit_creation_method            fapswitch 2.2
_symmetry_space_group_name_H-M    P1
_symmetry_Int_Tables_number       1
_space_group_crystal_system       triclinic
_cell_length_a                    8.242009
_cell_length_b                    12.839207
_cell_length_c                    18.862102
_cell_angle_alpha                 100.837961
_cell_angle_beta                  91.618119
_cell_angle_gamma                 98.984824
_cell_volume                      1932.92972993

loop_
_atom_site_label
_atom_site_type_symbol
_atom_site_description
_atom_site_fract_x
_atom_site_fract_y
_atom_site_fract_z
_atom_type_partial_charge
P1    P     P_3+3 0.041040 0.394770 0.336330 0.550676
O1    O     O_2   0.873090 0.425890 0.325140 -0.283894
O2    O     O_3   0.122420 0.434370 0.414380 -0.370970
O3    O     O_3   0.659500 0.627100 0.368810 -0.334663
O4    O     O_2   0.764687 0.532906 0.245478 -0.356372
O5    O     O_3   0.981540 0.255325 0.315195 -0.583432
O6    O     O_3   0.723916 0.728892 0.250751 -0.493206
H1    H     H_    0.676633 0.877260 0.295026 0.148789
C1    C     C_3   0.554771 0.821941 0.188525 -1.010790
H2    H     H_    0.661155 0.836601 0.154833 0.312420
H3    H     H_    0.465531 0.753636 0.159767 0.240311
P2    P     P_3+3 0.672880 0.754030 0.556100 0.457160
P3    P     P_3+3 0.124410 0.821141 0.403223 0.523671
O7    O     O_2   0.848200 0.768190 0.534530 -0.405607
O8    O     O_3   0.081160 0.685950 0.404810 -0.387295
O9    O     O_2   0.004604 0.875432 0.453583 -0.312521
O10   O     O_3   0.674714 0.800478 0.649835 -0.598580
O11   O     O_3   0.061211 0.832737 0.316157 -0.428585
C2    C     C_3   0.171359 0.790673 0.267422 0.439033
H4    H     H_    0.219656 0.721181 0.282769 0.023802
H5    H     H_    0.274267 0.856198 0.264865 0.037710
C3    C     C_3   0.085617 0.750429 0.192463 -0.826990
H6    H     H_    0.992258 0.678171 0.192524 0.268736
H7    H     H_    0.025219 0.813267 0.174962 0.294602
C4    C     C_3   0.239455 0.781153 0.617108 0.457412
H8    H     H_    0.334396 0.738422 0.590148 0.089840
H9    H     H_    0.128684 0.767457 0.579938 0.118753
C5    C     C_3   0.305325 0.901186 0.635073 -0.954673
H10   H     H_    0.426874 0.915231 0.664889 0.267489
H11   H     H_    0.318526 0.934183 0.585095 0.222937
H12   H     H_    0.220230 0.945157 0.668674 0.312132
Ba1   Ba    Ba6+2 0.852780 0.548340 0.465070 1.653318
C6    C     C_3   0.102810 0.201354 0.336194 0.692381
H13   H     H_    0.222270 0.255539 0.350272 0.029770
C7    C     C_3   0.132331 0.111367 0.274029 -0.120369
H14   H     H_    0.191899 0.147846 0.230435 0.155389
H15   H     H_    0.213493 0.060423 0.293684 0.141985
C8    C     C_3   0.788551 0.761204 0.689894 0.795309
H16   H     H_    0.859989 0.705918 0.656568 0.041352
C9    C     C_3   0.695410 0.704073 0.743847 -0.942727
H17   H     H_    0.782488 0.686029 0.784056 0.222081
H18   H     H_    0.620650 0.628268 0.714477 0.260514
H19   H     H_    0.612040 0.755200 0.773267 0.268650
P4    P     P_3+3 0.148670 0.605320 0.663680 0.466521
O12   O     O_2   0.316610 0.574140 0.674900 -0.361214
O13   O     O_3   0.067290 0.565720 0.585630 -0.413307
O14   O     O_3   0.530210 0.372990 0.631200 -0.377227
O15   O     O_3   0.200043 0.745691 0.681269 -0.541953
P5    P     P_3+3 0.063151 0.177265 0.599779 0.527134
O16   O     O_3   0.611340 0.366290 0.463630 -0.332704
O17   O     O_3   0.108550 0.314140 0.595200 -0.350141
O18   O     O_2   0.189903 0.121527 0.554155 -0.343029
O19   O     O_3   0.110302 0.161634 0.687835 -0.514545
Ba2   Ba    Ba6+2 0.337060 0.451750 0.534940 1.627856
P6    P     P_3+3 0.641949 0.607258 0.274702 0.534489
C10   C     C_3   0.611242 0.801137 0.261692 0.505059
H20   H     H_    0.503860 0.775632 0.292270 -0.062427
H21   H     H_    0.488408 0.890672 0.194505 0.239602
O20   O     O_3   0.578370 0.633800 0.536380 -0.381520
C11   C     C_3   0.582850 0.197867 0.304621 0.788901
H22   H     H_    0.706722 0.214992 0.331741 0.092570
C12   C     C_3   0.568547 0.096279 0.247168 -0.904700
H23   H     H_    0.441583 0.072152 0.222314 0.232861
H24   H     H_    0.650408 0.103842 0.203044 0.319572
H25   H     H_    0.599553 0.032596 0.274644 0.227323
P7    P     P_3+3 0.521397 0.227790 0.441885 0.462430
O21   O     O_2   0.341510 0.231850 0.465510 -0.321136
O22   O     O_3   0.462511 0.175146 0.351604 -0.687634
H26   H     H_    0.176575 0.727942 0.152634 0.186884
C13   C     C_3   0.064415 0.247438 0.736711 0.447814
H27   H     H_    0.143203 0.324315 0.732768 0.141805
H28   H     H_    0.933735 0.254082 0.726499 -0.000420
C14   C     C_3   0.086309 0.228356 0.813310 -0.869149
H29   H     H_    0.217401 0.225227 0.826428 0.283659
H30   H     H_    0.047380 0.294559 0.852343 0.206288
H31   H     H_    0.010009 0.151219 0.818647 0.279025
P8    P     P_3+3 0.549301 0.391326 0.724675 0.437965
C15   C     C_3   0.561358 0.187826 0.703655 0.453577
H32   H     H_    0.673630 0.221285 0.679046 0.006382
O23   O     O_2   0.418392 0.458452 0.755258 -0.405911
O24   O     O_3   0.488057 0.266147 0.748177 -0.516407
H33   H     H_    0.470989 0.143413 0.659249 0.128470
H34   H     H_    0.697137 0.153766 0.794233 0.266888
C16   C     C_3   0.610080 0.109686 0.748530 -0.961560
H35   H     H_    0.671114 0.048573 0.714476 0.248265
H36   H     H_    0.499341 0.068832 0.770489 0.284254
C17   C     C_R   0.987072 0.465114 0.048041 -0.026604
C18   C     C_R   0.891233 0.406892 0.092461 -0.238126
C19   C     C_R   0.758555 0.439865 0.955003 -0.216780
C20   C     C_R   0.926047 0.473258 0.978165 0.088508
C21   C     C_R   0.703442 0.435832 0.884323 -0.142203
C22   C     C_R   0.811410 0.468556 0.833771 -0.013383
C23   C     C_R   0.976080 0.514803 0.857170 -0.006396
C24   C     C_R   0.034512 0.515806 0.929643 0.039371
C25   C     C_R   0.758878 0.456428 0.760526 0.175858
C26   C     C_R   0.867941 0.492561 0.711538 -0.523013
C27   C     C_R   0.025813 0.548313 0.734072 0.232122
C28   C     C_R   0.081784 0.559474 0.808215 -0.043730
C29   C     C_R   0.154048 0.503489 0.070668 0.045682
C30   C     C_R   0.212922 0.496806 0.141918 -0.011844
C31   C     C_R   0.107641 0.446231 0.189041 -0.129620
C32   C     C_R   0.956026 0.388797 0.157116 0.441405
H37   H     H_    0.825910 0.482206 0.655398 0.187066
H38   H     H_    0.574192 0.406731 0.870286 0.184381
C33   C     C_R   0.239038 0.613193 0.835499 -0.023991
C34   C     C_R   0.298994 0.609780 0.905121 -0.191981
C35   C     C_R   0.201268 0.556997 0.952498 0.034656
C36   C     C_R   0.263028 0.546394 0.022222 0.072386
C37   C     C_R   0.432183 0.570861 0.043787 -0.217528
C38   C     C_R   0.379560 0.535520 0.164346 0.009215
C39   C     C_R   0.489283 0.563283 0.112689 -0.164189
C40   C     C_R   0.430862 0.545885 0.237725 0.206315
C41   C     C_R   0.319252 0.510671 0.286459 -0.373576
C42   C     C_R   0.162438 0.453095 0.263695 0.200462
H39   H     H_    0.319857 0.656433 0.802935 0.166285
H40   H     H_    0.620197 0.584939 0.125961 0.175966
H41   H     H_    0.359031 0.522863 0.342992 0.175515
H42   H     H_    0.665526 0.416528 0.990596 0.147908
H43   H     H_    0.773222 0.359695 0.072828 0.178742
H44   H     H_    0.422443 0.651340 0.921091 0.133069
H45   H     H_    0.524218 0.595147 0.007994 0.143353
C43   C     C_R   0.753395 0.181273 0.535695 -0.366965
C44   C     C_R   0.431641 0.803882 0.464656 -0.481486
C45   C     C_R   0.401813 0.979926 0.443436 -0.226164
C46   C     C_R   0.339678 0.871543 0.436630 0.134656
C47   C     C_R   0.579419 0.845498 0.506220 0.307758
C48   C     C_R   0.641783 0.958156 0.515628 -0.040133
C49   C     C_R   0.551666 0.025181 0.482677 -0.040506
C50   C     C_R   0.610454 0.136917 0.492319 0.199957
C51   C     C_R   0.850512 0.116433 0.563067 0.249811
C52   C     C_R   0.791947 0.006183 0.555741 -0.189306
H46   H     H_    0.326464 0.028816 0.421157 0.204056
H47   H     H_    0.867265 0.959478 0.580201 0.188605
H48   H     H_    0.796759 0.266910 0.543355 0.170621
H49   H     H_    0.381078 0.719603 0.459252 0.159252
N1    N     N_R   0.046992 0.161001 0.399555 0.224913
O25   O     O_R   0.003475 0.059079 0.398965 -0.383541
O26   O     O_R   0.012376 0.230936 0.453459 -0.384955
Br1   Br    Br    0.935696 0.015325 0.232078 -0.499489
Br2   Br    Br    0.935334 0.884667 0.744546 -0.555468
N2    N     N_R   0.549424 0.289619 0.274566 0.229632
O27   O     O_R   0.504016 0.280313 0.206663 -0.413575
O28   O     O_R   0.544751 0.379349 0.318860 -0.391751
Br3   Br    Br    0.879134 0.248329 0.169649 -0.477385

loop_
_geom_bond_atom_site_label_1
_geom_bond_atom_site_label_2
_geom_bond_distance
_ccdc_geom_bond_type
P7    O22   1.734996 S    
C17   C18   1.404715 A    
C30   C38   1.409690 A    
C47   C48   1.433177 A    
P6    C40   1.852239 S    
C14   H29   1.110153 S    
C25   C26   1.398183 A    
C15   O24   1.407924 S    
O6    P6    1.747097 S    
C21   H38   1.080309 S    
C49   C50   1.416239 A    
H1    C10   1.107370 S    
C27   C28   1.434111 A    
O8    Ba1   2.791754 S    
C10   H20   1.110182 S    
C4    C5    1.522017 S    
C29   C36   1.423506 A    
C23   C24   1.433543 A    
C28   C33   1.403578 A    
P3    O11   1.748814 S    
H34   C16   1.110428 S    
O1    Ba1   2.830665 S    
C5    H10   1.107262 S    
C7    H15   1.107521 S    
C16   H36   1.110517 S    
C1    H21   1.098836 S    
C37   C39   1.395453 A    
C8    H16   1.108743 S    
O2    Ba2   2.794497 S    
C44   C46   1.401550 A    
P2    C47   1.874792 S    
C34   C35   1.415806 A    
C36   C37   1.411026 A    
C45   H46   1.078194 S    
C11   C12   1.517454 S    
P1    O1    1.519308 D    
C38   C39   1.404984 A    
C43   H48   1.082649 S    
C12   H24   1.094973 S    
C38   C40   1.411484 A    
C7    Br1   1.926044 S    
C17   C20   1.425424 A    
P2    O20   1.587494 S    
C9    H19   1.111950 S    
C2    H4    1.113497 S    
P5    O17   1.757647 S    
P2    O10   1.755283 S    
C35   C36   1.434715 A    
C13   H27   1.109768 S    
C19   C21   1.385216 A    
C1    H2    1.110405 S    
C43   C50   1.393724 A    
C45   C49   1.404779 A    
P7    C50   1.857538 S    
P3    C46   1.840827 S    
C9    H18   1.106558 S    
P7    O21   1.565948 D    
P2    Ba1   3.432578 S    
C31   C42   1.448992 A    
C14   H30   1.109364 S    
C32   Br3   1.876672 S    
O6    C10   1.404736 S    
O19   C13   1.405155 S    
Ba1   Ba2   4.590211 S    
C40   C41   1.403479 A    
P4    O13   1.559470 S    
C20   C24   1.420196 A    
C17   C29   1.412391 A    
Ba2   O20   2.817936 S    
C24   C35   1.417140 A    
C13   H28   1.107979 S    
P1    O5    1.746742 S    
C31   C32   1.403780 A    
C2    C3    1.523227 S    
C16   H35   1.110543 S    
N1    O26   1.294023 A    
C21   C22   1.399783 A    
C15   H32   1.109667 S    
O11   C2    1.405157 S    
C44   C47   1.403164 A    
Ba2   O21   2.886560 S    
C4    H8    1.106145 S    
P8    C25   1.846655 S    
C22   C25   1.408784 A    
C44   H49   1.081776 S    
C11   H22   1.100210 S    
P1    O2    1.559470 S    
C7    H14   1.110093 S    
C12   H23   1.107786 S    
C15   C16   1.519933 S    
C11   N2    1.459003 S    
C1    H3    1.096095 S    
P4    C27   1.879852 S    
C15   H33   1.110839 S    
C29   C30   1.438228 A    
P8    O24   1.749733 S    
P5    O18   1.548144 D    
C26   C27   1.396267 A    
O13   Ba2   2.934149 S    
C13   C14   1.520629 S    
C6    H13   1.107121 S    
C1    C10   1.527686 S    
O16   Ba2   2.918041 S    
C18   H43   1.077746 S    
O16   P7    1.782327 S    
C4    O15   1.400226 S    
Ba1   O16   2.818555 S    
O3    Ba1   2.808409 S    
O14   Ba2   2.807763 S    
C41   H41   1.081898 S    
C9    H17   1.109604 S    
P2    O7    1.505170 D    
O12   Ba2   2.831033 S    
P3    O8    1.722686 S    
O3    P6    1.743746 S    
C14   H31   1.110397 S    
C3    H7    1.106350 S    
P3    O9    1.543430 D    
P1    C42   1.915234 S    
O14   P8    1.733636 S    
C48   C49   1.432892 A    
P4    O12   1.519655 D    
C41   C42   1.397196 A    
P5    C51   1.860520 S    
P8    O23   1.542178 D    
C3    H26   1.107974 S    
C12   H25   1.104342 S    
C34   H44   1.078593 S    
Ba1   O13   2.793856 S    
O4    P6    1.540695 D    
C5    H12   1.107480 S    
O7    Ba1   2.886329 S    
N1    O25   1.299569 A    
C52   H47   1.077932 S    
C18   C32   1.391023 A    
C4    H9    1.106044 S    
C33   C34   1.400862 A    
O5    C6    1.390424 S    
C33   H39   1.079356 S    
C39   H40   1.081240 S    
O17   Ba2   2.792385 S    
N2    O28   1.296331 A    
C51   C52   1.401802 A    
N2    O27   1.302390 A    
C8    C9    1.520527 S    
C6    N1    1.448402 S    
C37   H45   1.078257 S    
P5    O19   1.750211 S    
C5    H11   1.105249 S    
C22   C23   1.416084 A    
C6    C7    1.537349 S    
O10   C8    1.398738 S    
P1    Ba1   3.399960 S    
O2    Ba1   2.933244 S    
C48   C52   1.420488 A    
P4    Ba2   3.400568 S    
C19   H42   1.077677 S    
C11   O22   1.382275 S    
C26   H37   1.082094 S    
C8    Br2   1.937796 S    
C3    H6    1.109163 S    
C30   C31   1.431515 A    
Ba1   O20   2.918948 S    
C19   C20   1.411035 A    
C23   C28   1.424479 A    
C43   C51   1.395259 A    
P4    O15   1.751091 S    
C45   C46   1.386250 A    
C2    H5    1.106424 S    
