data_mof_unit_20461.cif
_audit_creation_date              2013-03-05T15:45:11-0500
_audit_creation_method            fapswitch 2.2
_symmetry_space_group_name_H-M    P1
_symmetry_Int_Tables_number       1
_space_group_crystal_system       triclinic
_cell_length_a                    24.322202
_cell_length_b                    17.077916
_cell_length_c                    15.722619
_cell_angle_alpha                 89.999755
_cell_angle_beta                  50.963878
_cell_angle_gamma                 89.999689
_cell_volume                      5072.74915547

loop_
_atom_site_label
_atom_site_type_symbol
_atom_site_description
_atom_site_fract_x
_atom_site_fract_y
_atom_site_fract_z
_atom_type_partial_charge
C1    C     C_R   0.353700 0.144939 0.751509 0.335958
C2    C     C_R   0.667467 0.894261 0.197994 0.347871
C3    C     C_R   0.646300 0.144938 0.248491 0.335919
C4    C     C_R   0.332533 0.894261 0.802006 0.347861
C5    C     C_R   0.853699 0.644938 0.751510 0.335959
C6    C     C_R   0.167467 0.394262 0.197994 0.347854
C7    C     C_R   0.146300 0.644938 0.248489 0.335964
C8    C     C_R   0.832533 0.394261 0.802006 0.347845
N1    N     N_R   0.388930 0.078160 0.705470 -0.096942
N2    N     N_R   0.611070 0.921840 0.294530 -0.096399
N3    N     N_R   0.611070 0.078160 0.294530 -0.096940
N4    N     N_R   0.388930 0.921840 0.705470 -0.096402
N5    N     N_R   0.888930 0.578160 0.705470 -0.096943
N6    N     N_R   0.111070 0.421840 0.294530 -0.096404
N7    N     N_R   0.111070 0.578160 0.294530 -0.096942
N8    N     N_R   0.888930 0.421840 0.705470 -0.096405
C9    C     C_R   0.617147 0.098682 0.590391 -0.119592
C10   C     C_R   0.412477 0.853918 0.409043 -0.099669
C11   C     C_R   0.382858 0.098681 0.409602 -0.119618
C12   C     C_R   0.587522 0.853918 0.590957 -0.099679
C13   C     C_R   0.117141 0.598681 0.590399 -0.119622
C14   C     C_R   0.912481 0.353919 0.409041 -0.099656
C15   C     C_R   0.882858 0.598681 0.409601 -0.119626
C16   C     C_R   0.087522 0.353918 0.590957 -0.099664
H1    H     H_    0.596220 0.094011 0.674501 0.111988
H2    H     H_    0.442470 0.837508 0.324340 0.115239
H3    H     H_    0.403787 0.094003 0.325491 0.111987
H4    H     H_    0.557529 0.837507 0.675660 0.115240
H5    H     H_    0.096212 0.594002 0.674510 0.111988
H6    H     H_    0.942476 0.337513 0.324336 0.115238
H7    H     H_    0.903788 0.594002 0.325490 0.111990
H8    H     H_    0.057529 0.337508 0.675661 0.115242
N9    N     N_R   0.580500 0.077840 0.556650 -0.057746
N10   N     N_R   0.419500 0.922160 0.443350 -0.055003
N11   N     N_R   0.419500 0.077840 0.443350 -0.057749
N12   N     N_R   0.580500 0.922160 0.556650 -0.055004
N13   N     N_R   0.080500 0.577840 0.556650 -0.057750
N14   N     N_R   0.919500 0.422160 0.443350 -0.055005
N15   N     N_R   0.919500 0.577840 0.443350 -0.057750
N16   N     N_R   0.080500 0.422160 0.556650 -0.055004
C17   C     C_R   0.690574 0.095388 0.410327 0.029550
C18   C     C_R   0.336890 0.855672 0.591347 -0.021465
C19   C     C_R   0.309427 0.095398 0.589667 0.029585
C20   C     C_R   0.663108 0.855671 0.408653 -0.021560
C21   C     C_R   0.190573 0.595400 0.410334 0.029590
C22   C     C_R   0.836896 0.355668 0.591345 -0.021451
C23   C     C_R   0.809427 0.595400 0.589666 0.029590
C24   C     C_R   0.163108 0.355671 0.408653 -0.021455
H9    H     H_    0.737513 0.084917 0.328534 0.212300
H10   H     H_    0.294876 0.841973 0.675062 0.189722
H11   H     H_    0.262482 0.084952 0.671464 0.212281
H12   H     H_    0.705121 0.841971 0.324938 0.189726
H13   H     H_    0.237519 0.584957 0.328536 0.212278
H14   H     H_    0.794885 0.341962 0.675059 0.189719
H15   H     H_    0.762481 0.584956 0.671464 0.212279
H16   H     H_    0.205120 0.341970 0.324939 0.189719
N17   N     N_R   0.626210 0.077590 0.443410 -0.071899
N18   N     N_R   0.373790 0.922410 0.556590 -0.057713
N19   N     N_R   0.373790 0.077590 0.556590 -0.071894
N20   N     N_R   0.626210 0.922410 0.443410 -0.057722
N21   N     N_R   0.126210 0.577590 0.443410 -0.071894
N22   N     N_R   0.873790 0.422410 0.556590 -0.057710
N23   N     N_R   0.873790 0.577590 0.556590 -0.071894
N24   N     N_R   0.126210 0.422410 0.443410 -0.057711
C25   C     C_R   0.554231 0.144664 0.250384 -0.136083
C26   C     C_R   0.423816 0.894252 0.801432 -0.169857
C27   C     C_R   0.445769 0.144664 0.749615 -0.136089
C28   C     C_R   0.576184 0.894252 0.198569 -0.169858
C29   C     C_R   0.054231 0.644664 0.250383 -0.136098
C30   C     C_R   0.923816 0.394253 0.801432 -0.169850
C31   C     C_R   0.945768 0.644664 0.749616 -0.136094
C32   C     C_R   0.076185 0.394254 0.198567 -0.169867
H17   H     H_    0.515320 0.160907 0.241152 0.147944
H18   H     H_    0.454438 0.896723 0.829672 0.138790
H19   H     H_    0.484681 0.160907 0.758845 0.147948
H20   H     H_    0.545561 0.896724 0.170328 0.138790
H21   H     H_    0.015320 0.660906 0.241152 0.147944
H22   H     H_    0.954438 0.396725 0.829673 0.138796
H23   H     H_    0.984680 0.660907 0.758848 0.147946
H24   H     H_    0.045563 0.396726 0.170326 0.138796
N25   N     N_R   0.554800 0.077270 0.294580 -0.074100
N26   N     N_R   0.445200 0.922730 0.705420 -0.067568
N27   N     N_R   0.445200 0.077270 0.705420 -0.074102
N28   N     N_R   0.554800 0.922730 0.294580 -0.067568
N29   N     N_R   0.054800 0.577270 0.294580 -0.074102
N30   N     N_R   0.945200 0.422730 0.705420 -0.067572
N31   N     N_R   0.945200 0.577270 0.705420 -0.074102
N32   N     N_R   0.054800 0.422730 0.294580 -0.067571
C33   C     C_R   0.388363 0.188810 0.779231 -0.033819
C34   C     C_R   0.647144 0.877028 0.135200 -0.002428
C35   C     C_R   0.611637 0.188811 0.220768 -0.033810
C36   C     C_R   0.352855 0.877027 0.864800 -0.002430
C37   C     C_R   0.888362 0.688810 0.779234 -0.033818
C38   C     C_R   0.147145 0.377029 0.135199 -0.002427
C39   C     C_R   0.111637 0.688810 0.220766 -0.033819
C40   C     C_R   0.852855 0.377028 0.864800 -0.002432
C41   C     C_R   0.687524 0.108715 0.499703 0.057375
C42   C     C_R   0.361935 0.809246 0.500993 0.075979
C43   C     C_R   0.312481 0.108717 0.500284 0.057415
C44   C     C_R   0.638063 0.809245 0.499007 0.076001
C45   C     C_R   0.187518 0.608718 0.499718 0.057420
C46   C     C_R   0.861943 0.309243 0.500988 0.075989
C47   C     C_R   0.812482 0.608718 0.500282 0.057415
C48   C     C_R   0.138062 0.309244 0.499008 0.075976
Ni1   Ni    Ni4+2 0.382710 0.000000 0.629850 0.317358
Ni2   Ni    Ni4+2 0.617290 0.000000 0.370150 0.317329
Ni3   Ni    Ni4+2 0.882710 0.500000 0.629850 0.317359
Ni4   Ni    Ni4+2 0.117290 0.500000 0.370150 0.317359
Ni5   Ni    Ni4+2 0.513020 0.000000 0.629850 0.213259
Ni6   Ni    Ni4+2 0.486980 0.000000 0.370150 0.213268
Ni7   Ni    Ni4+2 0.013020 0.500000 0.629850 0.213265
Ni8   Ni    Ni4+2 0.986980 0.500000 0.370150 0.213266
C49   C     C_R   0.184111 0.144232 0.599323 0.348665
C50   C     C_R   0.721658 0.694443 0.399780 0.352030
C51   C     C_R   0.815890 0.144270 0.400645 0.348729
C52   C     C_R   0.278340 0.694445 0.600220 0.352036
C53   C     C_R   0.684111 0.644227 0.599319 0.348655
C54   C     C_R   0.221656 0.194442 0.399783 0.352040
C55   C     C_R   0.315888 0.644228 0.400682 0.348654
C56   C     C_R   0.778359 0.194429 0.600195 0.352040
C57   C     C_R   0.642649 0.699412 0.597566 -0.260611
C58   C     C_R   0.267595 0.146822 0.401516 -0.267742
C59   C     C_R   0.357349 0.699414 0.402434 -0.260603
C60   C     C_R   0.732424 0.146804 0.598456 -0.267731
C61   C     C_R   0.142649 0.199414 0.597569 -0.260599
C62   C     C_R   0.767598 0.646824 0.401512 -0.267749
C63   C     C_R   0.857353 0.199437 0.402412 -0.260597
C64   C     C_R   0.232401 0.646825 0.598488 -0.267744
H25   H     H_    0.593496 0.717904 0.674296 0.179576
H26   H     H_    0.315431 0.125929 0.324864 0.179026
H27   H     H_    0.406502 0.717906 0.325705 0.179576
H28   H     H_    0.684597 0.125894 0.675104 0.179026
H29   H     H_    0.093497 0.217908 0.674298 0.179572
H30   H     H_    0.815435 0.625934 0.324860 0.179029
H31   H     H_    0.906496 0.217944 0.325680 0.179521
H32   H     H_    0.184564 0.625935 0.675140 0.179026
C65   C     C_R   0.665470 0.731695 0.498160 -0.049394
C66   C     C_R   0.252932 0.128696 0.500986 -0.053092
C67   C     C_R   0.334528 0.731697 0.501840 -0.049391
C68   C     C_R   0.747078 0.128700 0.498987 -0.053157
C69   C     C_R   0.165469 0.231695 0.498162 -0.049390
C70   C     C_R   0.752934 0.628696 0.500983 -0.053079
C71   C     C_R   0.834540 0.231696 0.501824 -0.049384
C72   C     C_R   0.247065 0.628697 0.499018 -0.053080
H33   H     H_    0.211409 0.895316 0.038440 0.180449
H34   H     H_    0.739267 0.222924 0.062253 0.168482
H35   H     H_    0.788591 0.895317 0.961559 0.180454
H36   H     H_    0.260734 0.222922 0.937753 0.168481
H37   H     H_    0.711408 0.395316 0.038438 0.180454
H38   H     H_    0.239266 0.722920 0.062243 0.168482
H39   H     H_    0.288592 0.395317 0.961559 0.180453
H40   H     H_    0.760733 0.722921 0.937755 0.168483
C73   C     C_2   0.635572 0.264453 0.164833 -0.111228
C74   C     C_2   0.310525 0.845921 0.975172 -0.160732
C75   C     C_2   0.364428 0.264453 0.835166 -0.111220
C76   C     C_2   0.689474 0.845922 0.024827 -0.160735
C77   C     C_2   0.135572 0.764452 0.164831 -0.111230
C78   C     C_2   0.810525 0.345924 0.975174 -0.160715
C79   C     C_2   0.864427 0.764452 0.835168 -0.111227
C80   C     C_2   0.189475 0.345924 0.024826 -0.160732
C81   C     C_2   0.705152 0.273991 0.090689 0.027127
C82   C     C_2   0.240130 0.848018 0.040946 -0.045721
C83   C     C_2   0.294849 0.273990 0.909314 0.027134
C84   C     C_2   0.759870 0.848019 0.959053 -0.045718
C85   C     C_2   0.205152 0.773988 0.090683 0.027150
C86   C     C_2   0.740129 0.348021 0.040948 -0.045717
C87   C     C_2   0.794848 0.773989 0.909316 0.027144
C88   C     C_2   0.259871 0.348020 0.959052 -0.045713
H41   H     H_    0.337137 0.802632 0.988762 0.182876
H42   H     H_    0.598489 0.311560 0.188089 0.163141
H43   H     H_    0.662863 0.802634 0.011237 0.182875
H44   H     H_    0.401511 0.311561 0.811904 0.163139
H45   H     H_    0.837136 0.302638 0.988767 0.182893
H46   H     H_    0.098489 0.811561 0.188093 0.163130
H47   H     H_    0.162864 0.302636 0.011236 0.182874
H48   H     H_    0.901510 0.811561 0.811907 0.163136
N33   N     N_R   0.289651 0.165925 0.771494 0.197053
O1    O     O_R   0.285495 0.232409 0.735397 -0.405432
O2    O     O_R   0.231930 0.127356 0.844464 -0.342992
N34   N     N_R   0.738486 0.903440 0.159007 0.206050
O3    O     O_R   0.754553 0.963963 0.189598 -0.360317
O4    O     O_R   0.781496 0.843949 0.116229 -0.350068
N35   N     N_R   0.710346 0.165926 0.228514 0.197078
O5    O     O_R   0.714499 0.232409 0.264617 -0.405352
O6    O     O_R   0.768069 0.127360 0.155543 -0.342886
N36   N     N_R   0.261514 0.903440 0.840992 0.206050
O7    O     O_R   0.245447 0.963963 0.810398 -0.360286
O8    O     O_R   0.218504 0.843950 0.883770 -0.350065
N37   N     N_R   0.789650 0.665923 0.771497 0.197048
O9    O     O_R   0.785492 0.732408 0.735402 -0.405452
O10   O     O_R   0.731930 0.627352 0.844466 -0.342996
N38   N     N_R   0.238486 0.403440 0.159008 0.206053
O11   O     O_R   0.254552 0.463962 0.189604 -0.360274
O12   O     O_R   0.281497 0.343950 0.116230 -0.350064
N39   N     N_R   0.210349 0.665924 0.228504 0.197048
O13   O     O_R   0.214506 0.732408 0.264599 -0.405448
O14   O     O_R   0.268070 0.627353 0.155534 -0.342997
N40   N     N_R   0.761514 0.403436 0.840990 0.206053
O15   O     O_R   0.745446 0.463957 0.810395 -0.360269
O16   O     O_R   0.718506 0.343944 0.883766 -0.350075
N41   N     N_R   0.154727 0.103175 0.699236 0.237507
O17   O     O_R   0.160156 0.027267 0.697738 -0.346005
O18   O     O_R   0.112387 0.138865 0.793030 -0.308994
N42   N     N_R   0.731365 0.702131 0.300063 0.235699
O19   O     O_R   0.676424 0.703774 0.303647 -0.386617
O20   O     O_R   0.793953 0.694074 0.205612 -0.341876
N43   N     N_R   0.845258 0.103289 0.300690 0.237450
O21   O     O_R   0.839969 0.027366 0.302053 -0.345910
O22   O     O_R   0.887431 0.139097 0.206953 -0.308969
N44   N     N_R   0.268634 0.702132 0.699938 0.235699
O23   O     O_R   0.323574 0.703778 0.696352 -0.386628
O24   O     O_R   0.206046 0.694077 0.794388 -0.341871
N45   N     N_R   0.654725 0.603161 0.699227 0.237515
O25   O     O_R   0.660171 0.527255 0.697712 -0.346003
O26   O     O_R   0.612363 0.638836 0.793028 -0.308997
N46   N     N_R   0.231362 0.202128 0.300065 0.235697
O27   O     O_R   0.176422 0.203773 0.303651 -0.386632
O28   O     O_R   0.293950 0.194070 0.205615 -0.341873
N47   N     N_R   0.345275 0.603161 0.300775 0.237517
O29   O     O_R   0.339827 0.527254 0.302292 -0.346011
O30   O     O_R   0.387641 0.638833 0.206973 -0.308997
N48   N     N_R   0.768654 0.202110 0.699913 0.235697
O31   O     O_R   0.823595 0.203762 0.696325 -0.386630
O32   O     O_R   0.706067 0.194044 0.794363 -0.341881

loop_
_geom_bond_atom_site_label_1
_geom_bond_atom_site_label_2
_geom_bond_distance
_ccdc_geom_bond_type
N25   Ni6   1.845351 S    
C55   N47   1.433864 S    
C54   N46   1.436944 S    
C27   N27   1.349017 A    
C51   N43   1.433824 S    
C30   H22   1.081773 S    
N41   O17   1.301775 A    
C8    N40   1.431892 S    
C10   H2    1.077288 S    
C3    N3    1.333229 A    
C24   H16   1.066388 S    
N5    Ni3   1.856009 S    
N29   Ni8   1.845351 S    
C19   H11   1.067633 S    
C55   C59   1.393157 A    
C18   N18   1.336166 A    
C31   H23   1.080153 S    
C25   H17   1.080153 S    
N10   N18   1.382985 A    
N45   O25   1.301773 A    
N3    N25   1.368197 A    
C22   C46   1.388449 A    
N19   Ni1   1.855904 S    
C2    N34   1.431892 S    
C22   N22   1.336180 A    
N11   N19   1.382985 A    
C63   H31   1.080581 S    
C35   C73   1.461585 S    
H35   C84   1.084745 S    
N35   O6    1.300855 A    
C23   N23   1.337203 A    
N4    Ni1   1.856002 S    
C50   C62   1.396034 A    
C45   C72   1.481265 S    
C33   C75   1.461584 S    
C26   N26   1.340458 A    
H33   C82   1.084744 S    
N1    Ni1   1.856009 S    
H39   C88   1.084744 S    
C14   N14   1.339523 A    
C59   C67   1.400731 A    
C27   C33   1.384112 A    
C51   C63   1.393094 A    
C60   H28   1.080366 S    
C3    C35   1.387444 A    
C54   C58   1.396038 A    
C50   C65   1.415013 A    
C4    N36   1.431891 S    
C37   C79   1.461583 S    
N21   Ni4   1.855912 S    
C53   C57   1.393154 A    
C52   N44   1.436945 S    
N2    N28   1.368197 A    
N8    Ni3   1.856002 S    
C1    N33   1.427378 S    
C75   H44   1.085806 S    
C15   C47   1.384925 A    
C61   C69   1.400728 A    
C6    C38   1.385779 A    
C8    C40   1.385777 A    
C73   H42   1.085809 S    
C28   C34   1.375491 A    
N27   Ni5   1.845343 S    
C43   C66   1.481267 S    
N40   O15   1.299680 A    
C49   N41   1.433859 S    
C4    N4    1.335894 A    
C11   H3    1.080012 S    
C41   C68   1.481275 S    
C5    N5    1.333231 A    
C81   C86   1.447649 S    
C2    C34   1.385780 A    
C19   N19   1.337197 A    
C77   H46   1.085808 S    
N7    N29   1.368197 A    
C52   C67   1.415013 A    
C32   C38   1.375492 A    
C5    C37   1.387443 A    
C20   H12   1.066388 S    
C7    N7    1.333232 A    
N17   Ni2   1.855912 S    
C21   H13   1.067635 S    
N33   O2    1.300856 A    
C8    N8    1.335895 A    
C38   C80   1.450219 S    
N8    N30   1.368202 A    
C55   C72   1.415218 A    
N41   O18   1.301455 A    
C24   C48   1.388447 A    
N5    N31   1.368202 A    
N48   O31   1.301823 A    
C56   C71   1.415012 A    
C9    N9    1.340968 A    
N23   Ni3   1.855904 S    
C17   H9    1.067622 S    
C32   N32   1.340459 A    
N34   O4    1.301013 A    
N24   Ni4   1.855904 S    
N16   Ni7   1.845570 S    
N45   O26   1.301444 A    
H34   C81   1.087053 S    
C23   C47   1.378671 A    
N43   O21   1.301813 A    
C28   N28   1.340458 A    
N26   Ni5   1.845350 S    
C1    N1    1.333232 A    
N46   O27   1.301822 A    
C58   C66   1.402253 A    
C26   H18   1.081774 S    
C77   C85   1.328329 D    
N47   O29   1.301769 A    
N31   Ni7   1.845343 S    
C11   C43   1.384930 A    
C7    N39   1.427377 S    
C26   C36   1.375492 A    
N22   Ni3   1.855914 S    
C12   H4    1.077288 S    
C75   C83   1.328330 D    
H38   C85   1.087056 S    
C57   C65   1.400732 A    
C62   C70   1.402253 A    
N28   Ni6   1.845347 S    
C60   C68   1.402267 A    
C74   H41   1.088717 S    
C73   C81   1.328332 D    
C16   C48   1.394500 A    
N38   O12   1.301014 A    
N7    Ni4   1.856003 S    
C30   C40   1.375492 A    
N35   O5    1.301440 A    
C16   H8    1.077288 S    
C6    N6    1.335896 A    
C82   C85   1.447650 S    
C10   N10   1.339552 A    
C78   H45   1.088716 S    
C25   N25   1.349019 A    
C12   C44   1.394502 A    
C56   N48   1.436946 S    
C22   H14   1.066392 S    
N3    Ni2   1.856003 S    
N4    N26   1.368202 A    
C63   C71   1.400706 A    
C51   C68   1.415229 A    
C53   N45   1.433864 S    
C64   C72   1.402255 A    
C76   C84   1.331146 D    
N11   Ni6   1.845568 S    
C21   C45   1.378673 A    
C18   H10   1.066390 S    
C31   N31   1.349016 A    
N15   Ni8   1.845568 S    
N42   O20   1.301541 A    
N44   O23   1.301817 A    
N44   O24   1.301541 A    
C79   H48   1.085808 S    
C48   C69   1.478963 S    
C4    C36   1.385779 A    
N10   Ni6   1.845575 S    
C80   H47   1.088715 S    
C17   C41   1.378649 A    
N2    Ni2   1.856013 S    
C40   C78   1.450221 S    
C27   H19   1.080151 S    
C46   C71   1.478949 S    
N36   O8    1.301013 A    
C30   N30   1.340458 A    
C47   C70   1.481266 S    
H40   C87   1.087055 S    
C29   N29   1.349018 A    
N34   O3    1.299681 A    
C78   C86   1.331147 D    
C23   H15   1.067634 S    
C61   H29   1.080580 S    
C25   C35   1.384116 A    
N48   O32   1.301541 A    
C1    C33   1.387443 A    
N30   Ni7   1.845350 S    
C14   H6    1.077282 S    
C59   H27   1.080581 S    
C39   C77   1.461584 S    
H36   C83   1.087054 S    
C74   C82   1.331144 D    
C84   C87   1.447648 S    
H37   C86   1.084743 S    
C57   H25   1.080581 S    
N40   O16   1.301014 A    
N12   N20   1.382985 A    
C18   C42   1.388450 A    
C14   C46   1.394492 A    
N13   N21   1.382985 A    
C5    N37   1.427377 S    
N1    N27   1.368202 A    
C31   C37   1.384111 A    
N20   Ni2   1.855904 S    
N9    N17   1.382985 A    
C28   H20   1.081773 S    
C7    C39   1.387444 A    
C42   C67   1.478964 S    
C76   H43   1.088718 S    
N16   N24   1.382985 A    
C3    N35   1.427381 S    
N18   Ni1   1.855914 S    
C9    H1    1.080012 S    
N38   O11   1.299680 A    
C49   C61   1.393149 A    
C64   H32   1.080363 S    
C83   C88   1.447650 S    
C17   N17   1.337160 A    
C13   C45   1.384924 A    
C32   H24   1.081773 S    
C11   N11   1.340946 A    
C19   C43   1.378670 A    
N32   Ni8   1.845347 S    
C20   C44   1.388448 A    
C29   H21   1.080152 S    
C13   H5    1.080013 S    
C20   N20   1.336166 A    
C21   N21   1.337203 A    
C15   N15   1.340944 A    
C54   C69   1.415012 A    
N6    Ni4   1.856013 S    
C16   N16   1.339548 A    
C79   C87   1.328331 D    
N15   N23   1.382985 A    
C53   C70   1.415218 A    
N9    Ni5   1.845575 S    
C50   N42   1.436943 S    
N47   O30   1.301438 A    
C80   C88   1.331143 D    
N37   O9    1.301440 A    
N13   Ni7   1.845575 S    
C24   N24   1.336167 A    
C44   C65   1.478964 S    
N6    N32   1.368197 A    
N39   O13   1.301440 A    
C12   N12   1.339551 A    
C56   C60   1.396053 A    
N14   Ni8   1.845575 S    
C13   N13   1.340943 A    
N42   O19   1.301825 A    
C62   H30   1.080362 S    
C9    C41   1.384961 A    
N33   O1    1.301439 A    
C52   C64   1.396033 A    
C29   C39   1.384110 A    
C6    N38   1.431891 S    
N12   Ni5   1.845570 S    
N43   O22   1.301531 A    
C49   C66   1.415218 A    
C36   C74   1.450220 S    
C10   C42   1.394504 A    
N14   N22   1.382985 A    
N36   O7    1.299682 A    
C34   C76   1.450220 S    
C58   H26   1.080362 S    
N46   O28   1.301540 A    
C15   H7    1.080012 S    
N37   O10   1.300856 A    
N39   O14   1.300856 A    
C2    N2    1.335897 A    
