data_mof_unit_23362.cif
_audit_creation_date              2012-12-10T20:25:42-0500
_audit_creation_method            fapswitch 2.2
_symmetry_space_group_name_H-M    P1
_symmetry_Int_Tables_number       1
_space_group_crystal_system       triclinic
_cell_length_a                    8.678632
_cell_length_b                    10.732905
_cell_length_c                    9.922214
_cell_angle_alpha                 90.830388
_cell_angle_beta                  98.965798
_cell_angle_gamma                 90.776556
_cell_volume                      912.718356823

loop_
_atom_site_label
_atom_site_type_symbol
_atom_type_description
_atom_site_fract_x
_atom_site_fract_y
_atom_site_fract_z
_atom_type_partial_charge
C1    C     C_R   0.511936 0.260757 0.500678 0.878451
C2    C     C_R   0.530308 0.933125 0.381794 -0.262670
C3    C     C_R   0.512488 0.872234 0.502264 -0.128481
C4    C     C_R   0.516423 0.939016 0.624179 0.132130
C5    C     C_3   0.638803 0.929686 0.747331 -0.486940
C6    C     C_3   0.656318 0.069110 0.743899 -0.465263
C7    C     C_R   0.478069 0.392084 0.065460 0.112189
C8    C     C_R   0.533128 0.605669 0.077906 -0.175312
C9    C     C_R   0.532067 0.605709 0.934279 -0.148692
C10   C     C_R   0.484796 0.390887 0.925001 0.152645
C11   C     C_3   0.360027 0.291019 0.897532 -0.191417
C12   C     C_R   0.201335 0.501583 0.464242 0.965757
C13   C     C_3   0.346014 0.298822 0.049558 -0.248688
C14   C     C_R   0.503408 0.739820 0.501118 0.884927
C15   C     C_R   0.798678 0.502150 0.535985 0.956120
C16   C     C_2   0.036251 0.504553 0.445985 -0.381846
C17   C     C_2   0.963807 0.506912 0.555186 -0.392387
C18   C     C_R   0.527515 0.067394 0.623925 0.091814
C19   C     C_R   0.532224 0.128781 0.501812 -0.134465
C20   C     C_R   0.547955 0.061239 0.382126 0.097794
H1    H     H_    0.973986 0.503777 0.342902 0.198229
H2    H     H_    0.555830 0.691267 0.885373 0.149734
H3    H     H_    0.404133 0.199620 0.868754 0.153676
H4    H     H_    0.379935 0.210332 0.101007 0.159838
H5    H     H_    0.024965 0.512323 0.658928 0.175030
H6    H     H_    0.537598 0.881149 0.288687 0.160348
H7    H     H_    0.589484 0.898181 0.838016 0.186000
H8    H     H_    0.744268 0.879355 0.727036 0.202620
H9    H     H_    0.625881 0.116217 0.835983 0.191092
H10   H     H_    0.770249 0.100241 0.716731 0.206584
H11   H     H_    0.558463 0.691460 0.135857 0.151368
N1    N     N_R   0.498950 0.499140 0.142680 -0.114246
N2    N     N_R   0.498950 0.499180 0.857030 -0.106337
O1    O     O_R   0.500020 0.316790 0.614690 -0.628399
O2    O     O_R   0.500000 0.316760 0.385350 -0.598722
O3    O     O_R   0.271760 0.500010 0.587850 -0.635008
O4    O     O_R   0.271740 0.499970 0.358500 -0.608498
O5    O     O_R   0.500000 0.683240 0.614650 -0.624565
O6    O     O_R   0.499980 0.683210 0.385310 -0.635552
O7    O     O_R   0.728260 0.500030 0.641500 -0.617352
O8    O     O_R   0.728240 0.499990 0.412150 -0.619852
Zn1   Zn    Zn3+2 0.500010 0.500020 0.653130 0.933217
Zn2   Zn    Zn3+2 0.499990 0.499980 0.346870 0.943029
N3    N     N_3   0.218982 0.325729 0.805536 -0.423489
H12   H     H_    0.207348 0.422209 0.806377 0.217376
H13   H     H_    0.230792 0.297215 0.706645 0.223803
C21   C     C_R   0.190112 0.345059 0.077817 0.258953
C22   C     C_R   0.081930 0.256612 0.110472 -0.157555
C23   C     C_R   0.929576 0.291045 0.118479 -0.161398
C24   C     C_R   0.885073 0.414163 0.096471 -0.112478
C25   C     C_R   0.990683 0.503299 0.064271 -0.183691
C26   C     C_R   0.142532 0.469186 0.054163 -0.088494
H14   H     H_    0.114022 0.160004 0.125139 0.119822
H15   H     H_    0.845718 0.221919 0.139569 0.126212
H16   H     H_    0.770158 0.441562 0.107410 0.157149
H17   H     H_    0.954486 0.598547 0.046377 0.135247
H18   H     H_    0.219740 0.538983 0.022962 0.125674
N4    N     N_3   0.592634 0.121632 0.265753 -0.452023
H19   H     H_    0.704894 0.158029 0.297027 0.182539
H20   H     H_    0.600627 0.057476 0.186876 0.154451

loop_
_geom_bond_atom_site_label_1
_geom_bond_atom_site_label_2
_ccdc_geom_bond_type
O4    Zn2   S    
C7    C10   A    
C16   H1    S    
C16   C17   D    
C14   O5    A    
C5    H8    S    
C11   C13   S    
C23   H15   S    
O3    Zn1   S    
C19   C20   A    
O1    Zn1   S    
N4    H20   S    
C4    C18   A    
O7    Zn1   S    
C2    C3    A    
N4    H19   S    
C17   H5    S    
C11   N3    S    
C2    H6    S    
C9    N2    A    
O8    Zn2   S    
C15   O8    A    
C22   H14   S    
C3    C14   S    
N2    Zn1   S    
C11   H3    S    
C22   C23   A    
C6    H10   S    
N1    Zn2   S    
N3    H13   S    
C1    O1    A    
O5    Zn1   S    
C10   N2    A    
C5    C6    S    
C6    C18   S    
C23   C24   A    
C15   O7    A    
C1    C19   S    
C12   O3    A    
C26   H18   S    
C2    C20   A    
C25   C26   A    
C8    N1    A    
C21   C22   A    
C12   C16   S    
C7    C13   S    
C6    H9    S    
O2    Zn2   S    
N3    H12   S    
C1    O2    A    
C15   C17   S    
C18   C19   A    
C10   C11   S    
C21   C26   A    
C12   O4    A    
C13   C21   S    
C9    H2    S    
C8    C9    A    
O6    Zn2   S    
C7    N1    A    
C24   C25   A    
C14   O6    A    
C5    H7    S    
C8    H11   S    
C20   N4    S    
C3    C4    A    
C24   H16   S    
C13   H4    S    
C4    C5    S    
C25   H17   S    
