data_mof_unit_63904.cif
_audit_creation_date              2012-12-10T17:56:01-0500
_audit_creation_method            fapswitch 2.2
_symmetry_space_group_name_H-M    P1
_symmetry_Int_Tables_number       1
_space_group_crystal_system       triclinic
_cell_length_a                    18.353816
_cell_length_b                    18.394819
_cell_length_c                    26.002524
_cell_angle_alpha                 89.999927
_cell_angle_beta                  89.999855
_cell_angle_gamma                 90.035223
_cell_volume                      8778.84368692

loop_
_atom_site_label
_atom_site_type_symbol
_atom_type_description
_atom_site_fract_x
_atom_site_fract_y
_atom_site_fract_z
_atom_type_partial_charge
C1    C     C_R   0.140405 0.860100 0.250115 0.540275
C2    C     C_R   0.265120 0.818248 0.227720 0.410504
C3    C     C_3   0.556483 0.625216 0.441968 -0.349735
C4    C     C_R   0.755675 0.797597 0.792352 0.410584
C5    C     C_R   0.755655 0.797615 0.207663 0.411318
C6    C     C_R   0.765112 0.318241 0.272294 0.410288
C7    C     C_R   0.765122 0.318251 0.727725 0.410402
C8    C     C_R   0.255634 0.297639 0.292332 0.410771
C9    C     C_R   0.255682 0.297588 0.707648 0.411070
C10   C     C_R   0.818254 0.264705 0.272215 0.372920
C11   C     C_R   0.818265 0.264715 0.727805 0.371675
C12   C     C_R   0.202302 0.244210 0.292126 0.380024
C13   C     C_R   0.140404 0.860100 0.749885 0.541093
C14   C     C_R   0.202352 0.244157 0.707852 0.380480
C15   C     C_R   0.318267 0.764717 0.772191 0.371732
C16   C     C_R   0.318262 0.764712 0.227799 0.372892
C17   C     C_R   0.702344 0.744167 0.792148 0.380989
C18   C     C_R   0.702325 0.744186 0.207868 0.379508
C19   C     C_R   0.803886 0.196639 0.249723 -0.025667
C20   C     C_R   0.803887 0.196640 0.750279 -0.025951
C21   C     C_R   0.196678 0.196055 0.250296 -0.021086
C22   C     C_R   0.196672 0.196057 0.749710 -0.021226
C23   C     C_R   0.303886 0.696640 0.749722 -0.025818
C24   C     C_R   0.859987 0.859725 0.249739 0.539236
C25   C     C_R   0.303886 0.696640 0.250278 -0.025778
C26   C     C_R   0.696678 0.696054 0.750297 -0.021509
C27   C     C_R   0.696670 0.696060 0.249712 -0.020758
C28   C     C_R   0.974249 0.938028 0.027276 0.003680
C29   C     C_R   0.972819 0.938803 0.972738 -0.004298
C30   C     C_R   0.025736 0.061947 0.027276 0.004693
C31   C     C_R   0.027173 0.061170 0.972738 -0.003091
C32   C     C_R   0.473934 0.438158 0.527279 0.003453
C33   C     C_R   0.472453 0.438961 0.472743 -0.004476
C34   C     C_R   0.526044 0.561819 0.527277 0.004584
C35   C     C_R   0.859989 0.859724 0.750264 0.539372
C36   C     C_R   0.527527 0.561013 0.472742 -0.003290
C37   C     C_R   0.999999 0.999986 0.945881 0.064627
C38   C     C_R   0.999996 0.999987 0.054307 0.076230
C39   C     C_R   0.499997 0.499984 0.445884 0.064475
C40   C     C_R   0.499996 0.499986 0.554309 0.076094
C41   C     C_R   0.859800 0.140213 0.249970 0.551945
C42   C     C_R   0.859801 0.140213 0.750031 0.551231
C43   C     C_R   0.140259 0.140133 0.250041 0.555191
C44   C     C_R   0.140257 0.140134 0.749960 0.556934
C45   C     C_R   0.359801 0.640213 0.749970 0.550867
C46   C     C_R   0.640404 0.360100 0.750115 0.540729
C47   C     C_R   0.359800 0.640213 0.250030 0.552388
C48   C     C_R   0.640259 0.640133 0.750041 0.556319
C49   C     C_R   0.640257 0.640135 0.249961 0.555823
C50   C     C_R   0.999999 0.999987 0.111025 0.477479
C51   C     C_R   1.000000 0.999987 0.889013 0.479486
C52   C     C_R   0.499999 0.499987 0.611025 0.477449
C53   C     C_R   0.499999 0.499984 0.389014 0.479558
C54   C     C_R   0.000341 0.000084 0.388581 0.537546
C55   C     C_R   0.999755 0.000087 0.611421 0.538215
C56   C     C_R   0.499750 0.500087 0.888579 0.538295
C57   C     C_R   0.640404 0.360100 0.249886 0.540677
C58   C     C_R   0.500336 0.500084 0.111419 0.537467
C59   C     C_2   0.004157 0.060600 0.528013 0.404414
C60   C     C_2   0.997571 0.060701 0.472013 0.403684
C61   C     C_2   0.497474 0.560696 0.027988 0.403683
C62   C     C_2   0.504065 0.560606 0.971989 0.404435
C63   C     C_2   0.995338 0.999761 0.555927 -0.114502
C64   C     C_2   0.004991 0.999713 0.444071 -0.112323
C65   C     C_2   0.504978 0.499716 0.055928 -0.112310
C66   C     C_2   0.495321 0.499758 0.944073 -0.114502
C67   C     C_R   0.735631 0.183267 0.226995 0.324545
C68   C     C_R   0.359987 0.359725 0.749738 0.538796
C69   C     C_R   0.735624 0.183259 0.772992 0.324290
C70   C     C_R   0.245585 0.201899 0.208867 0.325043
C71   C     C_R   0.245519 0.201959 0.791169 0.324350
C72   C     C_R   0.235620 0.683255 0.727016 0.324491
C73   C     C_R   0.235625 0.683260 0.272994 0.324339
C74   C     C_R   0.745545 0.701938 0.708847 0.324827
C75   C     C_R   0.745541 0.701937 0.291160 0.324511
C76   C     C_R   0.182748 0.737044 0.727028 -0.158993
C77   C     C_R   0.182754 0.737049 0.272982 -0.159001
C78   C     C_R   0.798949 0.755262 0.709312 -0.155976
C79   C     C_R   0.359989 0.359724 0.250264 0.539831
C80   C     C_R   0.798948 0.755260 0.290693 -0.155441
C81   C     C_R   0.682760 0.237056 0.227007 -0.159015
C82   C     C_R   0.682752 0.237048 0.772980 -0.158965
C83   C     C_R   0.298988 0.255223 0.209333 -0.155837
C84   C     C_R   0.298926 0.255282 0.790704 -0.155566
C85   C     C_R   0.196919 0.804559 0.749777 -0.086124
C86   C     C_R   0.196919 0.804559 0.250224 -0.086068
C87   C     C_R   0.804127 0.803528 0.750773 -0.082090
C88   C     C_R   0.804120 0.803533 0.249235 -0.082311
C89   C     C_R   0.696919 0.304559 0.249777 -0.086185
C90   C     C_R   0.265124 0.818253 0.772271 0.410207
C91   C     C_R   0.696920 0.304559 0.750224 -0.086002
C92   C     C_R   0.304127 0.303529 0.250773 -0.082052
C93   C     C_R   0.304121 0.303531 0.749233 -0.082333
C94   C     C_3   0.949870 0.870278 0.056043 -0.341781
C95   C     C_3   0.944283 0.874426 0.941954 -0.342531
C96   C     C_3   0.050094 0.129705 0.056042 -0.347348
C97   C     C_3   0.055715 0.125546 0.941956 -0.350143
C98   C     C_3   0.449282 0.370503 0.556045 -0.341515
C99   C     C_3   0.443487 0.374761 0.441971 -0.342259
C100  C     C_3   0.550669 0.629485 0.556040 -0.347197
F1    F     F_    0.017626 0.125743 0.551008 -0.482824
F2    F     F_    0.219218 0.617977 0.294467 -0.548093
F3    F     F_    0.741078 0.657276 0.667378 -0.563015
F4    F     F_    0.741076 0.657270 0.332626 -0.567049
F5    F     F_    0.281182 0.883758 0.793577 -0.511305
F6    F     F_    0.281173 0.883747 0.206405 -0.510587
F7    F     F_    0.760592 0.842390 0.833746 -0.524435
F8    F     F_    0.760558 0.842418 0.166276 -0.520567
F9    F     F_    0.781159 0.383733 0.293623 -0.511163
F10   F     F_    0.781177 0.383752 0.706413 -0.510783
F11   F     F_    0.260508 0.342472 0.333706 -0.524936
F12   F     F_    0.985584 0.126146 0.449062 -0.489234
F13   F     F_    0.260612 0.342366 0.666249 -0.520376
F14   F     F_    0.884072 0.280274 0.293437 -0.504381
F15   F     F_    0.884093 0.280293 0.706601 -0.505874
F16   F     F_    0.157222 0.238998 0.333399 -0.497242
F17   F     F_    0.157332 0.238883 0.666551 -0.492739
F18   F     F_    0.384098 0.780298 0.793388 -0.505923
F19   F     F_    0.384087 0.780287 0.206590 -0.504310
F20   F     F_    0.657307 0.738909 0.833441 -0.492659
F21   F     F_    0.657278 0.738941 0.166579 -0.497337
F22   F     F_    0.485392 0.626122 0.050940 -0.489291
F23   F     F_    0.517455 0.625767 0.948997 -0.482797
F24   F     F_    0.719231 0.117991 0.205509 -0.547528
F25   F     F_    0.719216 0.117974 0.794462 -0.548200
F26   F     F_    0.241163 0.157195 0.167418 -0.562711
F27   F     F_    0.241028 0.157315 0.832648 -0.567012
F28   F     F_    0.219209 0.617966 0.705553 -0.547690
H1    H     H_    0.981944 0.948008 0.538482 0.052087
H2    H     H_    0.630330 0.225443 0.790296 0.204702
H3    H     H_    0.335744 0.259278 0.176853 0.200810
H4    H     H_    0.335637 0.259383 0.823206 0.200714
H5    H     H_    0.982883 0.822982 0.043394 0.137231
H6    H     H_    0.956585 0.873191 0.098269 0.148320
H7    H     H_    0.891284 0.859835 0.048343 0.189891
H8    H     H_    0.926593 0.827435 0.965300 0.147113
H9    H     H_    0.896255 0.891426 0.919003 0.206652
H10   H     H_    0.987448 0.854520 0.915551 0.131194
H11   H     H_    0.017079 0.176994 0.043384 0.134927
H12   H     H_    0.017435 0.947728 0.461499 0.054410
H13   H     H_    0.043363 0.126796 0.098267 0.147436
H14   H     H_    0.108681 0.140155 0.048352 0.179156
H15   H     H_    0.073416 0.172533 0.965301 0.139062
H16   H     H_    0.103739 0.108540 0.919002 0.201886
H17   H     H_    0.012550 0.145459 0.915555 0.131369
H18   H     H_    0.481972 0.323037 0.543298 0.137093
H19   H     H_    0.456210 0.373303 0.598257 0.148473
H20   H     H_    0.390607 0.360407 0.548454 0.190347
H21   H     H_    0.425524 0.327881 0.465324 0.147161
H22   H     H_    0.395529 0.392051 0.419057 0.206944
H23   H     H_    0.517484 0.447747 0.038499 0.054400
H24   H     H_    0.486494 0.354591 0.415540 0.131243
H25   H     H_    0.517938 0.676929 0.543306 0.134838
H26   H     H_    0.543776 0.626674 0.598255 0.147622
H27   H     H_    0.609332 0.639622 0.548433 0.179378
H28   H     H_    0.574411 0.672114 0.465317 0.139079
H29   H     H_    0.604459 0.607938 0.419068 0.202404
H30   H     H_    0.513480 0.645362 0.415523 0.131236
H31   H     H_    0.481976 0.447992 0.961517 0.052115
H32   H     H_    0.130323 0.725436 0.709717 0.204710
H33   H     H_    0.130333 0.725446 0.290301 0.204696
H34   H     H_    0.835672 0.759350 0.676816 0.200614
H35   H     H_    0.835678 0.759341 0.323185 0.200867
H36   H     H_    0.630345 0.225458 0.209678 0.204727
O1    O     O_3   0.000000 0.000000 0.250030 -0.514326
O2    O     O_R   0.585480 0.353820 0.219950 -0.553702
O3    O     O_R   0.414520 0.353820 0.780050 -0.556535
O4    O     O_R   0.414520 0.353820 0.219950 -0.555474
O5    O     O_R   0.914530 0.146170 0.280090 -0.468910
O6    O     O_R   0.914530 0.146170 0.719910 -0.472174
O7    O     O_R   0.085470 0.146170 0.280090 -0.465175
O8    O     O_R   0.085470 0.146170 0.719910 -0.461884
O9    O     O_R   0.414530 0.646170 0.780090 -0.472406
O10   O     O_R   0.414530 0.646170 0.219910 -0.468639
O11   O     O_R   0.585470 0.646170 0.780090 -0.462393
O12   O     O_3   0.000000 0.000000 0.749970 -0.511978
O13   O     O_R   0.585470 0.646170 0.219910 -0.464671
O14   O     O_R   0.146180 0.085440 0.219990 -0.469513
O15   O     O_R   0.146180 0.085440 0.780010 -0.471640
O16   O     O_R   0.853820 0.085440 0.219990 -0.473580
O17   O     O_R   0.853820 0.085440 0.780010 -0.473426
O18   O     O_R   0.646180 0.585440 0.719990 -0.469546
O19   O     O_R   0.646180 0.585440 0.280010 -0.471728
O20   O     O_R   0.353820 0.585440 0.719990 -0.473295
O21   O     O_R   0.353820 0.585440 0.280010 -0.473701
O22   O     O_R   0.853820 0.914550 0.219980 -0.450967
O23   O     O_3   0.500000 0.500000 0.750030 -0.514179
O24   O     O_R   0.853820 0.914550 0.780020 -0.453329
O25   O     O_R   0.146180 0.914550 0.219980 -0.454300
O26   O     O_R   0.146180 0.914550 0.780020 -0.454461
O27   O     O_R   0.353820 0.414550 0.719980 -0.451195
O28   O     O_R   0.353820 0.414550 0.280020 -0.453202
O29   O     O_R   0.646180 0.414550 0.719980 -0.454293
O30   O     O_R   0.646180 0.414550 0.280020 -0.454446
O31   O     O_R   0.060720 0.999990 0.135450 -0.524420
O32   O     O_R   0.060720 0.999990 0.864550 -0.530463
O33   O     O_R   0.939280 0.999990 0.135450 -0.524805
O34   O     O_3   0.500000 0.500000 0.249970 -0.512053
O35   O     O_R   0.939280 0.999990 0.864550 -0.530907
O36   O     O_R   0.560720 0.499990 0.635450 -0.524687
O37   O     O_R   0.560720 0.499990 0.364550 -0.530432
O38   O     O_R   0.439280 0.499990 0.635450 -0.524731
O39   O     O_R   0.439280 0.499990 0.364550 -0.531272
O40   O     O_R   1.000000 0.939270 0.364600 -0.548562
O41   O     O_R   1.000000 0.939270 0.635400 -0.548023
O42   O     O_R   0.500000 0.439270 0.864600 -0.547946
O43   O     O_R   0.500000 0.439270 0.135400 -0.548634
O44   O     O_R   0.000000 0.060730 0.364620 -0.438196
O45   O     O_R   0.085480 0.853820 0.280050 -0.553960
O46   O     O_R   1.000000 0.060730 0.635380 -0.439633
O47   O     O_R   0.500000 0.560730 0.864620 -0.439544
O48   O     O_R   0.500000 0.560730 0.135380 -0.438276
O49   O     O_R   0.085480 0.853820 0.719950 -0.553094
O50   O     O_R   0.914520 0.853820 0.280050 -0.556003
O51   O     O_R   0.914520 0.853820 0.719950 -0.556036
O52   O     O_R   0.585480 0.353820 0.780050 -0.553348
Zn1   Zn    Zn3+2 0.000000 0.086760 0.292960 1.092583
Zn2   Zn    Zn3+2 0.586770 0.499990 0.292890 1.031169
Zn3   Zn    Zn3+2 0.413230 0.499990 0.707110 1.031849
Zn4   Zn    Zn3+2 0.413230 0.499990 0.292890 1.028693
Zn5   Zn    Zn3+2 0.000000 0.913240 0.292940 0.951170
Zn6   Zn    Zn3+2 1.000000 0.913240 0.707060 0.952491
Zn7   Zn    Zn3+2 0.500000 0.413240 0.792940 0.951387
Zn8   Zn    Zn3+2 0.500000 0.413240 0.207060 0.952334
Zn9   Zn    Zn3+2 0.000000 0.086760 0.707040 1.092878
Zn10  Zn    Zn3+2 0.500000 0.586760 0.792960 1.091767
Zn11  Zn    Zn3+2 0.500000 0.586760 0.207040 1.093761
Zn12  Zn    Zn3+2 0.086770 0.999990 0.207110 1.035196
Zn13  Zn    Zn3+2 0.086770 0.999990 0.792890 1.032218
Zn14  Zn    Zn3+2 0.913230 0.999990 0.207110 1.032850
Zn15  Zn    Zn3+2 0.913230 0.999990 0.792890 1.027874
Zn16  Zn    Zn3+2 0.586770 0.499990 0.707110 1.036064

loop_
_geom_bond_atom_site_label_1
_geom_bond_atom_site_label_2
_ccdc_geom_bond_type
C100  H25   S    
C78   C87   A    
O5    Zn1   S    
O9    Zn10  S    
C43   O14   A    
C23   C45   S    
O21   Zn4   S    
O40   Zn5   S    
O45   Zn5   S    
O12   Zn6   S    
C41   O16   A    
C9    C14   A    
C5    C18   A    
C67   F24   S    
C96   H11   S    
C55   O46   A    
O1    Zn5   S    
O30   Zn2   S    
C4    C87   A    
O23   Zn3   S    
O33   Zn14  S    
C7    C11   A    
C83   C92   A    
C99   H21   S    
O16   Zn14  S    
C53   O39   A    
O11   Zn10  S    
C57   C89   S    
O31   Zn12  S    
C72   F28   S    
C34   C40   A    
C17   C26   A    
C58   O43   A    
C28   C94   S    
C28   C29   A    
C25   C73   A    
C39   C53   S    
O37   Zn2   S    
C51   O32   A    
C30   C31   A    
C37   C51   S    
C56   C66   S    
C98   H19   S    
O23   Zn16  S    
O41   Zn6   S    
C16   C25   A    
C94   H5    S    
C30   C38   A    
C24   O22   A    
C50   O31   A    
C13   O49   A    
O35   Zn15  S    
C97   H15   S    
C30   C96   S    
C69   C82   A    
C42   O6    A    
C17   F20   S    
C26   C74   A    
C96   H13   S    
C49   O19   A    
O48   Zn11  S    
C24   O50   A    
O20   Zn3   S    
C22   C44   S    
C32   C98   S    
C35   O24   A    
O47   Zn10  S    
C55   C63   S    
C3    H30   S    
C34   C100  S    
C19   C67   A    
C8    C92   A    
C79   O4    A    
C47   O21   A    
O24   Zn15  S    
C2    C16   A    
C75   C80   A    
C10   C19   A    
O14   Zn12  S    
C10   F14   S    
O1    Zn1   S    
C48   O11   A    
C81   C89   A    
C70   F26   S    
C31   C97   S    
C69   F25   S    
C59   C60   S    
C21   C43   S    
C5    C88   A    
C71   F27   S    
O34   Zn2   S    
C35   C87   S    
C95   H8    S    
O4    Zn8   S    
C27   C75   A    
C44   O15   A    
C62   F23   S    
C99   H22   S    
C50   O33   A    
C49   O13   A    
C42   O17   A    
C77   H33   S    
C55   O41   A    
C4    F7    S    
C11   C20   A    
C95   H9    S    
C62   C66   D    
C1    O45   A    
C59   F1    S    
C56   O47   A    
C16   F19   S    
O27   Zn3   S    
C29   C95   S    
O23   Zn10  S    
C43   O7    A    
C57   O2    A    
C98   H18   S    
C68   O27   A    
C13   C85   S    
C40   C52   S    
O12   Zn15  S    
C41   O5    A    
C12   C21   A    
C84   H4    S    
O1    Zn12  S    
C53   O37   A    
C82   C91   A    
C31   C37   A    
C61   F22   S    
C33   C99   S    
O38   Zn3   S    
C65   H23   S    
O34   Zn8   S    
O10   Zn11  S    
C44   O8    A    
C97   H16   S    
C83   H3    S    
C60   F12   S    
O50   Zn5   S    
C45   O9    A    
O13   Zn11  S    
O49   Zn6   S    
C58   C65   S    
C28   C38   A    
O42   Zn7   S    
C8    C12   A    
C14   F17   S    
C7    C91   A    
O23   Zn7   S    
O12   Zn9   S    
C94   H7    S    
C19   C41   S    
C72   C76   A    
C33   C39   A    
C70   C83   A    
C24   C88   S    
O8    Zn9   S    
O3    Zn7   S    
C79   C92   S    
O7    Zn1   S    
C51   O35   A    
C38   C50   S    
C4    C17   A    
O39   Zn4   S    
C100  H27   S    
O18   Zn16  S    
C73   F2    S    
C77   C86   A    
C78   H34   S    
O19   Zn2   S    
C46   O52   A    
C79   O28   A    
O1    Zn14  S    
O46   Zn9   S    
C20   C69   A    
C8    F11   S    
O25   Zn12  S    
C82   H2    S    
O28   Zn4   S    
O2    Zn8   S    
O51   Zn6   S    
C9    C93   A    
C22   C71   A    
C32   C40   A    
C11   F15   S    
O34   Zn11  S    
C46   O29   A    
C71   C84   A    
C64   H12   S    
C100  H26   S    
C1    C86   S    
C25   C47   S    
C76   H32   S    
C95   H10   S    
C97   H17   S    
C23   C72   A    
C36   C39   A    
O34   Zn4   S    
C18   C27   A    
C90   F5    S    
C6    C10   A    
C80   H35   S    
C20   C42   S    
C85   C90   A    
C7    F10   S    
C67   C81   A    
O22   Zn14  S    
C26   C48   S    
C81   H36   S    
C6    C89   A    
C99   H24   S    
C57   O30   A    
C54   O44   A    
C68   C93   S    
O29   Zn16  S    
C15   F18   S    
C21   C70   A    
C60   C64   D    
O26   Zn13  S    
C9    F13   S    
C32   C33   A    
C14   C22   A    
C58   O48   A    
O52   Zn7   S    
O44   Zn1   S    
C80   C88   A    
C52   O36   A    
C15   C90   A    
C48   O18   A    
C75   F4    S    
C98   H20   S    
C3    C36   S    
O17   Zn15  S    
C54   O40   A    
O12   Zn13  S    
C15   C23   A    
C3    H28   S    
C94   H6    S    
C34   C36   A    
C2    F6    S    
C59   C63   D    
C2    C86   A    
C52   O38   A    
C84   C93   A    
C63   H1    S    
C61   C62   S    
C47   O10   A    
C13   O26   A    
C18   F21   S    
C96   H14   S    
C66   H31   S    
C68   O3    A    
C61   C65   D    
O43   Zn8   S    
C56   O42   A    
O32   Zn13  S    
C54   C64   S    
O15   Zn13  S    
C74   C78   A    
O6    Zn9   S    
C29   C37   A    
C3    H29   S    
C73   C77   A    
O36   Zn16  S    
C6    F9    S    
C35   O51   A    
C76   C85   A    
C46   C91   S    
C27   C49   S    
C45   O20   A    
C74   F3    S    
C12   F16   S    
C5    F8    S    
C1    O25   A    
