data_mof_unit_29512.cif
_audit_creation_date              2012-12-11T16:08:42-0500
_audit_creation_method            fapswitch 2.2
_symmetry_space_group_name_H-M    P1
_symmetry_Int_Tables_number       1
_space_group_crystal_system       triclinic
_cell_length_a                    12.891719
_cell_length_b                    13.295958
_cell_length_c                    27.681323
_cell_angle_alpha                 94.800629
_cell_angle_beta                  90.462229
_cell_angle_gamma                 119.273284
_cell_volume                      4117.79608768

loop_
_atom_site_label
_atom_site_type_symbol
_atom_type_description
_atom_site_fract_x
_atom_site_fract_y
_atom_site_fract_z
_atom_type_partial_charge
C1    C     C_R   0.628752 0.894794 0.427663 0.557085
C2    C     C_R   0.762392 0.440636 0.239721 -0.069909
C3    C     C_R   0.751417 0.425031 0.289208 0.175177
C4    C     C_R   0.670498 0.315801 0.303549 0.039865
C5    C     C_R   0.693056 0.348251 0.204540 0.012232
C6    C     C_1   0.698423 0.368736 0.154143 -0.028294
C7    C     C_1   0.653829 0.295732 0.353965 -0.000317
C8    C     C_1   0.704811 0.394889 0.113175 0.014235
C9    C     C_R   0.180224 0.751544 0.349991 -0.086140
C10   C     C_R   0.168136 0.745463 0.300059 0.037838
C11   C     C_R   0.159366 0.738056 0.199502 0.013707
C12   C     C_R   0.601348 0.222386 0.440607 0.545860
C13   C     C_R   0.157927 0.646745 0.221713 -0.112580
C14   C     C_R   0.160219 0.649498 0.271806 -0.112403
C15   C     C_R   0.147442 0.730014 0.149529 -0.107549
C16   C     C_R   0.127196 0.809747 0.127109 -0.011931
C17   C     C_R   0.203014 0.944591 0.357321 -0.083304
C18   C     C_R   0.185037 0.938460 0.306864 -0.012820
C19   C     C_R   0.171959 0.839489 0.278142 0.023177
C20   C     C_R   0.187260 0.031077 0.284307 0.199883
C21   C     C_R   0.174073 0.023393 0.233298 0.174626
C22   C     C_R   0.161890 0.924538 0.204779 -0.018777
C23   C     C_R   0.268105 0.875941 0.425842 0.545170
C24   C     C_R   0.164953 0.834581 0.227507 0.018838
C25   C     C_R   0.140691 0.909769 0.154152 -0.107762
C26   C     C_R   0.207505 0.854257 0.378292 0.003501
C27   C     C_R   0.757928 0.929773 0.357800 0.180371
C28   C     C_R   0.755849 0.929795 0.307029 0.025128
C29   C     C_R   0.753098 0.917705 0.205692 -0.051328
C30   C     C_R   0.843038 0.014017 0.233456 -0.101805
C31   C     C_R   0.844180 0.022214 0.283772 0.295183
C32   C     C_R   0.761555 0.907568 0.156242 -0.150466
C33   C     C_R   0.679167 0.808019 0.127563 0.002552
C34   C     C_R   0.628243 0.898211 0.564496 0.553313
C35   C     C_R   0.557543 0.764743 0.351500 -0.144397
C36   C     C_R   0.562343 0.752023 0.301284 -0.021340
C37   C     C_R   0.658711 0.836870 0.278609 -0.016552
C38   C     C_R   0.469778 0.657892 0.273564 -0.089180
C39   C     C_R   0.471499 0.644421 0.223077 0.186143
C40   C     C_R   0.564700 0.732162 0.198627 0.038487
C41   C     C_R   0.658281 0.828759 0.227591 -0.007558
C42   C     C_R   0.573054 0.727261 0.147204 0.167598
C43   C     C_R   0.652085 0.857265 0.379621 0.001883
C44   C     C_R   0.762716 0.330608 0.648370 0.135710
C45   C     C_R   0.605626 0.229974 0.578062 0.560438
C46   C     C_R   0.785931 0.378956 0.697333 0.025430
C47   C     C_R   0.810748 0.444782 0.798061 0.003456
C48   C     C_R   0.895394 0.423300 0.775381 -0.113316
C49   C     C_R   0.883372 0.390784 0.725649 -0.090068
C50   C     C_R   0.816343 0.465552 0.848450 -0.157948
C51   C     C_R   0.725720 0.476077 0.872055 -0.018148
C52   C     C_R   0.588340 0.356299 0.643852 -0.130544
C53   C     C_R   0.611167 0.405824 0.691764 0.007433
C54   C     C_R   0.705885 0.410418 0.719549 0.004441
C55   C     C_R   0.536394 0.443640 0.713571 0.150569
C56   C     C_R   0.271496 0.879259 0.563308 0.554055
C57   C     C_R   0.546634 0.471308 0.763529 -0.065603
C58   C     C_R   0.632238 0.464275 0.792747 -0.012181
C59   C     C_R   0.717441 0.441725 0.770081 0.021315
C60   C     C_R   0.632623 0.476403 0.843853 0.120861
C61   C     C_R   0.656138 0.309240 0.623264 -0.007243
C62   C     C_1   0.220735 0.861172 0.609790 0.013409
C63   C     C_R   0.194185 0.760223 0.724783 -0.082417
C64   C     C_R   0.182077 0.753074 0.774725 0.162673
C65   C     C_R   0.116253 0.896258 0.778152 -0.143231
C66   C     C_R   0.128324 0.902887 0.728172 -0.115812
C67   C     C_1   0.633733 0.269306 0.394838 0.024158
C68   C     C_R   0.167520 0.834978 0.701431 -0.001091
C69   C     C_R   0.144039 0.822335 0.801709 0.031022
C70   C     C_1   0.124739 0.811968 0.852635 -0.020467
C71   C     C_1   0.190962 0.848402 0.650980 -0.038922
C72   C     C_1   0.100387 0.796359 0.894257 0.011530
C73   C     C_1   0.648502 0.859831 0.608585 0.020170
C74   C     C_R   0.751669 0.778825 0.712050 -0.106056
C75   C     C_R   0.762848 0.763937 0.760810 -0.167514
C76   C     C_R   0.604589 0.808595 0.779930 0.310262
C77   C     C_R   0.591518 0.819645 0.730353 -0.075384
C78   C     C_R   0.602820 0.223145 0.268191 -0.135208
C79   C     C_R   0.666583 0.807589 0.696913 0.016431
C80   C     C_R   0.690157 0.779281 0.794678 0.046839
C81   C     C_1   0.707686 0.770153 0.845118 0.018687
C82   C     C_1   0.659356 0.832735 0.647939 -0.019803
C83   C     C_1   0.724155 0.763344 0.887281 0.031986
C84   C     C_R   0.065777 0.772778 0.079072 0.551522
C85   C     C_R   0.717019 0.440883 0.067231 0.555450
C86   C     C_R   0.718899 0.783341 0.080570 0.578050
C87   C     C_R   0.056326 0.765964 0.941207 0.533605
C88   C     C_R   0.732885 0.491988 0.925795 0.541626
C89   C     C_R   0.613746 0.239314 0.218872 -0.094867
C90   C     C_R   0.748234 0.755059 0.936886 0.532128
Cr1   Cr    Cr6+3 0.416430 0.829200 0.492370 1.056531
Cr2   Cr    Cr6+3 0.674630 0.087020 0.504170 1.122017
Cr3   Cr    Cr6+3 0.408920 0.083740 0.503490 1.077086
Cr4   Cr    Cr6+3 0.914010 0.832750 0.013970 1.043667
Cr5   Cr    Cr6+3 0.922310 0.578600 0.003000 1.054024
Cr6   Cr    Cr6+3 0.656280 0.574630 0.003870 1.142388
H1    H     H_    0.540260 0.138498 0.278814 0.119323
H2    H     H_    0.222477 0.022337 0.380232 0.192712
H3    H     H_    0.839235 0.974280 0.140677 0.162567
H4    H     H_    0.913315 0.084054 0.216110 0.172547
H5    H     H_    0.397235 0.591475 0.291572 0.150105
H6    H     H_    0.559101 0.167544 0.192044 0.137521
H7    H     H_    0.477551 0.705660 0.368404 0.142169
H8    H     H_    0.889382 0.468579 0.869429 0.162338
H9    H     H_    0.968446 0.426796 0.796476 0.169787
H10   H     H_    0.948817 0.370761 0.710451 0.190307
H11   H     H_    0.485497 0.497229 0.778818 0.213309
H12   H     H_    0.511503 0.346086 0.623328 0.198685
H13   H     H_    0.225754 0.708397 0.704294 0.163086
H14   H     H_    0.823426 0.525385 0.228748 0.146229
H15   H     H_    0.084905 0.948528 0.798419 0.131169
H16   H     H_    0.108408 0.961697 0.710543 0.141365
H17   H     H_    0.810212 0.769519 0.686416 0.136989
H18   H     H_    0.829409 0.742172 0.772297 0.124517
H19   H     H_    0.524214 0.839162 0.717739 0.107448
H20   H     H_    0.140232 0.653845 0.128663 0.167110
H21   H     H_    0.181034 0.680440 0.366258 0.141304
H22   H     H_    0.152122 0.571931 0.200288 0.164761
H23   H     H_    0.158484 0.577792 0.288483 0.120086
H24   H     H_    0.126539 0.971050 0.135793 0.180347
O1    O     O_R   0.296680 0.802170 0.437540 -0.518693
O2    O     O_R   0.662610 0.183990 0.557860 -0.446624
O3    O     O_R   0.500730 0.201280 0.562180 -0.515584
O4    O     O_R   0.312500 0.978850 0.548170 -0.486988
O5    O     O_3   0.499990 0.999990 0.500010 -0.273909
O6    O     O_R   0.820790 0.857990 0.068830 -0.518385
O7    O     O_R   0.016700 0.827330 0.062850 -0.495606
O8    O     O_R   0.041970 0.673520 0.060040 -0.503265
O9    O     O_R   0.817980 0.483660 0.048840 -0.493123
O10   O     O_R   0.637200 0.461990 0.052510 -0.467617
O11   O     O_R   0.664790 0.681920 0.057970 -0.444776
O12   O     O_R   0.525380 0.838530 0.443500 -0.512810
O13   O     O_R   0.815840 0.852920 0.961840 -0.496879
O14   O     O_R   0.012100 0.822630 0.963670 -0.516100
O15   O     O_R   0.037010 0.668460 0.953040 -0.493983
O16   O     O_R   0.813390 0.478970 0.949660 -0.503301
O17   O     O_R   0.632250 0.456930 0.945520 -0.446786
O18   O     O_R   0.660200 0.677230 0.958780 -0.450662
O19   O     O_3   0.830870 0.661990 0.006950 -0.316310
O20   O     O_R   0.702130 0.995190 0.446810 -0.465985
O21   O     O_R   0.661770 0.181390 0.458760 -0.494617
O22   O     O_R   0.499820 0.198480 0.455280 -0.491470
O23   O     O_R   0.311660 0.976250 0.449080 -0.497267
O24   O     O_R   0.297580 0.804960 0.544440 -0.492180
O25   O     O_R   0.526220 0.841130 0.542590 -0.493235
O26   O     O_R   0.703030 0.997990 0.553710 -0.464953
Br1   Br    Br    0.176807 0.150530 0.203106 -0.417959
Br2   Br    Br    0.209956 0.169677 0.322471 -0.371911
Br3   Br    Br    0.906133 0.014210 0.397160 -0.369953
O27   O     O_3   0.929724 0.123468 0.309420 -0.471009
C91   C     C_3   0.887192 0.203508 0.313400 0.012548
H25   H     H_    0.804704 0.169756 0.333974 0.129516
H26   H     H_    0.868431 0.222699 0.276919 0.121879
C92   C     C_3   0.981481 0.316470 0.340638 -0.314733
H27   H     H_    0.064521 0.353083 0.320657 0.186884
H28   H     H_    0.948909 0.379984 0.344010 0.125271
H29   H     H_    0.001111 0.300899 0.377551 0.203777
Br4   Br    Br    0.438828 0.633166 0.101621 -0.394637
Br5   Br    Br    0.352040 0.494295 0.194279 -0.385864
Br6   Br    Br    0.875525 0.292902 0.617407 -0.456242
Br7   Br    Br    0.499055 0.483558 0.873029 -0.423868
Br8   Br    Br    0.415142 0.455747 0.677721 -0.477297
Br9   Br    Br    0.218197 0.647770 0.804517 -0.472144
O28   O     O_3   0.531661 0.819575 0.814290 -0.504718
C93   C     C_3   0.523340 0.920853 0.810447 0.000351
H30   H     H_    0.455011 0.904436 0.781542 0.148258
H31   H     H_    0.610404 0.995919 0.802730 0.117009
C94   C     C_3   0.484644 0.953522 0.858236 -0.327154
H32   H     H_    0.551758 0.971920 0.887966 0.171811
H33   H     H_    0.476135 0.032042 0.855430 0.110604
H34   H     H_    0.397243 0.881548 0.866984 0.204106
Br10  Br    Br    0.845801 0.555093 0.335797 -0.519780

loop_
_geom_bond_atom_site_label_1
_geom_bond_atom_site_label_2
_ccdc_geom_bond_type
C84   O8    A    
C66   C68   A    
C50   H8    S    
C93   H30   S    
C89   H6    S    
C86   O6    A    
C9    H21   S    
C35   C36   A    
Cr3   O4    S    
C1    O12   A    
Cr2   O5    S    
Cr6   O19   S    
C13   H22   S    
C23   O1    A    
C53   C54   A    
C45   O3    A    
C46   C49   A    
C33   C42   A    
C56   O4    A    
O28   C93   S    
C60   Br7   S    
C18   C19   A    
C38   H5    S    
C35   H7    S    
C52   C61   A    
C64   Br9   S    
Cr6   O18   S    
C5    C6    S    
C34   O25   A    
C65   C69   A    
C86   O11   A    
C91   C92   S    
C11   C13   A    
Cr4   O6    S    
C58   C60   A    
C15   C16   A    
C30   H4    S    
C11   C24   A    
C16   C84   S    
Cr4   O13   S    
C12   O21   A    
C18   C20   A    
C8    C85   S    
C23   C26   S    
C45   C61   S    
C65   H15   S    
C17   H2    S    
C85   O9    A    
C94   H32   S    
C11   C15   A    
Cr5   O8    S    
C1    C43   S    
C94   H34   S    
C47   C48   A    
C22   C25   A    
C36   C37   A    
C91   H25   S    
C20   Br2   S    
C35   C43   A    
C75   C80   A    
C92   H28   S    
Cr3   O23   S    
C45   O2    A    
C39   Br5   S    
C84   O7    A    
C40   C42   A    
C93   H31   S    
C21   C22   A    
Cr4   O19   S    
C87   O14   A    
C23   O23   A    
C42   Br4   S    
C4    C7    S    
C81   C83   T    
C44   C46   A    
C9    C26   A    
C50   C51   A    
C47   C50   A    
C54   C59   A    
C53   C55   A    
C78   C89   A    
C38   C39   A    
C12   C67   S    
C74   C75   A    
Cr2   O26   S    
C87   O15   A    
C76   C77   A    
C88   O16   A    
C92   H29   S    
C10   C14   A    
C39   C40   A    
C90   O13   A    
C6    C8    T    
Cr1   O12   S    
C58   C59   A    
Cr4   O7    S    
C74   H17   S    
C47   C59   A    
C90   O18   A    
C33   C86   S    
C4    C78   A    
C29   C30   A    
Cr2   O2    S    
C85   O10   A    
C48   H9    S    
C10   C19   A    
C46   C54   A    
C78   H1    S    
Cr5   O15   S    
C17   C18   A    
C77   C79   A    
C75   H18   S    
C64   C69   A    
Cr2   O21   S    
C92   H27   S    
C1    O20   A    
Cr6   O11   S    
C40   C41   A    
C57   H11   S    
C14   H23   S    
C93   C94   S    
C74   C79   A    
C55   C57   A    
C44   Br6   S    
C22   C24   A    
C76   O28   S    
C2    C5    A    
C76   C80   A    
C17   C26   A    
C3    C4    A    
Cr2   O20   S    
C25   H24   S    
C21   Br1   S    
C73   C82   T    
Cr1   O25   S    
C72   C87   S    
C52   C53   A    
Cr6   O10   S    
Cr1   O24   S    
C9    C10   A    
C16   C25   A    
C31   O27   S    
C83   C90   S    
C63   C68   A    
C2    H14   S    
Cr1   O5    S    
C29   C41   A    
O27   C91   S    
Cr6   O17   S    
C28   C31   A    
Cr3   O3    S    
C55   Br8   S    
C80   C81   S    
C51   C88   S    
C79   C82   S    
C49   H10   S    
C44   C61   A    
C29   C32   A    
Cr5   O19   S    
C32   H3    S    
C32   C33   A    
C36   C38   A    
C19   C24   A    
C77   H19   S    
C34   O26   A    
C57   C58   A    
C30   C31   A    
C28   C37   A    
C68   C71   S    
C48   C49   A    
C94   H33   S    
Cr5   O16   S    
Cr4   O14   S    
C12   O22   A    
C62   C71   T    
C2    C3    A    
C56   C62   S    
C91   H26   S    
C37   C41   A    
C69   C70   S    
C3    Br10  S    
Cr3   O5    S    
C88   O17   A    
C34   C73   S    
C7    C67   T    
C63   C64   A    
C56   O24   A    
C27   C43   A    
C20   C21   A    
C52   H12   S    
C27   Br3   S    
C65   C66   A    
Cr1   O1    S    
C27   C28   A    
Cr5   O9    S    
C15   H20   S    
C70   C72   T    
C51   C60   A    
C66   H16   S    
C13   C14   A    
C5    C89   A    
Cr3   O22   S    
C63   H13   S    
