data_mof_unit_30507.cif
_audit_creation_date              2012-12-10T19:30:35-0500
_audit_creation_method            fapswitch 2.2
_symmetry_space_group_name_H-M    P1
_symmetry_Int_Tables_number       1
_space_group_crystal_system       triclinic
_cell_length_a                    14.914412
_cell_length_b                    15.748263
_cell_length_c                    16.200325
_cell_angle_alpha                 89.957802
_cell_angle_beta                  84.780192
_cell_angle_gamma                 89.941598
_cell_volume                      3789.28651617

loop_
_atom_site_label
_atom_site_type_symbol
_atom_type_description
_atom_site_fract_x
_atom_site_fract_y
_atom_site_fract_z
_atom_type_partial_charge
C1    C     C_R   0.499969 0.662491 0.499957 0.912320
C2    C     C_R   0.500025 0.337471 0.500178 0.901077
C3    C     C_3   0.472963 0.028005 0.431949 0.290748
C4    C     C_3   0.526975 0.971645 0.571495 0.292022
C5    C     C_3   0.556732 0.972005 0.437110 -0.248077
C6    C     C_3   0.443203 0.027742 0.566349 -0.248962
C7    C     C_1   0.499833 0.751176 0.500080 -0.186758
C8    C     C_1   0.500086 0.248714 0.501270 -0.192571
C9    C     C_3   0.415066 0.972050 0.493653 -0.211222
C10   C     C_3   0.584886 0.027677 0.509804 -0.212737
C11   C     C_3   0.499539 0.916919 0.500507 0.103337
C12   C     C_3   0.500393 0.082857 0.502878 0.104098
C13   C     C_1   0.499680 0.826292 0.500252 -0.057292
C14   C     C_1   0.500226 0.173558 0.502231 -0.058209
C15   C     C_3   0.037436 0.499585 0.423441 0.592989
C16   C     C_3   0.961942 0.501016 0.576728 0.589884
C17   C     C_3   0.973885 0.429429 0.461212 -0.310244
C18   C     C_3   0.025668 0.571162 0.539110 -0.311920
C19   C     C_3   0.973798 0.570405 0.459877 -0.309302
C20   C     C_3   0.025689 0.430204 0.540499 -0.308962
C21   C     C_3   0.910451 0.500241 0.498929 0.003347
C22   C     C_3   0.089286 0.500305 0.501162 0.001437
C23   C     C_R   0.487494 0.500668 0.655819 0.907640
C24   C     C_R   0.512748 0.501408 0.344660 0.875205
C25   C     C_1   0.810283 0.500107 0.499515 0.106453
C26   C     C_1   0.189641 0.500145 0.500493 0.098739
C27   C     C_R   0.478961 0.517709 0.745841 -0.137303
C28   C     C_R   0.521735 0.525097 0.256971 -0.148584
C29   C     C_R   0.555265 0.522818 0.791953 0.113281
C30   C     C_R   0.460309 0.497651 0.201408 0.065917
C31   C     C_R   0.546261 0.558935 0.872843 0.353566
C32   C     C_R   0.465838 0.531940 0.120094 0.455561
C33   C     C_R   0.461772 0.595508 0.903138 -0.034423
C34   C     C_R   0.520284 0.605554 0.102040 -0.037665
C35   C     C_R   0.386666 0.582941 0.858562 -0.193571
C36   C     C_R   0.582630 0.628912 0.157610 -0.255649
C37   C     C_R   0.394683 0.543046 0.782346 -0.303807
C38   C     C_R   0.585406 0.587350 0.232504 -0.250333
C39   C     C_2   0.447217 0.648869 0.979583 0.432455
C40   C     C_2   0.515291 0.660566 0.027136 0.435553
H1    H     H_    0.046734 0.373443 0.574545 0.150034
H2    H     H_    0.952482 0.627439 0.426404 0.147980
H3    H     H_    0.632647 0.609630 0.274678 0.176343
H4    H     H_    0.335139 0.538664 0.748961 0.184848
H5    H     H_    0.320972 0.607222 0.880959 0.199525
H6    H     H_    0.628866 0.681067 0.144228 0.185624
H7    H     H_    0.601367 0.947812 0.383692 0.148241
H8    H     H_    0.398554 0.051922 0.619761 0.147193
H9    H     H_    0.653459 0.051882 0.517688 0.146299
H10   H     H_    0.346494 0.947797 0.485840 0.146197
H11   H     H_    0.952754 0.371907 0.428524 0.149330
H12   H     H_    0.046808 0.628736 0.571701 0.148268
N1    N     N_1   0.731990 0.500000 0.499970 -0.094575
N2    N     N_1   0.268010 0.500000 0.500030 -0.095049
O1    O     O_R   0.425540 0.623220 0.500000 -0.607997
O2    O     O_R   0.574460 0.376780 0.500000 -0.612892
O3    O     O_R   0.574480 0.623220 0.499990 -0.606671
O4    O     O_R   0.425520 0.376780 0.500010 -0.605407
O5    O     O_R   0.416730 0.500010 0.615810 -0.621500
O6    O     O_R   0.583270 0.499990 0.384190 -0.613802
O7    O     O_R   0.565670 0.500010 0.615790 -0.572218
O8    O     O_R   0.434330 0.499990 0.384210 -0.597548
Zn1   Zn    Zn3+2 0.400550 0.500000 0.500010 0.962244
Zn2   Zn    Zn3+2 0.599450 0.500000 0.499990 0.967822
N3    N     N_2   0.641934 0.499658 0.754019 -0.280207
H13   H     H_    0.696091 0.537101 0.765394 0.243996
C41   C     C_3   0.659583 0.409953 0.739604 -0.741554
H14   H     H_    0.689011 0.400710 0.674827 0.270809
H15   H     H_    0.597073 0.371428 0.749611 0.220563
H16   H     H_    0.708814 0.386204 0.781504 0.204026
N4    N     N_2   0.392163 0.437185 0.226810 -0.331435
H17   H     H_    0.407516 0.394892 0.272048 0.221593
C42   C     C_3   0.301846 0.471324 0.239352 -0.669319
H18   H     H_    0.297210 0.519056 0.290016 0.257762
H19   H     H_    0.253727 0.419150 0.256551 0.234463
H20   H     H_    0.282328 0.501436 0.181631 0.257047
O9    O     O_3   0.082074 0.498567 0.342744 -0.657199
C43   C     C_3   0.017975 0.500874 0.283790 0.064097
H21   H     H_    0.977897 0.560594 0.289929 0.138384
H22   H     H_    0.971884 0.445251 0.291439 0.137346
C44   C     C_3   0.066822 0.497948 0.196720 -0.313100
H23   H     H_    0.113787 0.552697 0.188243 0.228259
H24   H     H_    0.106631 0.438310 0.189170 0.223449
C45   C     C_3   0.000640 0.501394 0.130203 -0.971776
H25   H     H_    0.953936 0.446383 0.136512 0.264194
H26   H     H_    0.038346 0.499072 0.067904 0.273748
H27   H     H_    0.961022 0.561235 0.135438 0.262739
O10   O     O_3   0.914628 0.501452 0.656230 -0.650371
C46   C     C_3   0.975758 0.505199 0.717522 0.075195
H28   H     H_    0.016832 0.564219 0.710769 0.135482
H29   H     H_    0.021001 0.448758 0.713533 0.135093
C47   C     C_3   0.922451 0.505961 0.802737 -0.315595
H30   H     H_    0.875737 0.561183 0.806922 0.223830
H31   H     H_    0.881706 0.446962 0.810738 0.216247
C48   C     C_3   0.984542 0.511808 0.872366 -0.988816
H32   H     H_    0.029952 0.455783 0.871094 0.266770
H33   H     H_    0.943569 0.513472 0.933099 0.270976
H34   H     H_    0.025599 0.570648 0.865919 0.266715
O11   O     O_3   0.545512 0.743600 0.032845 -0.697816
C49   C     C_3   0.629267 0.753728 0.985608 0.058776
H35   H     H_    0.672614 0.696057 0.985197 0.176708
H36   H     H_    0.666960 0.803913 0.015946 0.155770
C50   C     C_3   0.615742 0.783592 0.897458 -0.336199
H37   H     H_    0.573191 0.737841 0.866762 0.218178
H38   H     H_    0.580744 0.846012 0.900416 0.213522
C51   C     C_3   0.705502 0.792236 0.844983 -0.936155
H39   H     H_    0.749165 0.839085 0.873245 0.255275
H40   H     H_    0.693482 0.814428 0.781845 0.269995
H41   H     H_    0.740429 0.729853 0.839606 0.273648
O12   O     O_3   0.358893 0.656741 0.015312 -0.642800
C52   C     C_3   0.338579 0.741224 0.040481 0.071838
H42   H     H_    0.271408 0.756980 0.020066 0.150569
H43   H     H_    0.385925 0.789560 0.011003 0.155670
C53   C     C_3   0.332955 0.747811 0.135176 -0.296590
H44   H     H_    0.283324 0.700848 0.162857 0.222628
H45   H     H_    0.399376 0.733144 0.157518 0.241246
C54   C     C_3   0.304580 0.836632 0.164672 -0.971708
H46   H     H_    0.354601 0.884328 0.139332 0.273108
H47   H     H_    0.300648 0.839020 0.233402 0.266654
H48   H     H_    0.237377 0.852730 0.144562 0.261045
O13   O     O_3   0.414420 0.498085 0.060546 -0.618766
C55   C     C_3   0.436843 0.411566 0.045044 0.080515
H49   H     H_    0.401685 0.370354 0.093092 0.182752
H50   H     H_    0.510662 0.400065 0.043504 0.110623
C56   C     C_3   0.405110 0.384275 0.961982 -0.316181
H51   H     H_    0.332313 0.398993 0.960910 0.240542
H52   H     H_    0.443055 0.419305 0.911038 0.227028
C57   C     C_3   0.420175 0.289505 0.946737 -1.003428
H53   H     H_    0.492851 0.273820 0.946476 0.263345
H54   H     H_    0.397412 0.272116 0.885597 0.269799
H55   H     H_    0.381184 0.251729 0.995554 0.269178
O14   O     O_3   0.620064 0.566725 0.919247 -0.694891
C58   C     C_3   0.662543 0.487747 0.932002 0.068621
H56   H     H_    0.722225 0.481711 0.886571 0.168036
H57   H     H_    0.617238 0.432129 0.926476 0.142361
C59   C     C_3   0.698373 0.486013 0.017486 -0.349240
H58   H     H_    0.737907 0.544566 0.026461 0.229089
H59   H     H_    0.641569 0.483166 0.066186 0.218941
C60   C     C_3   0.758086 0.408599 0.027551 -0.982417
H60   H     H_    0.719337 0.349288 0.020217 0.261936
H61   H     H_    0.782392 0.409059 0.090337 0.268493
H62   H     H_    0.817348 0.409698 0.980800 0.269734
N5    N     N_2   0.443943 0.062448 0.355933 -0.302909
H63   H     H_    0.488559 0.106119 0.328271 0.220099
C61   C     C_3   0.415561 0.999863 0.298537 -0.797650
H64   H     H_    0.390847 0.032400 0.244153 0.241523
H65   H     H_    0.359763 0.960848 0.328519 0.248298
H66   H     H_    0.472885 0.957995 0.276708 0.240015
N6    N     N_2   0.555954 0.936584 0.647287 -0.302413
H67   H     H_    0.511725 0.892192 0.674270 0.221685
C62   C     C_3   0.583437 0.998623 0.705601 -0.808655
H68   H     H_    0.608352 0.965534 0.759600 0.242563
H69   H     H_    0.525523 0.039585 0.727866 0.234532
H70   H     H_    0.638814 0.038594 0.676273 0.249735

loop_
_geom_bond_atom_site_label_1
_geom_bond_atom_site_label_2
_ccdc_geom_bond_type
C7    C13   T    
C16   C21   S    
C27   C29   A    
C11   C13   S    
C42   H18   S    
C48   H32   S    
C45   H27   S    
C57   H53   S    
C17   H11   S    
C6    C9    S    
C30   N4    S    
C48   H34   S    
C18   H12   S    
C15   O9    S    
O9    C43   S    
C15   C19   S    
C4    N6    S    
C5    H7    S    
C33   C39   S    
C6    H8    S    
C34   C40   S    
C35   C37   A    
C25   N1    T    
C5    C11   S    
N6    C62   S    
C6    C12   S    
N1    Zn2   S    
C43   H22   S    
C51   H39   S    
N5    H63   S    
C17   C20   S    
C15   C17   S    
C18   C19   S    
C62   H70   S    
O12   C52   S    
C47   H30   S    
C3    C12   S    
C61   H65   S    
C50   H38   S    
C15   C22   S    
C52   H42   S    
O14   C58   S    
N3    C41   S    
O1    Zn1   S    
C56   C57   S    
C24   O8    A    
C62   H68   S    
O2    Zn2   S    
C36   H6    S    
C23   C27   S    
C46   H29   S    
C19   H2    S    
C16   C20   S    
C62   H69   S    
C1    C7    S    
C58   H57   S    
C42   H19   S    
C52   C53   S    
C40   O11   S    
C59   C60   S    
C20   H1    S    
C26   N2    T    
C47   H31   S    
C44   H24   S    
C61   H64   S    
C39   O12   S    
C31   C33   A    
C41   H14   S    
C3    N5    S    
C45   H25   S    
C4    C6    S    
C54   H48   S    
C46   H28   S    
C39   C40   D    
N4    C42   S    
C43   H21   S    
C49   C50   S    
C44   H23   S    
C41   H15   S    
C32   C34   A    
O7    Zn2   S    
C23   O5    A    
C31   O14   S    
C3    C9    S    
C1    O3    A    
C58   C59   S    
N2    Zn1   S    
O11   C49   S    
C28   C38   A    
C24   O6    A    
C4    C11   S    
O8    Zn1   S    
C49   H36   S    
C52   H43   S    
C46   C47   S    
C9    C11   S    
O13   C55   S    
C10   C12   S    
C29   N3    S    
C59   H59   S    
C20   C22   S    
C58   H56   S    
C42   H20   S    
C38   H3    S    
C4    C10   S    
C36   C38   A    
C35   H5    S    
C57   H55   S    
C44   C45   S    
C61   H66   S    
O3    Zn2   S    
C16   O10   S    
O4    Zn1   S    
N5    C61   S    
C21   C25   S    
C8    C14   T    
C19   C21   S    
C18   C22   S    
C32   O13   S    
C2    C8    S    
C9    H10   S    
C24   C28   S    
C12   C14   S    
C59   H58   S    
C3    C5    S    
C57   H54   S    
C53   H45   S    
C60   H60   S    
C48   H33   S    
C53   H44   S    
O5    Zn1   S    
O6    Zn2   S    
C41   H16   S    
C55   C56   S    
C54   H47   S    
C1    O1    A    
C5    C10   S    
C29   C31   A    
C2    O2    A    
N6    H67   S    
C30   C32   A    
C60   H61   S    
C43   C44   S    
C56   H51   S    
C51   H40   S    
C60   H62   S    
C37   H4    S    
C28   C30   A    
C49   H35   S    
C33   C35   A    
C50   C51   S    
C34   C36   A    
C47   C48   S    
C2    O4    A    
C17   C21   S    
C53   C54   S    
C23   O7    A    
N4    H17   S    
O10   C46   S    
C16   C18   S    
N3    H13   S    
C22   C26   S    
C50   H37   S    
C56   H52   S    
C45   H26   S    
C55   H49   S    
C54   H46   S    
C10   H9    S    
C55   H50   S    
C27   C37   A    
C51   H41   S    
