data_mof_unit_35764.cif
_audit_creation_date              2012-12-10T19:12:18-0500
_audit_creation_method            fapswitch 2.2
_symmetry_space_group_name_H-M    P1
_symmetry_Int_Tables_number       1
_space_group_crystal_system       triclinic
_cell_length_a                    7.779508
_cell_length_b                    9.095164
_cell_length_c                    16.997445
_cell_angle_alpha                 89.552505
_cell_angle_beta                  92.932958
_cell_angle_gamma                 89.995901
_cell_volume                      1201.05738106

loop_
_atom_site_label
_atom_site_type_symbol
_atom_type_description
_atom_site_fract_x
_atom_site_fract_y
_atom_site_fract_z
_atom_type_partial_charge
C1    C     C_R   0.499987 0.219997 0.500025 0.849096
C2    C     C_R   0.500015 0.780003 0.500002 0.848186
C3    C     C_R   0.519482 0.501565 0.651580 0.797685
C4    C     C_R   0.480546 0.499229 0.348359 0.799422
C5    C     C_R   0.525556 0.516395 0.737634 -0.055143
C6    C     C_R   0.474803 0.489484 0.261996 -0.051607
C7    C     C_R   0.375664 0.556593 0.774899 -0.248126
C8    C     C_R   0.628095 0.466033 0.223639 -0.253234
C9    C     C_R   0.378048 0.577907 0.856378 0.107067
C10   C     C_R   0.627509 0.453276 0.141621 0.107488
C11   C     C_R   0.533303 0.552156 0.901315 0.356292
C12   C     C_R   0.468869 0.467782 0.097465 0.364072
C13   C     C_R   0.683012 0.514015 0.864031 -0.235386
C14   C     C_R   0.316022 0.488134 0.135901 -0.240659
C15   C     C_R   0.679883 0.496995 0.782632 -0.222920
C16   C     C_R   0.318443 0.499095 0.217612 -0.221897
C17   C     C_1   0.500002 0.065362 0.500026 -0.179619
C18   C     C_1   0.500001 0.934635 0.500020 -0.179627
Cu1   Cu    Cu3+1 0.669080 0.500010 0.500000 0.995518
Cu2   Cu    Cu3+1 0.330920 0.499990 0.500000 0.994555
H1    H     H_    0.748902 0.455528 0.257871 0.161097
H2    H     H_    0.256341 0.574181 0.740363 0.163458
H3    H     H_    0.801861 0.495351 0.898608 0.144157
H4    H     H_    0.194990 0.498439 0.101963 0.144391
H5    H     H_    0.797372 0.467259 0.755106 0.164307
H6    H     H_    0.198457 0.515983 0.245899 0.161547
N1    N     N_1   0.076820 0.499970 0.500010 -0.052944
N2    N     N_1   0.923180 0.500030 0.499990 -0.052803
N3    N     N_2   0.541915 0.561579 0.984046 -0.273736
N4    N     N_2   0.458925 0.460952 0.014549 -0.279974
O1    O     O_R   0.642760 0.288400 0.500000 -0.576246
O2    O     O_R   0.357240 0.711600 0.500000 -0.577116
O3    O     O_R   0.357190 0.288380 0.500000 -0.575051
O4    O     O_R   0.642810 0.711620 0.500000 -0.575099
O5    O     O_R   0.658410 0.498660 0.613920 -0.584029
O6    O     O_R   0.341590 0.501340 0.386080 -0.584608
O7    O     O_R   0.372840 0.498650 0.613930 -0.588433
O8    O     O_R   0.627160 0.501350 0.386070 -0.587855
C19   C     C_3   0.796368 0.423077 0.103719 -0.405773
C20   C     C_3   0.798907 0.269709 0.066797 -0.331595
C21   C     C_3   0.973596 0.236942 0.033829 -0.853588
H7    H     H_    0.005171 0.320750 0.988904 0.249924
H8    H     H_    0.075789 0.236074 0.081906 0.260682
H9    H     H_    0.970093 0.127183 0.005763 0.246925
H10   H     H_    0.771663 0.185227 0.112122 0.221124
H11   H     H_    0.698754 0.261450 0.018131 0.241736
H12   H     H_    0.821339 0.508862 0.058964 0.211353
H13   H     H_    0.905145 0.429873 0.148608 0.184257
C22   C     C_3   0.214720 0.629651 0.892612 -0.415170
C23   C     C_3   0.171859 0.788665 0.867935 -0.346011
C24   C     C_3   0.008618 0.842072 0.904868 -0.845877
H14   H     H_    0.897118 0.773091 0.885198 0.262225
H15   H     H_    0.024573 0.837731 0.970168 0.252028
H16   H     H_    0.981822 0.957423 0.886213 0.243817
H17   H     H_    0.280515 0.861738 0.886998 0.227908
H18   H     H_    0.152663 0.797006 0.802814 0.221601
H19   H     H_    0.107187 0.555763 0.873223 0.186202
H20   H     H_    0.225348 0.624508 0.957821 0.226005

loop_
_geom_bond_atom_site_label_1
_geom_bond_atom_site_label_2
_ccdc_geom_bond_type
C22   H19   S    
C24   H15   S    
C4    O6    A    
N3    N4    D    
Cu2   O7    S    
Cu1   O8    S    
C2    C18   S    
C7    H2    S    
C11   C13   A    
C21   H7    S    
C1    C17   S    
C23   H17   S    
C3    O5    A    
C9    C11   A    
C24   H16   S    
Cu1   O1    S    
C2    O4    A    
C17   C18   T    
C1    O3    A    
Cu1   O5    S    
C20   H11   S    
Cu1   N2    S    
C21   H8    S    
C11   N3    S    
C10   C12   A    
Cu2   O3    S    
C8    C10   A    
C20   C21   S    
Cu2   N1    S    
C12   C14   A    
C23   C24   S    
C13   C15   A    
C16   H6    S    
C20   H10   S    
C21   H9    S    
C14   C16   A    
C15   H5    S    
C4    C6    S    
C5    C15   A    
C19   C20   S    
C6    C16   A    
C24   H14   S    
Cu2   O6    S    
C7    C9    A    
C1    O1    A    
C9    C22   S    
C13   H3    S    
C2    O2    A    
C22   C23   S    
Cu2   O2    S    
C14   H4    S    
N1    N2    T    
C5    C7    A    
C19   H13   S    
C6    C8    A    
C12   N4    S    
C19   H12   S    
C23   H18   S    
C22   H20   S    
Cu1   Cu2   S    
C3    O7    A    
C4    O8    A    
C10   C19   S    
C3    C5    S    
Cu1   O4    S    
C8    H1    S    
