data_mof_unit_53456.cif
_audit_creation_date              2013-03-05T15:42:05-0500
_audit_creation_method            fapswitch 2.2
_symmetry_space_group_name_H-M    P1
_symmetry_Int_Tables_number       1
_space_group_crystal_system       triclinic
_cell_length_a                    7.773867
_cell_length_b                    8.578142
_cell_length_c                    15.71974
_cell_angle_alpha                 90.796103
_cell_angle_beta                  86.242959
_cell_angle_gamma                 93.600628
_cell_volume                      1043.90811563

loop_
_atom_site_label
_atom_site_type_symbol
_atom_site_description
_atom_site_fract_x
_atom_site_fract_y
_atom_site_fract_z
_atom_type_partial_charge
O1    O     O_R   0.389250 0.738570 0.505570 -0.613280
O2    O     O_R   0.610750 0.261430 0.494430 -0.613280
O3    O     O_R   0.678390 0.711630 0.491020 -0.628684
O4    O     O_R   0.321610 0.288370 0.508980 -0.628684
C1    C     C_R   0.545723 0.794687 0.497807 0.960391
C2    C     C_R   0.454277 0.205313 0.502193 0.960391
O5    O     O_R   0.355460 0.513480 0.630490 -0.602644
O6    O     O_R   0.644540 0.486520 0.369510 -0.602643
O7    O     O_R   0.644600 0.486540 0.615950 -0.611355
O8    O     O_R   0.355400 0.513460 0.384050 -0.611355
C3    C     C_R   0.502769 0.500098 0.661863 0.892403
C4    C     C_R   0.497230 0.499902 0.338137 0.892403
Zn1   Zn    Zn3+2 0.306940 0.517990 0.509710 0.980573
Zn2   Zn    Zn3+2 0.693060 0.482010 0.490290 0.980573
C5    C     C_2   0.569776 0.958166 0.496557 -0.359123
C6    C     C_2   0.430224 0.041834 0.503443 -0.359123
C7    C     C_3   0.356669 0.561282 0.028950 0.401083
C8    C     C_3   0.643331 0.438718 0.971050 0.401084
C9    C     C_3   0.498567 0.648735 0.972175 -0.278280
C10   C     C_3   0.501433 0.351265 0.027824 -0.278280
H1    H     H_    0.495046 0.769748 0.948433 0.193044
H2    H     H_    0.504954 0.230252 0.051567 0.193044
H3    H     H_    0.750616 0.654516 0.051781 0.232128
H4    H     H_    0.249383 0.345484 0.948218 0.232128
C11   C     C_1   0.508800 0.499850 0.750453 -0.121665
C12   C     C_1   0.491200 0.500150 0.249547 -0.121666
C13   C     C_3   0.362285 0.413943 0.972341 -0.223144
C14   C     C_3   0.637715 0.586057 0.027659 -0.223144
C15   C     C_3   0.507749 0.499826 0.916498 0.007584
C16   C     C_3   0.492250 0.500173 0.083502 0.007584
N1    N     N_2   0.950320 0.457950 0.477300 -0.164178
N2    N     N_2   0.049680 0.542050 0.522700 -0.164178
H5    H     H_    0.701611 0.009143 0.489989 0.184911
H6    H     H_    0.298389 0.990857 0.510010 0.184911
C17   C     C_1   0.510850 0.499778 0.825628 0.080148
C18   C     C_1   0.489150 0.500222 0.174372 0.080148
H7    H     H_    0.013237 0.382292 0.436478 0.200800
H8    H     H_    0.986763 0.617708 0.563522 0.200799
N3    N     N_R   0.197049 0.629439 0.059923 0.226050
O9    O     O_R   0.095358 0.681092 0.005713 -0.372265
O10   O     O_R   0.155382 0.639573 0.141195 -0.384497
N4    N     N_R   0.802951 0.370561 0.940076 0.226050
O11   O     O_R   0.904642 0.318908 0.994286 -0.372265
O12   O     O_R   0.844618 0.360427 0.858805 -0.384497

loop_
_geom_bond_atom_site_label_1
_geom_bond_atom_site_label_2
_geom_bond_distance
_ccdc_geom_bond_type
O7    Zn2   1.986854 S    
C7    C16   1.523611 S    
C10   C13   1.558729 S    
N2    H8    1.029270 S    
C13   C15   1.541212 S    
C15   C17   1.427069 S    
Zn1   N2    2.020165 S    
N1    N2    1.270570 D    
H4    C13   1.109807 S    
C16   C18   1.427069 S    
Zn2   N1    2.020165 S    
O6    C4    1.288368 A    
C6    H6    1.087812 S    
C14   C16   1.541212 S    
N3    O10   1.300330 A    
C8    C15   1.523611 S    
C10   C16   1.541095 S    
H3    C14   1.109807 S    
O5    C3    1.288368 A    
C9    C14   1.558729 S    
O7    C3    1.288245 A    
O2    C2    1.278624 A    
O3    Zn2   1.979980 S    
N4    O12   1.300329 A    
C11   C17   1.182887 T    
O1    C1    1.278624 A    
O8    C4    1.288245 A    
C12   C18   1.182887 T    
C9    H1    1.110543 S    
C10   H2    1.110543 S    
C8    C10   1.536802 S    
C8    N4    1.456938 S    
O2    Zn2   1.959553 S    
C1    C5    1.403304 S    
O1    Zn1   1.959555 S    
N4    O11   1.300088 A    
C3    C11   1.396516 S    
C2    C6    1.403304 S    
C5    C6    1.335665 D    
C7    C13   1.536824 S    
O5    Zn1   1.961196 S    
C8    C14   1.536824 S    
O4    C2    1.287798 A    
C7    N3    1.456938 S    
N3    O9    1.300088 A    
O6    Zn2   1.961196 S    
C7    C9    1.536802 S    
C5    H5    1.087812 S    
N1    H7    1.029269 S    
O4    Zn1   1.979979 S    
C4    C12   1.396516 S    
O3    C1    1.287799 A    
O8    Zn1   1.986854 S    
C9    C15   1.541095 S    
