data_mof_unit_44015.cif
_audit_creation_date              2012-12-11T15:11:44-0500
_audit_creation_method            fapswitch 2.2
_symmetry_space_group_name_H-M    P1
_symmetry_Int_Tables_number       1
_space_group_crystal_system       triclinic
_cell_length_a                    31.366099
_cell_length_b                    22.560092
_cell_length_c                    18.170402
_cell_angle_alpha                 89.712861
_cell_angle_beta                  124.881547
_cell_angle_gamma                 89.727088
_cell_volume                      10547.1105774

loop_
_atom_site_label
_atom_site_type_symbol
_atom_type_description
_atom_site_fract_x
_atom_site_fract_y
_atom_site_fract_z
_atom_type_partial_charge
C1    C     C_R   0.547199 0.581836 0.744837 -0.128525
C2    C     C_R   0.271522 0.690561 0.477010 0.050064
C3    C     C_R   0.306217 0.329036 0.945851 0.129202
C4    C     C_R   0.872581 0.313678 0.138078 0.129082
C5    C     C_R   0.127418 0.686321 0.861921 0.129082
C6    C     C_R   0.125271 0.305921 0.874129 0.126255
C7    C     C_R   0.874729 0.694079 0.125871 0.126255
C8    C     C_R   0.227016 0.643988 0.923005 -0.035613
C9    C     C_R   0.772984 0.356012 0.076995 -0.035613
C10   C     C_R   0.771895 0.654875 0.053658 -0.048098
C11   C     C_R   0.228105 0.345125 0.946341 -0.048097
C12   C     C_R   0.798154 0.314215 0.148677 -0.036890
C13   C     C_R   0.271452 0.310612 0.496744 0.047578
C14   C     C_R   0.201846 0.685786 0.851323 -0.036890
C15   C     C_R   0.200366 0.310299 0.866353 -0.039958
C16   C     C_R   0.799634 0.689701 0.133647 -0.039958
C17   C     C_R   0.803684 0.387019 0.054664 0.321555
C18   C     C_R   0.196316 0.612981 0.945335 0.321555
C19   C     C_R   0.200292 0.362875 0.984669 0.338674
C20   C     C_R   0.799708 0.637125 0.015331 0.338674
C21   C     C_R   0.225363 0.699199 0.805427 0.323043
C22   C     C_R   0.774637 0.300801 0.194573 0.323043
C23   C     C_R   0.777436 0.700276 0.182181 0.329558
C24   C     C_R   0.728546 0.689388 0.503252 0.047575
C25   C     C_R   0.222563 0.299724 0.817818 0.329558
C26   C     C_R   0.853415 0.365541 0.086404 -0.276450
C27   C     C_R   0.146585 0.634458 0.913595 -0.276448
C28   C     C_R   0.147579 0.348714 0.940174 -0.267821
C29   C     C_R   0.852421 0.651286 0.059826 -0.267821
C30   C     C_R   0.277397 0.683499 0.844866 -0.277624
C31   C     C_R   0.722603 0.316501 0.155134 -0.277625
C32   C     C_R   0.724289 0.694628 0.139446 -0.281940
C33   C     C_R   0.275711 0.305372 0.860553 -0.281941
C34   C     C_R   0.581167 0.605045 0.425211 0.325106
C35   C     C_R   0.256313 0.846819 0.522278 0.052819
C36   C     C_R   0.418833 0.394955 0.574789 0.325106
C37   C     C_R   0.422930 0.609111 0.573892 0.345235
C38   C     C_R   0.577070 0.390889 0.426107 0.345235
C39   C     C_R   0.094310 0.080822 0.424734 0.344631
C40   C     C_R   0.905690 0.919178 0.575266 0.344634
C41   C     C_R   0.907382 0.088399 0.573672 0.338849
C42   C     C_R   0.092618 0.911601 0.426328 0.338848
C43   C     C_R   0.382086 0.582825 0.256442 -0.124465
C44   C     C_R   0.617914 0.417175 0.743558 -0.124466
C45   C     C_R   0.617243 0.583863 0.741679 -0.125454
C46   C     C_R   0.743686 0.153181 0.477720 0.052820
C47   C     C_R   0.382757 0.416137 0.258320 -0.125454
C48   C     C_R   0.893106 0.108189 0.290377 -0.109389
C49   C     C_R   0.106894 0.891811 0.709623 -0.109389
C50   C     C_R   0.105608 0.108836 0.706992 -0.109125
C51   C     C_R   0.894392 0.891164 0.293008 -0.109126
C52   C     C_R   0.598842 0.598303 0.792873 0.046732
C53   C     C_R   0.401158 0.401697 0.207127 0.046732
C54   C     C_R   0.399946 0.597429 0.204236 0.043667
C55   C     C_R   0.600054 0.402570 0.795764 0.043668
C56   C     C_R   0.078244 0.141445 0.732826 0.049444
C57   C     C_R   0.758596 0.850325 0.530724 0.036505
C58   C     C_R   0.921755 0.858555 0.267174 0.049443
C59   C     C_R   0.920165 0.141891 0.265472 0.048356
C60   C     C_R   0.079835 0.858109 0.734527 0.048355
C61   C     C_R   0.618339 0.635796 0.500731 0.070922
C62   C     C_R   0.381661 0.364204 0.499268 0.070922
C63   C     C_R   0.388809 0.642790 0.497798 0.079639
C64   C     C_R   0.611191 0.357211 0.502202 0.079639
C65   C     C_R   0.141536 0.096684 0.498138 0.060236
C66   C     C_R   0.858463 0.903317 0.501862 0.060234
C67   C     C_R   0.862646 0.110090 0.498254 0.078491
C68   C     C_R   0.241403 0.149675 0.469275 0.036505
C69   C     C_R   0.137354 0.889909 0.501746 0.078491
C70   C     C_R   0.636266 0.257808 0.486958 0.128457
C71   C     C_R   0.363733 0.742192 0.513041 0.128458
C72   C     C_R   0.348489 0.264188 0.477235 0.128167
C73   C     C_R   0.651510 0.735812 0.522765 0.128166
C74   C     C_R   0.164924 0.793800 0.487540 0.131711
C75   C     C_R   0.835075 0.206199 0.512459 0.131711
C76   C     C_R   0.833167 0.803698 0.505455 0.122374
C77   C     C_R   0.166832 0.196303 0.494544 0.122375
C78   C     C_R   0.647736 0.317352 0.507533 0.052645
C79   C     C_R   0.718057 0.248610 0.501774 0.007190
C80   C     C_R   0.352264 0.682647 0.492467 0.052641
C81   C     C_R   0.346382 0.323556 0.495054 0.065026
C82   C     C_R   0.653618 0.676444 0.504945 0.065027
C83   C     C_R   0.174619 0.854062 0.503533 0.059261
C84   C     C_R   0.825381 0.145938 0.496467 0.059262
C85   C     C_R   0.825001 0.864380 0.506052 0.059119
C86   C     C_R   0.174999 0.135621 0.493947 0.059118
C87   C     C_R   0.693113 0.342752 0.526846 -0.307128
C88   C     C_R   0.306887 0.657248 0.473154 -0.307124
C89   C     C_R   0.307870 0.347135 0.501332 -0.313640
C90   C     C_R   0.281942 0.751390 0.498224 0.007187
C91   C     C_R   0.692129 0.652865 0.498666 -0.313641
C92   C     C_R   0.219504 0.880499 0.522698 -0.307841
C93   C     C_R   0.780495 0.119501 0.477301 -0.307842
C94   C     C_R   0.789526 0.887943 0.520150 -0.294587
C95   C     C_R   0.210474 0.112058 0.479849 -0.294586
C96   C     C_3   0.788407 0.446701 0.008097 -1.053755
C97   C     C_3   0.211593 0.553298 0.991902 -1.053755
C98   C     C_3   0.223698 0.390709 0.075540 -1.055575
C99   C     C_3   0.776302 0.609290 0.924460 -1.055574
C100  C     C_3   0.195425 0.722712 0.710394 -1.058807
C101  C     C_R   0.273447 0.249324 0.481929 0.012664
C102  C     C_3   0.804576 0.277289 0.289606 -1.058807
C103  C     C_3   0.809064 0.713268 0.281126 -1.076332
C104  C     C_3   0.190936 0.286732 0.718874 -1.076331
C105  C     C_3   0.570637 0.609804 0.333926 -1.078172
C106  C     C_3   0.429363 0.390196 0.666073 -1.078172
C107  C     C_3   0.429621 0.613896 0.662257 -1.070553
C108  C     C_3   0.570378 0.386105 0.337743 -1.070554
C109  C     C_3   0.081451 0.072958 0.332233 -1.082477
C110  C     C_3   0.918549 0.927042 0.667767 -1.082475
C111  C     C_3   0.916226 0.080647 0.663415 -1.071899
C112  C     C_R   0.452801 0.418164 0.255163 -0.128525
C113  C     C_R   0.726552 0.750676 0.518068 0.012665
C114  C     C_3   0.083774 0.919353 0.336585 -1.071898
C115  C     C_3   0.545717 0.231382 0.377205 -0.912056
C116  C     C_3   0.454283 0.768619 0.622793 -0.912056
C117  C     C_3   0.435364 0.224617 0.546356 -0.904915
C118  C     C_3   0.564636 0.775383 0.453645 -0.904913
C119  C     C_3   0.075169 0.760149 0.386949 -0.936187
C120  C     C_3   0.924831 0.239850 0.613051 -0.936188
C121  C     C_3   0.920945 0.763316 0.586900 -0.915651
C122  C     C_3   0.079054 0.236683 0.413099 -0.915652
C123  C     C_3   0.835112 0.419230 0.615959 -0.932625
C124  C     C_R   0.246378 0.785757 0.501819 0.008365
C125  C     C_3   0.164887 0.580774 0.384022 -0.932612
C126  C     C_3   0.186447 0.424511 0.504870 -0.933666
C127  C     C_3   0.813548 0.575491 0.495113 -0.933668
C128  C     C_3   0.365207 0.955600 0.618298 -0.906797
C129  C     C_3   0.634793 0.044400 0.381699 -0.906798
C130  C     C_3   0.688840 0.958809 0.587614 -0.954225
C131  C     C_3   0.311158 0.041192 0.412383 -0.954227
C132  C     C_R   0.753622 0.214243 0.498179 0.008365
C133  C     C_R   0.761648 0.788627 0.519261 0.009293
C134  C     C_R   0.238351 0.211374 0.480737 0.009294
C135  C     C_R   0.671998 0.222393 0.484082 0.023946
C136  C     C_R   0.328002 0.777608 0.515916 0.023946
C137  C     C_R   0.311419 0.225980 0.470486 0.021684
C138  C     C_R   0.688581 0.774021 0.529513 0.021684
C139  C     C_R   0.200871 0.758965 0.485534 0.026232
C140  C     C_R   0.452214 0.581298 0.254090 -0.121302
C141  C     C_R   0.799128 0.241034 0.514465 0.026230
C142  C     C_R   0.799351 0.765072 0.507360 0.038300
C143  C     C_R   0.200648 0.234929 0.492638 0.038300
C144  C     C_R   0.773578 0.336164 0.539363 0.183143
C145  C     C_R   0.226421 0.663836 0.460634 0.183138
C146  C     C_R   0.233501 0.334406 0.506909 0.189483
C147  C     C_R   0.766497 0.665595 0.493086 0.189484
C148  C     C_R   0.302598 0.872842 0.542386 0.175817
C149  C     C_R   0.697401 0.127158 0.457612 0.175816
C150  C     C_R   0.723744 0.873279 0.549316 0.199355
C151  C     C_R   0.547786 0.418702 0.745910 -0.121303
C152  C     C_R   0.276255 0.126721 0.450682 0.199355
C153  C     C_R   0.337925 0.837671 0.538287 -0.257356
C154  C     C_R   0.662074 0.162329 0.461710 -0.257355
C155  C     C_R   0.688089 0.834535 0.546140 -0.262537
C156  C     C_R   0.311910 0.165466 0.453858 -0.262537
C157  C     C_R   0.808250 0.301488 0.533690 -0.265688
C158  C     C_R   0.191749 0.698512 0.466308 -0.265691
C159  C     C_R   0.198028 0.295916 0.503808 -0.276055
C160  C     C_R   0.801971 0.704086 0.496187 -0.276053
C161  C     C_R   0.367523 0.614750 0.107770 0.122367
C162  C     C_R   0.033976 0.109266 0.707041 -0.153829
C163  C     C_R   0.632477 0.385250 0.892229 0.122366
C164  C     C_R   0.630606 0.618869 0.886188 0.115620
C165  C     C_R   0.369394 0.381130 0.113811 0.115619
C166  C     C_R   0.905074 0.202091 0.223965 0.122798
C167  C     C_R   0.094926 0.797909 0.776034 0.122798
C168  C     C_R   0.092174 0.200433 0.776029 0.122302
C169  C     C_R   0.907825 0.799567 0.223971 0.122302
C170  C     C_R   0.360410 0.649605 0.974355 -0.182947
C171  C     C_R   0.639590 0.350396 0.025645 -0.182946
C172  C     C_R   0.639547 0.671282 0.009321 -0.182788
C173  C     C_R   0.966024 0.890734 0.292959 -0.153828
C174  C     C_R   0.360453 0.328718 0.990678 -0.182787
C175  C     C_R   0.918698 0.287453 0.157836 -0.180596
C176  C     C_R   0.081302 0.712546 0.842163 -0.180598
C177  C     C_R   0.078016 0.280591 0.848549 -0.177243
C178  C     C_R   0.921984 0.719409 0.151452 -0.177243
C179  C     C_R   0.390623 0.628994 0.062761 -0.169837
C180  C     C_R   0.609377 0.371006 0.937239 -0.169838
C181  C     C_R   0.607994 0.648019 0.923627 -0.170257
C182  C     C_R   0.392006 0.351981 0.076372 -0.170257
C183  C     C_R   0.934992 0.232313 0.200920 -0.166321
C184  C     C_R   0.965597 0.110308 0.293283 -0.140062
C185  C     C_R   0.065008 0.767686 0.799079 -0.166320
C186  C     C_R   0.061635 0.228207 0.800012 -0.173329
C187  C     C_R   0.938365 0.771793 0.199988 -0.173329
C188  C     C_R   0.313177 0.618943 0.060601 -0.250875
C189  C     C_R   0.686823 0.381057 0.939399 -0.250874
C190  C     C_R   0.684629 0.612304 0.936334 -0.245716
C191  C     C_R   0.315371 0.387696 0.063666 -0.245716
C192  C     C_R   0.860093 0.229929 0.207212 -0.248356
C193  C     C_R   0.139907 0.770071 0.792787 -0.248356
C194  C     C_R   0.137219 0.228854 0.795844 -0.242994
C195  C     C_R   0.034403 0.889692 0.706717 -0.140061
C196  C     C_R   0.862781 0.771146 0.204156 -0.242993
C197  C     C_R   0.281777 0.636959 0.969975 0.097155
C198  C     C_R   0.718223 0.363041 0.030025 0.097154
C199  C     C_R   0.717497 0.645008 0.014551 0.106110
C200  C     C_R   0.282503 0.354992 0.985449 0.106110
C201  C     C_R   0.844621 0.286878 0.168494 0.094888
C202  C     C_R   0.155379 0.713122 0.831506 0.094889
C203  C     C_R   0.153163 0.283217 0.841478 0.097613
C204  C     C_R   0.846836 0.716783 0.158522 0.097612
C205  C     C_R   0.628990 0.606255 0.575489 -0.200089
C206  C     C_R   0.728477 0.309439 0.522989 0.050056
C207  C     C_R   0.371010 0.393745 0.424511 -0.200089
C208  C     C_R   0.376168 0.610748 0.424025 -0.225540
C209  C     C_R   0.623832 0.389251 0.575975 -0.225542
C210  C     C_R   0.143588 0.083472 0.573598 -0.219358
C211  C     C_R   0.856412 0.916528 0.426402 -0.219359
C212  C     C_R   0.858610 0.090035 0.424193 -0.229689
C213  C     C_R   0.141390 0.909965 0.575806 -0.229688
C214  C     C_R   0.306528 0.656180 0.929171 0.130603
C215  C     C_R   0.693472 0.343820 0.070829 0.130603
C216  C     C_R   0.693783 0.670964 0.054149 0.129201
H1    H     H_    0.526034 0.575462 0.774405 0.109387
H2    H     H_    0.295471 0.612059 0.096062 0.141496
H3    H     H_    0.393998 0.377002 0.661668 0.259451
H4    H     H_    0.459812 0.356032 0.706395 0.255282
H5    H     H_    0.440863 0.433992 0.699235 0.247086
H6    H     H_    0.460207 0.646513 0.705262 0.253822
H7    H     H_    0.392964 0.628809 0.652574 0.260191
H8    H     H_    0.439372 0.569810 0.695753 0.245106
H9    H     H_    0.607036 0.371191 0.347426 0.260191
H10   H     H_    0.539793 0.353488 0.294737 0.253822
H11   H     H_    0.560628 0.430190 0.304247 0.245106
H12   H     H_    0.078779 0.116722 0.301754 0.251524
H13   H     H_    0.300749 0.420227 0.086158 0.145974
H14   H     H_    0.112605 0.046706 0.335892 0.261234
H15   H     H_    0.044237 0.049324 0.288847 0.256053
H16   H     H_    0.887395 0.953295 0.664109 0.261232
H17   H     H_    0.921220 0.883278 0.698245 0.251523
H18   H     H_    0.955763 0.950676 0.711153 0.256053
H19   H     H_    0.922088 0.124242 0.695491 0.252602
H20   H     H_    0.881688 0.059740 0.654745 0.258514
H21   H     H_    0.950603 0.052024 0.708013 0.257235
H22   H     H_    0.118312 0.940260 0.345255 0.258514
H23   H     H_    0.077912 0.875758 0.304508 0.252602
H24   H     H_    0.699250 0.579773 0.913842 0.145974
H25   H     H_    0.049397 0.947976 0.291987 0.257235
H26   H     H_    0.593803 0.198473 0.509134 0.160297
H27   H     H_    0.533404 0.184581 0.359058 0.237876
H28   H     H_    0.555506 0.248859 0.331293 0.255462
H29   H     H_    0.512697 0.257619 0.367045 0.260726
H30   H     H_    0.406197 0.801527 0.490864 0.160297
H31   H     H_    0.466596 0.815419 0.640940 0.237876
H32   H     H_    0.487303 0.742382 0.632953 0.260725
H33   H     H_    0.444493 0.751141 0.668706 0.255462
H34   H     H_    0.374660 0.218102 0.410464 0.162456
H35   H     H_    0.164867 0.794160 0.780768 0.142318
H36   H     H_    0.428553 0.184061 0.573068 0.245794
H37   H     H_    0.451499 0.259811 0.597978 0.260445
H38   H     H_    0.464359 0.214224 0.531558 0.250252
H39   H     H_    0.625340 0.781897 0.589537 0.162456
H40   H     H_    0.571446 0.815938 0.426932 0.245793
H41   H     H_    0.535641 0.785775 0.468445 0.250251
H42   H     H_    0.548500 0.740188 0.402023 0.260444
H43   H     H_    0.127531 0.734557 0.521089 0.175657
H44   H     H_    0.064959 0.712419 0.375668 0.245645
H45   H     H_    0.082107 0.775026 0.336287 0.249916
H46   H     H_    0.835133 0.205840 0.219232 0.142318
H47   H     H_    0.041820 0.785278 0.377194 0.260985
H48   H     H_    0.872469 0.265442 0.478910 0.175658
H49   H     H_    0.935040 0.287580 0.624332 0.245645
H50   H     H_    0.958179 0.214722 0.622807 0.260985
H51   H     H_    0.917893 0.224974 0.663713 0.249916
H52   H     H_    0.864863 0.755215 0.449993 0.179171
H53   H     H_    0.912748 0.722242 0.610471 0.248206
H54   H     H_    0.934226 0.798003 0.638392 0.249283
H55   H     H_    0.952827 0.754031 0.578780 0.256383
H56   H     H_    0.135137 0.244787 0.550005 0.179170
H57   H     H_    0.837829 0.793635 0.218045 0.141218
H58   H     H_    0.087250 0.277757 0.389527 0.248206
H59   H     H_    0.047172 0.245968 0.421220 0.256384
H60   H     H_    0.065773 0.201996 0.361608 0.249282
H61   H     H_    0.757434 0.425528 0.504146 0.165419
H62   H     H_    0.834672 0.464261 0.639879 0.259798
H63   H     H_    0.853261 0.422029 0.578530 0.242680
H64   H     H_    0.858465 0.389561 0.675430 0.262309
H65   H     H_    0.242559 0.574473 0.495855 0.165416
H66   H     H_    0.165329 0.535743 0.360103 0.259795
H67   H     H_    0.141540 0.610445 0.324552 0.262308
H68   H     H_    0.162171 0.206365 0.781955 0.141218
H69   H     H_    0.146730 0.577975 0.421438 0.242677
H70   H     H_    0.267026 0.410410 0.583251 0.164563
H71   H     H_    0.191167 0.473335 0.507534 0.258175
H72   H     H_    0.178958 0.411452 0.555510 0.247468
H73   H     H_    0.152900 0.412749 0.436379 0.260625
H74   H     H_    0.732970 0.589592 0.416742 0.164564
H75   H     H_    0.808828 0.526667 0.492446 0.258176
H76   H     H_    0.847097 0.587251 0.563604 0.260625
H77   H     H_    0.821034 0.588552 0.444471 0.247469
H78   H     H_    0.285467 0.963054 0.515790 0.178238
H79   H     H_    0.567718 0.373236 0.903489 0.115021
H80   H     H_    0.365687 0.000868 0.642438 0.256520
H81   H     H_    0.380985 0.957949 0.577085 0.242454
H82   H     H_    0.390091 0.926295 0.677649 0.255738
H83   H     H_    0.714531 0.036946 0.484208 0.178238
H84   H     H_    0.634313 0.999133 0.357559 0.256520
H85   H     H_    0.609909 0.073706 0.322348 0.255738
H86   H     H_    0.619014 0.042051 0.422912 0.242454
H87   H     H_    0.763074 0.950354 0.616457 0.163560
H88   H     H_    0.695189 0.007185 0.599690 0.253899
H89   H     H_    0.694069 0.937662 0.647660 0.253319
H90   H     H_    0.432282 0.626764 0.096511 0.115021
H91   H     H_    0.648556 0.952478 0.527621 0.260428
H92   H     H_    0.236925 0.049646 0.383542 0.163560
H93   H     H_    0.304809 0.992816 0.400307 0.253900
H94   H     H_    0.351442 0.047522 0.472376 0.260427
H95   H     H_    0.305929 0.062339 0.352338 0.253319
H96   H     H_    0.433787 0.347251 0.112952 0.117392
H97   H     H_    0.473966 0.424538 0.225594 0.109387
H98   H     H_    0.566213 0.652749 0.887048 0.117392
H99   H     H_    0.029899 0.787112 0.786781 0.116459
H100  H     H_    0.970101 0.212888 0.213218 0.116459
H101  H     H_    0.973494 0.791644 0.213959 0.120364
H102  H     H_    0.026506 0.208356 0.786041 0.120364
H103  H     H_    0.379498 0.662825 0.942619 0.122600
H104  H     H_    0.620503 0.337176 0.057381 0.122600
H105  H     H_    0.621531 0.691869 0.039020 0.122693
H106  H     H_    0.378469 0.308131 0.960979 0.122693
H107  H     H_    0.941238 0.308633 0.137160 0.122980
H108  H     H_    0.473683 0.573968 0.225403 0.105513
H109  H     H_    0.058761 0.691366 0.862838 0.122980
H110  H     H_    0.055592 0.298826 0.871592 0.122174
H111  H     H_    0.944408 0.701173 0.128408 0.122174
H112  H     H_    0.659481 0.615167 0.644767 0.124556
H113  H     H_    0.340519 0.384833 0.355233 0.124556
H114  H     H_    0.346518 0.621316 0.354589 0.131085
H115  H     H_    0.653482 0.378683 0.645411 0.131085
H116  H     H_    0.177018 0.085999 0.642451 0.116342
H117  H     H_    0.822982 0.914002 0.357549 0.116343
H118  H     H_    0.824708 0.091822 0.355652 0.120259
H119  H     H_    0.526317 0.426032 0.774597 0.105513
H120  H     H_    0.175291 0.908178 0.644348 0.120258
H121  H     H_    0.342023 0.579568 0.233872 0.087104
H122  H     H_    0.657977 0.420432 0.766128 0.087104
H123  H     H_    0.657310 0.582889 0.763680 0.094414
H124  H     H_    0.342689 0.417111 0.236320 0.094414
H125  H     H_    0.856077 0.118408 0.278153 0.091335
H126  H     H_    0.143923 0.881592 0.721847 0.091335
H127  H     H_    0.141616 0.120326 0.716106 0.091597
H128  H     H_    0.858384 0.879674 0.283894 0.091597
H129  H     H_    0.699431 0.389664 0.542013 0.157653
H130  H     H_    0.004693 0.122434 0.716583 0.125308
H131  H     H_    0.300569 0.610335 0.457988 0.157658
H132  H     H_    0.307155 0.394548 0.510288 0.152957
H133  H     H_    0.692844 0.605452 0.489710 0.152956
H134  H     H_    0.224806 0.927483 0.537238 0.142055
H135  H     H_    0.775194 0.072516 0.462761 0.142056
H136  H     H_    0.786494 0.935706 0.522244 0.132849
H137  H     H_    0.213506 0.064295 0.477755 0.132849
H138  H     H_    0.373040 0.857370 0.552072 0.162481
H139  H     H_    0.626959 0.142631 0.447926 0.162481
H140  H     H_    0.659777 0.851653 0.556380 0.158609
H141  H     H_    0.995307 0.877566 0.283417 0.125308
H142  H     H_    0.340222 0.148347 0.443619 0.158609
H143  H     H_    0.842338 0.322026 0.544378 0.167505
H144  H     H_    0.157662 0.677973 0.455620 0.167504
H145  H     H_    0.169704 0.313544 0.513729 0.163327
H146  H     H_    0.830294 0.686458 0.486265 0.163328
H147  H     H_    0.876403 0.388305 0.067852 0.147487
H148  H     H_    0.123597 0.611695 0.932147 0.147487
H149  H     H_    0.125797 0.364593 0.965901 0.140882
H150  H     H_    0.874203 0.635407 0.034099 0.140882
H151  H     H_    0.295714 0.694860 0.811032 0.148713
H152  H     H_    0.995629 0.125021 0.286471 0.120336
H153  H     H_    0.704286 0.305141 0.188968 0.148713
H154  H     H_    0.706767 0.707862 0.173944 0.149538
H155  H     H_    0.293232 0.292138 0.826056 0.149538
H156  H     H_    0.821225 0.478001 0.046335 0.264303
H157  H     H_    0.779104 0.442450 0.939520 0.246110
H158  H     H_    0.755085 0.467016 0.004853 0.261137
H159  H     H_    0.178775 0.521999 0.953664 0.264303
H160  H     H_    0.244915 0.532984 0.995146 0.261137
H161  H     H_    0.220896 0.557550 0.060479 0.246110
H162  H     H_    0.197295 0.388635 0.097811 0.251997
H163  H     H_    0.004370 0.874978 0.713529 0.120337
H164  H     H_    0.259018 0.365832 0.127917 0.251989
H165  H     H_    0.230687 0.438519 0.073088 0.256592
H166  H     H_    0.802705 0.611365 0.902189 0.251997
H167  H     H_    0.769313 0.561481 0.926912 0.256592
H168  H     H_    0.740982 0.634168 0.872083 0.251988
H169  H     H_    0.204390 0.695363 0.670073 0.254057
H170  H     H_    0.152817 0.720091 0.676681 0.259645
H171  H     H_    0.206749 0.769149 0.709579 0.250480
H172  H     H_    0.795610 0.304638 0.329927 0.254056
H173  H     H_    0.793252 0.230851 0.290422 0.250480
H174  H     H_    0.704529 0.387941 0.903937 0.141496
H175  H     H_    0.847183 0.279910 0.323319 0.259646
H176  H     H_    0.798479 0.681802 0.315342 0.258508
H177  H     H_    0.851373 0.707391 0.313318 0.263746
H178  H     H_    0.800543 0.759033 0.291789 0.245053
H179  H     H_    0.201521 0.318198 0.684658 0.258509
H180  H     H_    0.199457 0.240967 0.708210 0.245053
H181  H     H_    0.148627 0.292609 0.686682 0.263746
H182  H     H_    0.540188 0.643968 0.293604 0.255282
H183  H     H_    0.606002 0.622998 0.338331 0.259450
H184  H     H_    0.559137 0.566008 0.300765 0.247087
N1    N     N_R   0.532970 0.559900 0.665210 -0.038409
N2    N     N_R   0.402100 0.440070 0.454470 -0.057228
N3    N     N_R   0.402100 0.559930 0.454470 -0.056939
N4    N     N_R   0.597900 0.440070 0.545530 -0.056939
N5    N     N_R   0.097900 0.059930 0.545530 -0.050705
N6    N     N_R   0.902100 0.940070 0.454470 -0.050705
N7    N     N_R   0.902100 0.059930 0.454470 -0.051829
N8    N     N_R   0.097900 0.940070 0.545530 -0.051829
N9    N     N_R   0.567170 0.559950 0.454460 -0.061455
N10   N     N_R   0.432830 0.440050 0.545540 -0.061455
N11   N     N_R   0.432830 0.559950 0.545540 -0.065045
N12   N     N_R   0.467030 0.440100 0.334790 -0.038409
N13   N     N_R   0.567170 0.440050 0.454460 -0.065045
N14   N     N_R   0.067170 0.059950 0.454460 -0.056633
N15   N     N_R   0.932830 0.940050 0.545540 -0.056634
N16   N     N_R   0.932830 0.059950 0.545540 -0.059702
N17   N     N_R   0.067170 0.940050 0.454460 -0.059702
N18   N     N_R   0.421470 0.559970 0.334770 -0.035621
N19   N     N_R   0.578530 0.440030 0.665230 -0.035621
N20   N     N_R   0.578530 0.559970 0.665230 -0.036100
N21   N     N_R   0.421470 0.440030 0.334770 -0.036100
N22   N     N_R   0.921470 0.059970 0.334770 -0.039351
N23   N     N_R   0.467030 0.559900 0.334790 -0.037416
N24   N     N_R   0.078530 0.940030 0.665230 -0.039351
N25   N     N_R   0.078530 0.059970 0.665230 -0.039154
N26   N     N_R   0.921470 0.940030 0.334770 -0.039154
N27   N     N_2   0.589319 0.234771 0.470495 -0.110047
N28   N     N_2   0.410680 0.765229 0.529504 -0.110047
N29   N     N_2   0.387457 0.244709 0.465185 -0.112556
N30   N     N_2   0.612543 0.755290 0.534816 -0.112556
N31   N     N_2   0.120127 0.769016 0.477783 -0.108259
N32   N     N_2   0.879873 0.230984 0.522216 -0.108259
N33   N     N_2   0.875199 0.783184 0.502026 -0.111506
N34   N     N_R   0.532970 0.440100 0.665210 -0.037416
N35   N     N_2   0.124800 0.216817 0.497974 -0.111506
N36   N     N_2   0.782309 0.398155 0.557996 -0.109867
N37   N     N_2   0.217691 0.601846 0.442001 -0.109868
N38   N     N_2   0.233533 0.396225 0.524833 -0.109356
N39   N     N_2   0.766464 0.603777 0.475158 -0.109355
N40   N     N_2   0.312333 0.934258 0.565132 -0.108980
N41   N     N_2   0.687666 0.065743 0.434865 -0.108981
N42   N     N_2   0.725971 0.934569 0.572310 -0.111100
N43   N     N_2   0.274028 0.065431 0.427688 -0.111100
N44   N     N_R   0.032970 0.059900 0.665210 -0.040378
N45   N     N_R   0.967030 0.940100 0.334790 -0.040378
N46   N     N_R   0.967030 0.059900 0.334790 -0.041880
N47   N     N_R   0.032970 0.940100 0.665210 -0.041880
N48   N     N_R   0.597900 0.559930 0.545530 -0.057228
Ni1   Ni    Ni4+2 0.483030 0.500000 0.604430 0.206038
Ni2   Ni    Ni4+2 0.516970 0.500000 0.395570 0.206038
Ni3   Ni    Ni4+2 0.983030 0.000000 0.604430 0.212618
Ni4   Ni    Ni4+2 0.016970 0.000000 0.395570 0.212618
Ni5   Ni    Ni4+2 0.587400 0.500000 0.604430 0.205863
Ni6   Ni    Ni4+2 0.412600 0.500000 0.395570 0.205863
Ni7   Ni    Ni4+2 0.087400 0.000000 0.604430 0.211237
Ni8   Ni    Ni4+2 0.912600 0.000000 0.395570 0.211237

loop_
_geom_bond_atom_site_label_1
_geom_bond_atom_site_label_2
_ccdc_geom_bond_type
C97   H159  S    
C162  N44   A    
C181  H98   S    
C7    C29   A    
C41   N16   A    
C167  C193  A    
C73   C82   A    
C88   H131  S    
C74   C83   A    
C211  N6    A    
C66   C85   S    
N26   Ni8   S    
C41   C67   A    
C111  H21   S    
N24   N47   A    
C14   C21   A    
C35   C124  A    
C189  H174  S    
C61   C82   S    
C122  H58   S    
C39   N14   A    
C184  N46   A    
N4    Ni5   S    
C167  C185  A    
C56   C162  A    
C153  H138  S    
C73   N30   S    
C98   H162  S    
C151  H119  S    
C134  C143  A    
C11   C15   A    
C49   H126  S    
C184  H152  S    
C51   N26   A    
C23   C103  S    
C152  C156  A    
N44   Ni3   S    
C10   C20   A    
C207  H113  S    
C150  N42   S    
C196  C204  A    
N47   Ni3   S    
H30   N28   S    
C47   C53   A    
C119  H44   S    
C120  H51   S    
C113  C133  A    
C140  H108  S    
C57   C133  A    
C36   C62   A    
C37   C63   A    
C190  C199  A    
C38   C64   A    
C205  H112  S    
C125  H69   S    
C129  H86   S    
C185  H99   S    
C68   C95   A    
C36   C106  S    
N13   Ni2   S    
C65   C86   S    
C168  C186  A    
C169  C187  A    
C112  N12   A    
C101  C137  A    
C40   C110  S    
C131  H95   S    
C31   H153  S    
C34   C61   A    
C82   C91   A    
C2    C145  A    
N15   Ni3   S    
C126  H73   S    
C127  N39   S    
C109  H14   S    
C43   C54   A    
C128  N40   S    
C116  H31   S    
C129  H85   S    
C105  H184  S    
C111  H20   S    
C213  N8    A    
C48   N22   A    
C17   C96   S    
C49   C60   A    
C118  N30   S    
C172  H105  S    
C141  C157  A    
C44   N19   A    
C62   C81   S    
C63   C208  A    
C180  H79   S    
C5    C176  A    
C210  N5    A    
C148  C153  A    
C116  N28   S    
C175  C183  A    
C112  H97   S    
C128  H80   S    
C15   C203  A    
C55   C151  A    
C118  H42   S    
N1    N20   A    
C13   C89   A    
N7    N16   A    
C55   C163  S    
C6    C203  A    
C80   C88   A    
C10   C16   A    
C136  C153  A    
C44   C55   A    
C4    C201  A    
C20   C99   S    
N12   N21   A    
C123  H63   S    
C84   C93   A    
C195  N47   A    
C86   C95   A    
C146  N38   S    
N18   N23   A    
C29   H150  S    
C39   C109  S    
C137  C156  A    
C115  N27   S    
C108  H9    S    
C99   H167  S    
C16   C204  A    
C76   C85   A    
C197  C214  A    
N9    N48   A    
C195  H163  S    
C78   C87   A    
C126  H72   S    
C91   H133  S    
C124  C139  A    
C148  N40   S    
C10   C199  A    
C174  C182  A    
C47   H124  S    
C131  H93   S    
C133  C142  A    
C161  C188  A    
C46   C132  A    
C75   C84   A    
C126  N38   S    
C31   C215  A    
C116  H33   S    
C12   C22   A    
C2    C90   A    
C117  H38   S    
C147  N39   S    
C11   C200  A    
C164  C181  A    
C75   C141  A    
C5    C27   A    
C117  H37   S    
C172  C181  A    
C42   C114  S    
C6    C28   A    
N9    Ni2   S    
C4    C175  A    
C26   H147  S    
C130  N42   S    
C28   H149  S    
C161  C179  A    
C179  H90   S    
C110  H17   S    
N46   Ni4   S    
C114  H22   S    
C74   N31   S    
C211  H117  S    
C194  H68   S    
H70   N38   S    
C164  C190  A    
C147  C160  A    
C173  N45   A    
C117  H36   S    
H65   N37   S    
C174  H106  S    
C63   C80   S    
H61   N36   S    
N34   Ni1   S    
C60   C167  S    
C120  H50   S    
N6    N15   A    
C116  H32   S    
C58   C169  S    
C190  H24   S    
C191  C200  A    
C71   C136  A    
C45   C52   A    
N48   Ni5   S    
C50   C56   A    
N17   Ni4   S    
N22   N46   A    
C77   C143  A    
C186  H102  S    
N11   Ni1   S    
C37   N11   A    
C3    C174  A    
C45   N20   A    
N2    N10   A    
C154  H139  S    
C191  H13   S    
C3    C200  A    
C42   N17   A    
C183  H100  S    
H87   N42   S    
C19   C28   A    
C159  H145  S    
C65   C210  A    
C96   H158  S    
H92   N43   S    
C102  H172  S    
C16   C23   A    
C150  C155  A    
C103  H177  S    
C100  H170  S    
C155  H140  S    
C187  H101  S    
C121  H53   S    
C48   C59   A    
C107  H8    S    
C175  H107  S    
C132  C141  A    
C104  H179  S    
C130  H88   S    
C64   C78   S    
N8    N17   A    
C24   C147  A    
C25   C104  S    
C127  H76   S    
C188  H2    S    
N18   Ni6   S    
C170  C179  A    
C57   C94   A    
C81   C89   A    
C172  C216  A    
C122  H59   S    
C173  H141  S    
C14   C202  A    
C106  H3    S    
C35   C148  A    
C54   C161  S    
C9    C12   A    
N22   Ni8   S    
C115  H28   S    
C32   C216  A    
C212  H118  S    
C46   C149  A    
C76   N33   S    
C41   C111  S    
C151  N34   A    
C144  C157  A    
C60   C195  A    
C25   C33   A    
C138  C155  A    
C106  H4    S    
C70   N27   S    
C24   C91   A    
N24   Ni7   S    
C39   C65   A    
C92   H134  S    
C128  H81   S    
C89   H132  S    
C94   H136  S    
C11   C19   A    
C135  C154  A    
C165  C182  A    
C37   C107  S    
C207  N2    A    
H26   N27   S    
C106  H5    S    
C130  H91   S    
C3    C33   A    
H78   N40   S    
C34   N9    A    
C117  N29   S    
C75   N32   S    
C208  H114  S    
C125  H67   S    
C123  N36   S    
C105  H183  S    
C111  H19   S    
C192  C201  A    
C95   H137  S    
C18   C97   S    
N3    N11   A    
C121  H55   S    
C72   C81   A    
H56   N35   S    
C30   H151  S    
C107  H6    S    
C171  C215  A    
C35   C92   A    
C97   H160  S    
C40   C66   A    
C27   H148  S    
C198  C215  A    
C109  H12   S    
C50   N25   A    
C144  C206  A    
C69   C213  A    
C157  H143  S    
C176  C185  A    
C104  H180  S    
C48   H125  S    
C32   H154  S    
C101  C134  A    
C205  N48   A    
C8    C18   A    
C193  C202  A    
C213  H120  S    
C131  N43   S    
N2    Ni6   S    
C149  C154  A    
C87   C206  A    
C7    C204  A    
C68   C152  A    
C129  N41   S    
C30   C214  A    
C1    N1    A    
N19   N34   A    
H48   N32   S    
C67   C212  A    
C163  C189  A    
C51   C58   A    
C118  H40   S    
C52   C164  S    
C178  C187  A    
C53   C165  S    
C171  H104  S    
C70   C135  A    
C47   N21   A    
C182  H96   S    
C64   C209  A    
C58   C173  A    
C62   C207  A    
N20   Ni5   S    
C102  H175  S    
C123  H64   S    
C34   C105  S    
C90   C124  A    
N7    Ni8   S    
C166  C183  A    
C4    C26   A    
C178  H111  S    
C143  C159  A    
C170  C214  A    
C108  H11   S    
C79   C135  A    
C21   C30   A    
C23   C32   A    
C71   N28   S    
C140  N23   A    
C68   C134  A    
C93   H135  S    
N21   Ni6   S    
C145  C158  A    
C109  H15   S    
N45   Ni4   S    
C45   H123  S    
C188  C197  A    
C152  N43   S    
C165  C191  A    
C166  C192  A    
C177  H110  S    
C38   C108  S    
C122  N35   S    
C1    C52   A    
C15   C25   A    
C177  C186  A    
C7    C178  A    
C113  C138  A    
N3    Ni6   S    
C1    H1    S    
C97   H161  S    
C66   C211  A    
C110  H18   S    
C114  H23   S    
C115  H29   S    
C189  C198  A    
C103  H176  S    
C70   C78   A    
H39   N30   S    
C123  H62   S    
C209  H115  S    
C118  H41   S    
C72   N29   S    
C83   C92   A    
N26   N45   A    
C50   H127  S    
C17   C26   A    
C87   H129  S    
C43   H121  S    
H52   N33   S    
C73   C138  A    
H83   N41   S    
H34   N29   S    
C156  H142  S    
C158  H144  S    
N10   Ni1   S    
C170  H103  S    
C54   C140  A    
C139  C158  A    
C51   H128  S    
C2    C88   A    
C99   H168  S    
N5    N14   A    
N1    Ni1   S    
C176  H109  S    
N25   Ni7   S    
C209  N4    A    
C102  H173  S    
C24   C113  A    
C168  C194  A    
C126  H71   S    
C210  H116  S    
C8    C197  A    
C13   C146  A    
N6    Ni8   S    
C71   C80   A    
C19   C98   S    
C169  C196  A    
C107  H7    S    
C20   C29   A    
C131  H94   S    
C119  H47   S    
C100  H171  S    
C22   C31   A    
C199  C216  A    
C43   N18   A    
C38   N13   A    
C5    C202  A    
C21   C100  S    
C104  H181  S    
C96   H156  S    
C127  H75   S    
C146  C159  A    
C42   C69   A    
N14   Ni4   S    
N8    Ni7   S    
N12   Ni2   S    
C149  N41   S    
C69   C83   S    
C122  H60   S    
C90   C136  A    
C85   C94   A    
C40   N15   A    
C79   C132  A    
C57   C150  A    
C56   C168  S    
C130  H89   S    
C36   N10   A    
H74   N39   S    
C160  H146  S    
C12   C201  A    
C98   H164  S    
C77   N35   S    
C59   C166  S    
C110  H16   S    
N16   Ni3   S    
C115  H27   S    
C53   C112  A    
C9    C17   A    
C72   C137  A    
N5    Ni7   S    
C77   C86   A    
C44   H122  S    
C171  C180  A    
C13   C101  A    
C212  N7    A    
C145  N37   S    
C105  H182  S    
C9    C198  A    
H43   N31   S    
C8    C14   A    
C120  H49   S    
C119  N31   S    
C120  N32   S    
C98   H165  S    
C18   C27   A    
C144  N36   S    
N25   N44   A    
C142  C160  A    
C162  H130  S    
C128  H82   S    
C79   C206  A    
C74   C139  A    
C129  H84   S    
C22   C102  S    
C127  H77   S    
C6    C177  A    
C119  H45   S    
C46   C93   A    
C108  H10   S    
C194  C203  A    
N23   Ni2   S    
C99   H166  S    
N4    N13   A    
C193  H35   S    
C59   C184  A    
C192  H46   S    
C33   H155  S    
C125  N37   S    
C96   H157  S    
C67   C84   S    
C114  H25   S    
C125  H66   S    
N19   Ni5   S    
C49   N24   A    
C103  H178  S    
C61   C205  A    
C163  C180  A    
C100  H169  S    
C121  N33   S    
C121  H54   S    
C208  N3    A    
C196  H57   S    
C76   C142  A    
