data_mof_unit_49727.cif
_audit_creation_date              2012-12-10T17:35:46-0500
_audit_creation_method            fapswitch 2.2
_symmetry_space_group_name_H-M    P1
_symmetry_Int_Tables_number       1
_space_group_crystal_system       triclinic
_cell_length_a                    10.506842
_cell_length_b                    11.994455
_cell_length_c                    12.860653
_cell_angle_alpha                 93.636937
_cell_angle_beta                  90.314085
_cell_angle_gamma                 85.987996
_cell_volume                      1613.52012849

loop_
_atom_site_label
_atom_site_type_symbol
_atom_type_description
_atom_site_fract_x
_atom_site_fract_y
_atom_site_fract_z
_atom_type_partial_charge
C1    C     C_R   0.497612 0.522274 0.700439 0.944508
C2    C     C_R   0.502868 0.477662 0.299597 0.958661
C3    C     C_R   0.473417 0.443986 0.867212 -0.139963
C4    C     C_R   0.534749 0.554221 0.132917 -0.145816
C5    C     C_R   0.486896 0.448576 0.973901 -0.025239
C6    C     C_R   0.524735 0.548630 0.025893 -0.027113
C7    C     C_R   0.383586 0.954536 0.400424 -0.299529
C8    C     C_R   0.616212 0.045500 0.599774 -0.309471
C9    C     C_R   0.394455 0.838318 0.410232 0.052807
C10   C     C_R   0.605362 0.161716 0.589929 0.046136
C11   C     C_R   0.549824 0.858305 0.543334 -0.011833
C12   C     C_R   0.450169 0.141690 0.456690 -0.011531
C13   C     C_R   0.542109 0.975714 0.536343 0.089754
C14   C     C_R   0.457811 0.024299 0.463761 0.083237
C15   C     C_R   0.742550 0.499875 0.500109 0.953800
C16   C     C_R   0.257445 0.500134 0.499871 0.965332
C17   C     C_3   0.967494 0.395518 0.516554 -0.251464
C18   C     C_3   0.032498 0.604551 0.483405 -0.223945
C19   C     C_3   0.044091 0.470107 0.591418 0.463716
C20   C     C_3   0.955882 0.529975 0.408536 0.552948
C21   C     C_3   0.122732 0.500809 0.499885 -0.160935
C22   C     C_3   0.877245 0.499254 0.500069 -0.170466
C23   C     C_3   0.047984 0.426906 0.423432 -0.285517
C24   C     C_3   0.951996 0.573178 0.576518 -0.339548
C25   C     C_R   0.504953 0.463479 0.188269 -0.115201
C26   C     C_R   0.499561 0.535748 0.811832 -0.124330
C27   C     C_R   0.550484 0.641674 0.969970 0.554234
C28   C     C_R   0.464126 0.354578 0.029462 0.568268
C29   C     C_R   0.535363 0.635165 0.862467 -0.290865
C30   C     C_R   0.471394 0.363421 0.137423 -0.276716
H1    H     H_    0.937957 0.310835 0.531262 0.193858
H2    H     H_    0.062034 0.689240 0.468719 0.190090
H3    H     H_    0.090880 0.368608 0.360619 0.187771
H4    H     H_    0.909087 0.631492 0.639316 0.167930
H5    H     H_    0.563378 0.630307 0.173809 0.231173
H6    H     H_    0.443773 0.368105 0.826596 0.232906
H7    H     H_    0.447485 0.293424 0.181111 0.173114
H8    H     H_    0.555098 0.706369 0.818815 0.171114
H9    H     H_    0.385815 0.180536 0.401401 0.122342
H10   H     H_    0.614209 0.819448 0.598596 0.117056
H11   H     H_    0.662525 0.215364 0.638936 0.136300
H12   H     H_    0.337157 0.784691 0.361329 0.146171
H13   H     H_    0.317835 0.989404 0.343889 0.159222
H14   H     H_    0.681837 0.010663 0.656417 0.149526
N1    N     N_R   0.523490 0.207800 0.519350 -0.102774
N2    N     N_R   0.476510 0.792200 0.480650 -0.105017
O1    O     O_R   0.506270 0.421700 0.658830 -0.625021
O2    O     O_R   0.493730 0.578300 0.341170 -0.617972
O3    O     O_R   0.491200 0.609310 0.646410 -0.632266
O4    O     O_R   0.508800 0.390690 0.353590 -0.635318
O5    O     O_R   0.693580 0.406210 0.506230 -0.633989
O6    O     O_R   0.306420 0.593790 0.493770 -0.631736
O7    O     O_R   0.678510 0.593830 0.493810 -0.597227
O8    O     O_R   0.321490 0.406170 0.506190 -0.599087
Zn1   Zn    Zn3+2 0.510060 0.374730 0.508290 0.986628
Zn2   Zn    Zn3+2 0.489940 0.625270 0.491710 0.991433
S1    S     S_3+6 0.105739 0.431190 0.714404 0.038231
O9    O     O_2   0.194687 0.327884 0.698918 -0.249671
O10   O     O_2   0.177131 0.524775 0.764445 -0.315009
O11   O     O_3   0.984815 0.404380 0.792022 -0.515627
H15   H     H_    0.927681 0.473807 0.795473 0.334104
S2    S     S_3+6 0.894664 0.568939 0.285511 -0.002694
O12   O     O_2   0.823410 0.474965 0.236025 -0.334431
O13   O     O_2   0.806308 0.672722 0.300439 -0.313384
O14   O     O_3   0.017114 0.594024 0.208767 -0.552508
H16   H     H_    0.977776 0.609790 0.140622 0.379237
O15   O     O_3   0.584209 0.740563 0.020485 -0.612923
C31   C     C_3   0.717956 0.743474 0.015666 -0.278157
H17   H     H_    0.750855 0.747563 0.933975 0.147937
H18   H     H_    0.767107 0.670235 0.051822 0.190448
H19   H     H_    0.745881 0.820120 0.060352 0.214141
O16   O     O_3   0.424648 0.257532 0.979243 -0.587730
C32   C     C_3   0.530740 0.178993 0.968361 -0.280420
H20   H     H_    0.566997 0.154017 0.045581 0.171063
H21   H     H_    0.608467 0.211705 0.922958 0.154865
H22   H     H_    0.500420 0.102591 0.924659 0.212383

loop_
_geom_bond_atom_site_label_1
_geom_bond_atom_site_label_2
_ccdc_geom_bond_type
C16   C21   S    
C27   C29   A    
C18   C21   S    
C32   H20   S    
C4    C25   A    
C19   S1    S    
C9    H12   S    
C17   C23   S    
C18   C24   S    
C15   O7    A    
C19   C21   S    
C5    C6    A    
S1    O10   D    
O2    Zn2   S    
S2    O13   D    
C2    O4    A    
C15   C22   S    
C31   H17   S    
C23   H3    S    
C29   H8    S    
C15   O5    A    
O5    Zn1   S    
O16   C32   S    
C4    H5    S    
C9    N2    A    
C13   C14   A    
C10   H11   S    
C32   H21   S    
C28   O16   S    
C7    C14   A    
O15   C31   S    
C8    H14   S    
C4    C6    A    
C1    O1    A    
S1    O11   S    
C2    O2    A    
C24   H4    S    
C30   H7    S    
O11   H15   S    
S2    O12   D    
C5    C28   A    
C6    C27   A    
C20   C23   S    
O4    Zn1   S    
C10   N1    A    
C31   H18   S    
C12   C14   A    
C7    H13   S    
C21   C23   S    
C1    C26   S    
C17   H1    S    
C32   H22   S    
C22   C24   S    
C18   H2    S    
O1    Zn1   S    
O7    Zn2   S    
C25   C30   A    
C7    C9    A    
O8    Zn1   S    
S2    O14   S    
C3    C26   A    
C16   O6    A    
C20   C22   S    
C12   N1    A    
C3    C5    A    
O3    Zn2   S    
C17   C22   S    
C12   H9    S    
C28   C30   A    
C19   C24   S    
C11   C13   A    
S1    O9    D    
C3    H6    S    
C31   H19   S    
C17   C19   S    
C2    C25   S    
C18   C20   S    
C20   S2    S    
C11   H10   S    
C16   O8    A    
C27   O15   S    
C8    C13   A    
N1    Zn1   S    
C26   C29   A    
C8    C10   A    
O14   H16   S    
N2    Zn2   S    
C11   N2    A    
C1    O3    A    
O6    Zn2   S    
