data_mof_unit_19259.cif
_audit_creation_date              2012-12-11T17:16:01-0500
_audit_creation_method            fapswitch 2.2
_symmetry_space_group_name_H-M    P1
_symmetry_Int_Tables_number       1
_space_group_crystal_system       monoclinic
_cell_length_a                    14.63748
_cell_length_b                    7.235448
_cell_length_c                    13.445267
_cell_angle_alpha                 90.0
_cell_angle_beta                  99.518353
_cell_angle_gamma                 90.0
_cell_volume                      1404.36682889

loop_
_atom_site_label
_atom_site_type_symbol
_atom_type_description
_atom_site_fract_x
_atom_site_fract_y
_atom_site_fract_z
_atom_type_partial_charge
O1    O     O_R   0.398210 0.494340 0.401550 -0.530711
O2    O     O_R   0.601790 0.994340 0.598450 -0.530711
O3    O     O_R   0.586310 0.821730 0.403360 -0.519394
O4    O     O_R   0.413690 0.321730 0.596640 -0.519394
C1    C     C_R   0.615841 0.656292 0.382358 0.671894
C2    C     C_R   0.384159 0.156292 0.617642 0.671894
O5    O     O_R   0.397970 0.823900 0.389580 -0.537957
O6    O     O_R   0.602030 0.323900 0.610420 -0.537957
O7    O     O_R   0.412100 0.996500 0.584560 -0.542377
O8    O     O_R   0.587900 0.496500 0.415440 -0.542377
C3    C     C_R   0.365039 0.655254 0.363078 0.725327
C4    C     C_R   0.634961 0.155254 0.636922 0.725327
O9    O     O_3   0.504860 0.661550 0.563990 -0.373062
O10   O     O_3   0.495140 0.161550 0.436010 -0.373062
V1    V     V_3+5 0.499100 0.935510 0.488130 1.424918
V2    V     V_3+5 0.500900 0.435510 0.511870 1.424918
C5    C     C_1   0.716021 0.144687 0.716829 -0.194364
C6    C     C_1   0.283979 0.644687 0.283171 -0.194365
C7    C     C_1   0.783921 0.134128 0.783226 -0.191631
C8    C     C_1   0.216079 0.634127 0.216774 -0.191631
C9    C     C_3   0.215515 0.338643 0.796093 -0.344128
C10   C     C_3   0.784485 0.838643 0.203907 -0.344128
H1    H     H_    0.153109 0.417232 0.761090 0.156185
H2    H     H_    0.846891 0.917232 0.238909 0.156185
H3    H     H_    0.241085 0.407218 0.869556 0.126355
H4    H     H_    0.758915 0.907218 0.130444 0.126355
C11   C     C_3   0.291948 0.348417 0.729542 0.209365
C12   C     C_3   0.708052 0.848417 0.270458 0.209365
H5    H     H_    0.356559 0.390069 0.780800 0.083071
H6    H     H_    0.643441 0.890069 0.219200 0.083071
H7    H     H_    0.086148 0.131400 0.673837 0.141676
H8    H     H_    0.913852 0.631400 0.326163 0.141676
H9    H     H_    0.191916 0.118975 0.564516 0.138199
H10   H     H_    0.808084 0.618975 0.435484 0.138199
C13   C     C_3   0.148400 0.051961 0.708601 -0.394673
C14   C     C_3   0.851600 0.551961 0.291399 -0.394672
C15   C     C_3   0.277909 0.022737 0.857386 0.177923
C16   C     C_3   0.722091 0.522737 0.142614 0.177922
C17   C     C_3   0.188178 0.134812 0.813470 0.023187
C18   C     C_3   0.811822 0.634811 0.186530 0.023188
H11   H     H_    0.257030 0.875467 0.863691 0.107552
H12   H     H_    0.742970 0.375467 0.136310 0.107552
C19   C     C_3   0.312612 0.150780 0.688276 0.057274
C20   C     C_3   0.687388 0.650780 0.311724 0.057274
C21   C     C_3   0.221568 0.055121 0.637288 -0.340617
C22   C     C_3   0.778432 0.555121 0.362712 -0.340617
C23   C     C_3   0.349938 0.032583 0.783183 -0.401534
C24   C     C_3   0.650062 0.532583 0.216817 -0.401534
H13   H     H_    0.416706 0.092337 0.821341 0.150205
H14   H     H_    0.583294 0.592337 0.178659 0.150205
H15   H     H_    0.366069 0.889948 0.760574 0.130251
H16   H     H_    0.633931 0.389949 0.239426 0.130251
H17   H     H_    0.125666 0.906864 0.717157 0.148464
H18   H     H_    0.874334 0.406864 0.282842 0.148464
H19   H     H_    0.237179 0.911015 0.617568 0.145373
H20   H     H_    0.762821 0.411015 0.382432 0.145373
O11   O     O_R   0.912140 0.786650 0.084610 -0.539416
O12   O     O_R   0.087860 0.286650 0.915390 -0.539416
O13   O     O_R   0.102040 0.454810 0.110430 -0.535474
O14   O     O_R   0.897960 0.954810 0.889570 -0.535474
C25   C     C_R   0.134989 0.623548 0.136890 0.722491
C26   C     C_R   0.865011 0.123548 0.863109 0.722491
O15   O     O_R   0.913690 0.457060 0.096650 -0.543870
O16   O     O_R   0.086310 0.957060 0.903350 -0.543870
O17   O     O_R   0.898200 0.284560 0.901540 -0.529821
O18   O     O_R   0.101800 0.784560 0.098460 -0.529821
C27   C     C_R   0.884789 0.625499 0.117690 0.651478
C28   C     C_R   0.115211 0.125499 0.882310 0.651478
O19   O     O_3   0.995160 0.617270 0.936040 -0.375192
O20   O     O_3   0.004840 0.117270 0.063960 -0.375192
V3    V     V_3+5 0.000900 0.343280 0.011870 1.387515
V4    V     V_3+5 0.999100 0.843280 0.988130 1.387515
N1    N     N_2   0.274111 0.497599 0.655389 -0.495253
H21   H     H_    0.274352 0.625666 0.688926 0.234466
C29   C     C_3   0.203370 0.479576 0.566917 -0.522416
H22   H     H_    0.188492 0.617190 0.531352 0.165787
H23   H     H_    0.137910 0.424728 0.586636 0.180730
H24   H     H_    0.228994 0.391442 0.509982 0.197110
N2    N     N_2   0.725889 0.997599 0.344611 -0.495253
H25   H     H_    0.725647 0.125666 0.311074 0.234466
C30   C     C_3   0.796631 0.979576 0.433082 -0.522417
H26   H     H_    0.811509 0.117190 0.468648 0.165787
H27   H     H_    0.862090 0.924728 0.413363 0.180731
H28   H     H_    0.771006 0.891442 0.490018 0.197110
N3    N     N_2   0.319989 0.088979 0.957154 -0.518465
H29   H     H_    0.275188 0.149381 0.999157 0.251318
C31   C     C_3   0.382720 0.961178 0.016878 -0.573950
H30   H     H_    0.417930 0.031939 0.086008 0.199797
H31   H     H_    0.436606 0.911659 0.974016 0.208170
H32   H     H_    0.343583 0.840915 0.039491 0.188225
N4    N     N_2   0.680011 0.588978 0.042846 -0.518465
H33   H     H_    0.724812 0.649379 0.000843 0.251318
C32   C     C_3   0.617279 0.461178 0.983122 -0.573949
H34   H     H_    0.582070 0.531938 0.913992 0.199797
H35   H     H_    0.563393 0.411662 0.025984 0.208170
H36   H     H_    0.656416 0.340913 0.960510 0.188225

loop_
_geom_bond_atom_site_label_1
_geom_bond_atom_site_label_2
_ccdc_geom_bond_type
C31   H30   S    
C3    C6    S    
C32   H34   S    
C13   H17   S    
H9    C21   S    
C17   C28   S    
O1    C3    A    
O2    C4    A    
C2    O7    A    
C30   H26   S    
C23   H13   S    
N3    H29   S    
O5    C3    A    
H8    C14   S    
C10   H2    S    
C15   N3    S    
C16   H12   S    
O12   V3    S    
C11   H5    S    
O14   V4    S    
C7    C26   S    
O14   C26   A    
N1    H21   S    
C8    C25   S    
C12   N2    S    
C25   O18   A    
O18   V4    S    
C18   C27   S    
C4    C5    S    
C14   C22   S    
O20   V3    S    
H10   C22   S    
C15   C23   S    
C16   C24   S    
O5    V1    S    
C9    C11   S    
O6    V2    S    
C10   C12   S    
N1    C29   S    
O11   C27   A    
C30   H27   S    
C20   C22   S    
N3    C31   S    
O15   C27   A    
O13   C25   A    
C14   C18   S    
O4    C2    A    
N4    H33   S    
N2    C30   S    
C23   H15   S    
O17   V3    S    
C16   N4    S    
C12   C20   S    
O4    V2    S    
O19   V4    S    
C13   C17   S    
C29   H22   S    
N4    C32   S    
C29   H23   S    
C9    C17   S    
O6    C4    A    
C10   C18   S    
O1    V2    S    
O2    V1    S    
C19   C21   S    
O12   C28   A    
C1    C20   S    
O15   V3    S    
C32   H36   S    
C2    C19   S    
C9    H1    S    
H7    C13   S    
C31   H32   S    
C13   C21   S    
O16   C28   A    
C30   H28   S    
O3    V1    S    
C9    H3    S    
C26   O17   A    
O3    C1    A    
C12   H6    S    
O7    V1    S    
C1    O8    A    
C15   C17   S    
O8    V2    S    
C16   C18   S    
C24   H14   S    
C5    C7    T    
C6    C8    T    
O16   V4    S    
O11   V4    S    
C15   H11   S    
C29   H24   S    
C14   H18   S    
N2    H25   S    
C11   C19   S    
C24   H16   S    
C21   H19   S    
C32   H35   S    
C10   H4    S    
O9    V2    S    
C22   H20   S    
C31   H31   S    
O10   V1    S    
C11   N1    S    
C19   C23   S    
C20   C24   S    
O13   V3    S    
