data_mof_unit_63973.cif
_audit_creation_date              2012-10-26T20:22:51-0400
_audit_creation_method            fapswitch 2.2
_symmetry_space_group_name_H-M    P1
_symmetry_Int_Tables_number       1
_space_group_crystal_system       orthorhombic
_cell_length_a                    19.43155
_cell_length_b                    14.432073
_cell_length_c                    13.135488
_cell_angle_alpha                 90.0
_cell_angle_beta                  90.0
_cell_angle_gamma                 90.0
_cell_volume                      3683.68404786

loop_
_atom_site_label
_atom_site_type_symbol
_atom_type_description
_atom_site_fract_x
_atom_site_fract_y
_atom_site_fract_z
_atom_type_partial_charge
C1    C     C_1   0.500000 0.500000 0.050683 -0.043449
C2    C     C_R   0.500000 0.671310 0.500000 0.556197
C3    C     C_R   0.365676 0.500000 0.500000 0.555615
C4    C     C_R   0.634324 0.500000 0.500000 0.555615
C5    C     C_1   0.500000 0.227116 0.500000 -0.040657
C6    C     C_1   0.500000 0.772884 0.500000 -0.040657
C7    C     C_1   0.500000 0.142306 0.500000 -0.035071
C8    C     C_1   0.500000 0.857694 0.500000 -0.035071
C9    C     C_1   0.500000 0.042404 0.500000 0.007063
C10   C     C_1   0.500000 0.957595 0.500000 0.007063
C11   C     C_R   0.253907 0.500000 0.592248 -0.131674
C12   C     C_1   0.500000 0.500000 0.949317 -0.043449
C13   C     C_R   0.746093 0.500000 0.407752 -0.131674
C14   C     C_R   0.746093 0.500000 0.592248 -0.131674
C15   C     C_R   0.253907 0.500000 0.407752 -0.131674
C16   C     C_R   0.182209 0.500000 0.592290 -0.114938
C17   C     C_R   0.817791 0.500000 0.407710 -0.114938
C18   C     C_R   0.817791 0.500000 0.592290 -0.114938
C19   C     C_R   0.182209 0.499999 0.407710 -0.114938
C20   C     C_R   0.145632 0.500000 0.500000 0.033942
C21   C     C_R   0.854367 0.500000 0.500000 0.033942
C22   C     C_R   0.290218 0.500000 0.500000 0.007169
C23   C     C_R   0.709782 0.500000 0.500000 0.007169
C24   C     C_R   0.930201 0.500000 0.500000 0.346432
C25   C     C_R   0.069799 0.500000 0.500000 0.346432
C26   C     C_1   0.500000 0.500000 0.173606 0.122652
C27   C     C_1   0.500000 0.500000 0.826394 0.122652
C28   C     C_R   0.500000 0.328690 0.500000 0.556197
Cu1   Cu    Cu3+1 0.500000 0.500000 0.592680 0.981667
Cu2   Cu    Cu3+1 0.500000 0.500000 0.407320 0.981667
H1    H     H_    0.155561 0.500001 0.664680 0.140767
H2    H     H_    0.844439 0.499999 0.335320 0.140767
H3    H     H_    0.844439 0.500001 0.664680 0.140767
H4    H     H_    0.155561 0.499999 0.335320 0.140767
H5    H     H_    0.280927 0.500001 0.664379 0.132485
H6    H     H_    0.719073 0.499999 0.335621 0.132485
H7    H     H_    0.719073 0.500001 0.664379 0.132485
H8    H     H_    0.280927 0.499999 0.335621 0.132485
N1    N     N_1   0.500000 0.500000 0.268070 -0.167637
N2    N     N_1   0.500000 0.500000 0.731930 -0.167637
N3    N     N_R   0.034216 0.499999 0.411101 -0.228369
N4    N     N_R   0.965784 0.500000 0.588899 -0.228369
N5    N     N_R   0.965784 0.499999 0.411101 -0.228369
N6    N     N_R   0.034216 0.500000 0.588899 -0.228369
O1    O     O_R   0.500000 0.376050 0.578280 -0.470617
O2    O     O_R   0.500000 0.623950 0.421720 -0.470617
O3    O     O_R   0.500000 0.623950 0.578280 -0.470617
O4    O     O_R   0.500000 0.376050 0.421720 -0.470617
O5    O     O_R   0.400140 0.500000 0.578290 -0.489616
O6    O     O_R   0.599860 0.500000 0.421710 -0.489616
O7    O     O_R   0.599860 0.500000 0.578290 -0.489616
O8    O     O_R   0.400140 0.500000 0.421710 -0.489616

loop_
_geom_bond_atom_site_label_1
_geom_bond_atom_site_label_2
_ccdc_geom_bond_type
C14   C23   A    
C3    O8    A    
C15   H8    S    
Cu1   Cu2   S    
C2    O3    A    
C5    C28   S    
C24   N4    A    
C9    C10   T    
C14   C18   A    
C11   C22   A    
C19   C20   A    
C13   C17   A    
C27   N2    T    
C16   C20   A    
C11   H5    S    
Cu2   O6    S    
Cu1   O5    S    
C2    O2    A    
C14   H7    S    
C15   C19   A    
N3    N5    A    
C2    C6    S    
C1    C12   T    
N4    N6    A    
Cu1   O3    S    
C25   N6    A    
Cu2   O4    S    
Cu1   O7    S    
Cu2   N1    S    
C5    C7    T    
C15   C22   A    
C3    O5    A    
C1    C26   S    
C24   N5    A    
C18   H3    S    
C28   O1    A    
Cu1   O1    S    
C20   C25   S    
C4    O7    A    
C18   C21   A    
C13   C23   A    
C13   H6    S    
C7    C9    S    
C11   C16   A    
C21   C24   S    
C25   N3    A    
C17   H2    S    
C4    C23   S    
Cu2   O8    S    
C28   O4    A    
C3    C22   S    
C6    C8    T    
C12   C27   S    
Cu1   N2    S    
Cu2   O2    S    
C8    C10   S    
C17   C21   A    
C4    O6    A    
C26   N1    T    
C16   H1    S    
C19   H4    S    
