data_mof_unit_39261.cif
_audit_creation_date              2012-12-11T15:06:59-0500
_audit_creation_method            fapswitch 2.2
_symmetry_space_group_name_H-M    P1
_symmetry_Int_Tables_number       1
_space_group_crystal_system       triclinic
_cell_length_a                    19.800186
_cell_length_b                    11.421665
_cell_length_c                    18.683014
_cell_angle_alpha                 89.999726
_cell_angle_beta                  89.664971
_cell_angle_gamma                 90.0
_cell_volume                      4225.11177453

loop_
_atom_site_label
_atom_site_type_symbol
_atom_type_description
_atom_site_fract_x
_atom_site_fract_y
_atom_site_fract_z
_atom_type_partial_charge
C1    C     C_R   0.761774 0.522476 0.639058 0.574457
C2    C     C_3   0.253454 0.057027 0.563308 0.057761
C3    C     C_R   0.738183 0.028202 0.149415 0.537260
C4    C     C_R   0.773318 0.129999 0.857410 0.536918
C5    C     C_R   0.226681 0.130004 0.142588 0.536924
C6    C     C_R   0.273318 0.629999 0.857410 0.536918
C7    C     C_R   0.726680 0.630004 0.142588 0.536924
C8    C     C_R   0.966240 0.353928 0.854756 0.540368
C9    C     C_R   0.033759 0.353929 0.145245 0.540370
C10   C     C_R   0.466240 0.853928 0.854756 0.540368
C11   C     C_R   0.533759 0.853929 0.145245 0.540370
C12   C     C_3   0.687580 0.133087 0.465199 -0.173106
C13   C     C_3   0.246546 0.557025 0.436692 0.057760
C14   C     C_3   0.312419 0.133090 0.534801 -0.173106
C15   C     C_3   0.187580 0.633087 0.465199 -0.173106
C16   C     C_3   0.812419 0.633090 0.534801 -0.173106
C17   C     C_3   0.696202 0.156462 0.545740 0.154515
C18   C     C_3   0.303797 0.156463 0.454259 0.154514
C19   C     C_3   0.196202 0.656462 0.545740 0.154515
C20   C     C_3   0.803797 0.656463 0.454259 0.154514
C21   C     C_3   0.753887 0.942950 0.481883 -0.279161
C22   C     C_3   0.246113 0.942952 0.518118 -0.279157
C23   C     C_3   0.253887 0.442950 0.481883 -0.279161
C24   C     C_3   0.753454 0.557027 0.563308 0.057761
C25   C     C_3   0.746113 0.442951 0.518118 -0.279157
C26   C     C_3   0.917445 0.170955 0.158437 -0.095755
C27   C     C_3   0.082552 0.170949 0.841568 -0.095754
C28   C     C_3   0.417445 0.670955 0.158437 -0.095755
C29   C     C_3   0.582552 0.670949 0.841568 -0.095754
C30   C     C_3   0.589059 0.214296 0.583869 -0.152752
C31   C     C_3   0.410943 0.214295 0.416134 -0.152776
C32   C     C_3   0.089059 0.714296 0.583869 -0.152752
C33   C     C_3   0.910943 0.714295 0.416134 -0.152776
C34   C     C_3   0.760455 0.093694 0.573903 0.027352
C35   C     C_3   0.239545 0.093694 0.426097 0.027349
C36   C     C_3   0.260455 0.593694 0.573903 0.027352
C37   C     C_3   0.739545 0.593694 0.426097 0.027349
C38   C     C_3   0.749908 0.963819 0.562663 -0.218806
C39   C     C_3   0.250092 0.963819 0.437339 -0.218806
C40   C     C_3   0.249908 0.463819 0.562663 -0.218806
C41   C     C_R   0.238226 0.522475 0.360942 0.574457
C42   C     C_3   0.750092 0.463819 0.437339 -0.218806
C43   C     C_3   0.823677 0.132462 0.528915 -0.222444
C44   C     C_3   0.176323 0.132462 0.471084 -0.222443
C45   C     C_3   0.323677 0.632462 0.528915 -0.222444
C46   C     C_3   0.676323 0.632462 0.471084 -0.222443
C47   C     C_3   0.004140 0.205046 0.458944 -0.233055
C48   C     C_3   0.995861 0.205047 0.541057 -0.233054
C49   C     C_3   0.504140 0.705046 0.458944 -0.233055
C50   C     C_3   0.495861 0.705047 0.541057 -0.233054
C51   C     C_3   0.064255 0.404329 0.474306 -0.207972
C52   C     C_R   0.261774 0.022476 0.639058 0.574457
C53   C     C_3   0.935744 0.404329 0.525694 -0.207974
C54   C     C_3   0.564255 0.904329 0.474306 -0.207972
C55   C     C_3   0.435744 0.904329 0.525694 -0.207974
C56   C     C_3   0.943232 0.389595 0.444624 -0.260654
C57   C     C_3   0.056766 0.389598 0.555375 -0.260652
C58   C     C_3   0.443232 0.889595 0.444624 -0.260654
C59   C     C_3   0.556766 0.889598 0.555375 -0.260652
C60   C     C_3   0.011094 0.332407 0.430968 0.040264
C61   C     C_3   0.988905 0.332408 0.569032 0.040263
C62   C     C_3   0.511094 0.832407 0.430968 0.040264
C63   C     C_R   0.738225 0.022475 0.360942 0.574457
C64   C     C_3   0.488905 0.832408 0.569032 0.040263
C65   C     C_3   0.814428 0.013105 0.042004 -0.249188
C66   C     C_3   0.185573 0.013107 0.957996 -0.249194
C67   C     C_3   0.314428 0.513105 0.042004 -0.249188
C68   C     C_3   0.685573 0.513107 0.957996 -0.249194
C69   C     C_R   0.774814 0.122763 0.649205 0.558981
C70   C     C_R   0.225185 0.122763 0.350795 0.558982
C71   C     C_R   0.274814 0.622763 0.649205 0.558981
C72   C     C_R   0.725185 0.622763 0.350795 0.558982
C73   C     C_3   0.814429 0.011863 0.961535 -0.238814
C74   C     C_3   0.811536 0.125743 0.447692 0.192054
C75   C     C_3   0.185572 0.011866 0.038465 -0.238818
C76   C     C_3   0.314429 0.511863 0.961535 -0.238814
C77   C     C_3   0.685572 0.511866 0.038465 -0.238818
C78   C     C_3   0.688521 0.005324 0.028038 -0.228443
C79   C     C_3   0.311478 0.005322 0.971966 -0.228461
C80   C     C_3   0.188521 0.505324 0.028038 -0.228443
C81   C     C_3   0.811478 0.505323 0.971966 -0.228461
C82   C     C_3   0.740931 0.191218 0.058407 -0.253729
C83   C     C_3   0.259074 0.191217 0.941589 -0.253720
C84   C     C_3   0.240931 0.691218 0.058407 -0.253729
C85   C     C_3   0.188463 0.125744 0.552307 0.192055
C86   C     C_3   0.759074 0.691217 0.941589 -0.253720
C87   C     C_3   0.745795 0.060548 0.072226 0.049892
C88   C     C_3   0.254206 0.060547 0.927774 0.049892
C89   C     C_3   0.245795 0.560548 0.072226 0.049892
C90   C     C_3   0.754206 0.560547 0.927774 0.049892
C91   C     C_3   0.758457 0.096886 0.933471 0.060098
C92   C     C_3   0.241541 0.096894 0.066527 0.060101
C93   C     C_3   0.258457 0.596886 0.933471 0.060098
C94   C     C_3   0.741542 0.596894 0.066527 0.060101
C95   C     C_3   0.690827 0.038121 0.947215 -0.250073
C96   C     C_3   0.311536 0.625743 0.447692 0.192054
C97   C     C_3   0.309174 0.038136 0.052786 -0.250068
C98   C     C_3   0.190827 0.538121 0.947215 -0.250073
C99   C     C_3   0.809174 0.538136 0.052786 -0.250068
C100  C     C_3   0.757965 0.209650 0.978900 -0.236309
C101  C     C_3   0.242030 0.209656 0.021093 -0.236323
C102  C     C_3   0.257965 0.709650 0.978900 -0.236309
C103  C     C_3   0.742030 0.709656 0.021093 -0.236323
C104  C     C_3   0.000375 0.478904 0.040474 -0.298013
C105  C     C_3   0.999624 0.478904 0.959526 -0.298012
C106  C     C_3   0.500375 0.978904 0.040474 -0.298013
C107  C     C_3   0.688463 0.625744 0.552307 0.192055
C108  C     C_3   0.499624 0.978904 0.959526 -0.298012
C109  C     C_3   0.065315 0.284295 0.024310 -0.144314
C110  C     C_3   0.934681 0.284298 0.975693 -0.144315
C111  C     C_3   0.565315 0.784295 0.024310 -0.144314
C112  C     C_3   0.434681 0.784298 0.975693 -0.144315
C113  C     C_3   0.944375 0.288110 0.058551 0.132156
C114  C     C_3   0.055622 0.288107 0.941451 0.132154
C115  C     C_3   0.444375 0.788110 0.058551 0.132156
C116  C     C_3   0.555622 0.788107 0.941451 0.132154
C117  C     C_R   0.968608 0.342139 0.645029 0.532525
C118  C     C_3   0.746546 0.057025 0.436692 0.057760
C119  C     C_R   0.031392 0.342139 0.354971 0.532524
C120  C     C_R   0.468608 0.842139 0.645029 0.532525
C121  C     C_R   0.531392 0.842139 0.354971 0.532524
C122  C     C_3   0.010791 0.351523 0.069343 0.058276
C123  C     C_3   0.989207 0.351523 0.930658 0.058277
C124  C     C_3   0.510791 0.851523 0.069343 0.058276
C125  C     C_3   0.489207 0.851523 0.930658 0.058277
C126  C     C_R   0.761818 0.528199 0.850586 0.537266
C127  C     C_R   0.238183 0.528203 0.149415 0.537260
C128  C     C_R   0.261818 0.028199 0.850586 0.537266
Cr1   Cr    Cr6+3 0.885690 0.492860 0.745310 0.994789
Cr2   Cr    Cr6+3 0.111880 0.178590 0.246990 0.996931
Cr3   Cr    Cr6+3 0.388120 0.678590 0.753010 0.996931
Cr4   Cr    Cr6+3 0.611880 0.678590 0.246990 0.996931
Cr5   Cr    Cr6+3 0.114310 0.492860 0.254690 0.994793
Cr6   Cr    Cr6+3 0.385690 0.992860 0.745310 0.994789
Cr7   Cr    Cr6+3 0.614310 0.992860 0.254690 0.994793
Cr8   Cr    Cr6+3 0.729880 0.332270 0.748190 0.999707
Cr9   Cr    Cr6+3 0.270120 0.332270 0.251810 0.999707
Cr10  Cr    Cr6+3 0.229880 0.832270 0.748190 0.999707
Cr11  Cr    Cr6+3 0.770120 0.832270 0.251810 0.999707
Cr12  Cr    Cr6+3 0.888120 0.178590 0.753010 0.996931
F1    F     F_    0.805378 0.234342 0.417082 -0.727895
F2    F     F_    0.194620 0.234342 0.582916 -0.727896
F3    F     F_    0.305378 0.734342 0.417082 -0.727895
F4    F     F_    0.694620 0.734342 0.582916 -0.727896
H1    H     H_    0.639724 0.090584 0.454964 0.129013
H2    H     H_    0.193634 0.912743 0.527642 0.091496
H3    H     H_    0.462734 0.044231 0.941329 0.149141
H4    H     H_    0.951951 0.514178 0.061000 0.114190
H5    H     H_    0.048050 0.514174 0.939000 0.114188
H6    H     H_    0.451951 0.014178 0.061000 0.114190
H7    H     H_    0.548050 0.014174 0.939000 0.114188
H8    H     H_    0.609369 0.832243 0.037596 0.037840
H9    H     H_    0.390628 0.832250 0.962407 0.037838
H10   H     H_    0.109369 0.332244 0.037596 0.037840
H11   H     H_    0.890628 0.332250 0.962407 0.037838
H12   H     H_    0.598076 0.839349 0.917927 0.082373
H13   H     H_    0.306366 0.412742 0.472360 0.091502
H14   H     H_    0.401922 0.839355 0.082075 0.082373
H15   H     H_    0.098076 0.339349 0.917927 0.082373
H16   H     H_    0.901922 0.339355 0.082075 0.082373
H17   H     H_    0.929462 0.192639 0.957314 0.193681
H18   H     H_    0.070533 0.192636 0.042689 0.193685
H19   H     H_    0.429462 0.692639 0.957314 0.193681
H20   H     H_    0.570533 0.692636 0.042689 0.193685
H21   H     H_    0.718321 0.875360 0.465797 0.134083
H22   H     H_    0.281678 0.875361 0.534206 0.134079
H23   H     H_    0.218321 0.375360 0.465797 0.134083
H24   H     H_    0.693634 0.412743 0.527642 0.091496
H25   H     H_    0.781678 0.375361 0.534206 0.134079
H26   H     H_    0.700116 0.937659 0.584469 0.236631
H27   H     H_    0.299884 0.937660 0.415533 0.236632
H28   H     H_    0.200116 0.437659 0.584469 0.236631
H29   H     H_    0.799884 0.437660 0.415533 0.236632
H30   H     H_    0.855041 0.081154 0.421459 0.134137
H31   H     H_    0.144959 0.081153 0.578541 0.134136
H32   H     H_    0.355041 0.581154 0.421459 0.134137
H33   H     H_    0.644959 0.581153 0.578541 0.134136
H34   H     H_    0.841979 0.218840 0.544862 0.130614
H35   H     H_    0.789212 0.911804 0.590673 0.149578
H36   H     H_    0.158021 0.218840 0.455136 0.130614
H37   H     H_    0.341979 0.718840 0.544862 0.130614
H38   H     H_    0.658021 0.718840 0.455136 0.130614
H39   H     H_    0.861834 0.173229 0.155660 0.102950
H40   H     H_    0.932037 0.244646 0.193648 0.132323
H41   H     H_    0.932239 0.088208 0.185165 0.156263
H42   H     H_    0.138164 0.173237 0.844345 0.102940
H43   H     H_    0.067955 0.244634 0.806353 0.132334
H44   H     H_    0.067763 0.088195 0.814844 0.156261
H45   H     H_    0.361834 0.673229 0.155660 0.102950
H46   H     H_    0.210788 0.911803 0.409329 0.149581
H47   H     H_    0.432036 0.744646 0.193648 0.132323
H48   H     H_    0.432239 0.588208 0.185165 0.156263
H49   H     H_    0.638164 0.673237 0.844345 0.102940
H50   H     H_    0.567955 0.744634 0.806353 0.132334
H51   H     H_    0.567763 0.588195 0.814844 0.156261
H52   H     H_    0.575041 0.237707 0.528096 0.081471
H53   H     H_    0.607174 0.293035 0.613049 0.141736
H54   H     H_    0.542670 0.183169 0.611476 0.141641
H55   H     H_    0.424937 0.237747 0.471900 0.081456
H56   H     H_    0.392843 0.293006 0.386926 0.141764
H57   H     H_    0.289212 0.411804 0.590673 0.149578
H58   H     H_    0.457341 0.183157 0.388563 0.141618
H59   H     H_    0.075040 0.737707 0.528096 0.081471
H60   H     H_    0.107174 0.793035 0.613049 0.141736
H61   H     H_    0.042670 0.683169 0.611476 0.141641
H62   H     H_    0.924937 0.737747 0.471900 0.081456
H63   H     H_    0.892843 0.793006 0.386926 0.141764
H64   H     H_    0.957341 0.683157 0.388563 0.141618
H65   H     H_    0.710788 0.411803 0.409329 0.149581
H66   H     H_    0.046747 0.151288 0.442388 0.130941
H67   H     H_    0.953253 0.151288 0.557613 0.130941
H68   H     H_    0.546747 0.651288 0.442388 0.130941
H69   H     H_    0.360275 0.090589 0.545038 0.129018
H70   H     H_    0.453253 0.651288 0.557613 0.130941
H71   H     H_    0.959834 0.162023 0.434223 0.116995
H72   H     H_    0.040166 0.162025 0.565779 0.116999
H73   H     H_    0.459834 0.662023 0.434223 0.116995
H74   H     H_    0.540166 0.662025 0.565779 0.116999
H75   H     H_    0.615510 0.887897 0.455880 0.118606
H76   H     H_    0.384490 0.887896 0.544120 0.118606
H77   H     H_    0.115510 0.387897 0.455880 0.118606
H78   H     H_    0.884490 0.387896 0.544120 0.118606
H79   H     H_    0.597632 0.836705 0.578031 0.206552
H80   H     H_    0.139724 0.590584 0.454964 0.129013
H81   H     H_    0.402367 0.836700 0.421970 0.206551
H82   H     H_    0.097632 0.336705 0.578031 0.206552
H83   H     H_    0.902367 0.336700 0.421970 0.206551
H84   H     H_    0.941759 0.475426 0.417885 0.193125
H85   H     H_    0.058238 0.475430 0.582112 0.193122
H86   H     H_    0.441759 0.975426 0.417885 0.193125
H87   H     H_    0.558238 0.975430 0.582112 0.193122
H88   H     H_    0.947041 0.497630 0.536544 0.137312
H89   H     H_    0.052957 0.497630 0.463453 0.137308
H90   H     H_    0.447041 0.997630 0.536544 0.137312
H91   H     H_    0.860275 0.590589 0.545038 0.129018
H92   H     H_    0.552957 0.997630 0.463453 0.137308
H93   H     H_    0.830416 0.926371 0.061413 0.139879
H94   H     H_    0.169585 0.926372 0.938588 0.139878
H95   H     H_    0.330416 0.426371 0.061413 0.139879
H96   H     H_    0.669585 0.426372 0.938588 0.139878
H97   H     H_    0.684672 0.217361 0.435828 0.139863
H98   H     H_    0.315325 0.217364 0.564170 0.139862
H99   H     H_    0.184672 0.717361 0.435828 0.139863
H100  H     H_    0.815325 0.717364 0.564170 0.139862
H101  H     H_    0.854431 0.071604 0.057978 0.193223
H102  H     H_    0.863610 0.067391 0.540671 0.082041
H103  H     H_    0.145570 0.071606 0.942022 0.193219
H104  H     H_    0.354431 0.571604 0.057978 0.193223
H105  H     H_    0.645570 0.571607 0.942022 0.193219
H106  H     H_    0.866640 0.033920 0.944542 0.158768
H107  H     H_    0.133360 0.033919 0.055458 0.158768
H108  H     H_    0.366640 0.533920 0.944542 0.158768
H109  H     H_    0.633360 0.533919 0.055458 0.158768
H110  H     H_    0.804895 0.922203 0.941408 0.121365
H111  H     H_    0.195109 0.922207 0.058594 0.121366
H112  H     H_    0.304895 0.422203 0.941408 0.121365
H113  H     H_    0.136389 0.067390 0.459329 0.082040
H114  H     H_    0.695109 0.422207 0.058594 0.121366
H115  H     H_    0.698187 0.913798 0.032521 0.110842
H116  H     H_    0.301805 0.913799 0.967497 0.110849
H117  H     H_    0.198187 0.413798 0.032521 0.110842
H118  H     H_    0.801805 0.413799 0.967497 0.110849
H119  H     H_    0.686137 0.959148 0.913072 0.096453
H120  H     H_    0.313868 0.959170 0.086937 0.096451
H121  H     H_    0.186137 0.459148 0.913072 0.096453
H122  H     H_    0.813868 0.459170 0.086937 0.096451
H123  H     H_    0.688790 0.222402 0.070195 0.128123
H124  H     H_    0.363610 0.567391 0.540671 0.082041
H125  H     H_    0.311217 0.222395 0.929808 0.128129
H126  H     H_    0.188790 0.722402 0.070195 0.128123
H127  H     H_    0.811217 0.722395 0.929808 0.128129
H128  H     H_    0.775812 0.242233 0.092605 0.098631
H129  H     H_    0.224199 0.242233 0.907384 0.098627
H130  H     H_    0.275812 0.742233 0.092605 0.098631
H131  H     H_    0.724199 0.742233 0.907384 0.098627
H132  H     H_    0.809268 0.237192 0.977738 0.113069
H133  H     H_    0.190725 0.237190 0.022242 0.113073
H134  H     H_    0.309268 0.737192 0.977738 0.113069
H135  H     H_    0.636389 0.567390 0.459329 0.082040
H136  H     H_    0.690725 0.737190 0.022242 0.113073
H137  H     H_    0.723667 0.274236 0.955693 0.128698
H138  H     H_    0.276320 0.274253 0.044302 0.128694
H139  H     H_    0.223667 0.774236 0.955693 0.128698
H140  H     H_    0.776320 0.774253 0.044302 0.128694
H141  H     H_    0.639644 0.027696 0.051558 0.131449
H142  H     H_    0.360357 0.027676 0.948443 0.131448
H143  H     H_    0.139644 0.527696 0.051558 0.131449
H144  H     H_    0.860357 0.527676 0.948443 0.131448
H145  H     H_    0.706549 0.246976 0.554357 0.138931
H146  H     H_    0.806366 0.912742 0.472360 0.091502
H147  H     H_    0.293451 0.246977 0.445639 0.138937
H148  H     H_    0.206549 0.746976 0.554357 0.138931
H149  H     H_    0.793451 0.746977 0.445639 0.138937
H150  H     H_    0.649315 0.099716 0.933968 0.124244
H151  H     H_    0.350684 0.099740 0.066027 0.124252
H152  H     H_    0.149315 0.599716 0.933968 0.124244
H153  H     H_    0.850684 0.599740 0.066027 0.124252
H154  H     H_    0.037267 0.544229 0.058670 0.149139
H155  H     H_    0.962734 0.544231 0.941329 0.149141
H156  H     H_    0.537267 0.044228 0.058670 0.149139
O1    O     O_R   0.957210 0.449410 0.665480 -0.535869
O2    O     O_R   0.167480 0.095300 0.164000 -0.530921
O3    O     O_R   0.332520 0.595300 0.836000 -0.530921
O4    O     O_R   0.667480 0.595300 0.164000 -0.530921
O5    O     O_R   0.946380 0.253940 0.826940 -0.487269
O6    O     O_R   0.053620 0.253940 0.173060 -0.487269
O7    O     O_R   0.446380 0.753940 0.826940 -0.487269
O8    O     O_R   0.553620 0.753940 0.173060 -0.487269
O9    O     O_3   0.834560 0.334570 0.748840 -0.290863
O10   O     O_3   0.165440 0.334570 0.251160 -0.290865
O11   O     O_3   0.334560 0.834570 0.748840 -0.290863
O12   O     O_R   0.042790 0.449410 0.334520 -0.535867
O13   O     O_3   0.665440 0.834570 0.251160 -0.290865
O14   O     O_R   0.820730 0.541240 0.668250 -0.514038
O15   O     O_R   0.179270 0.541240 0.331750 -0.514037
O16   O     O_R   0.320730 0.041240 0.668250 -0.514038
O17   O     O_R   0.679270 0.041240 0.331750 -0.514037
O18   O     O_R   0.714240 0.455060 0.663710 -0.550466
O19   O     O_R   0.285760 0.455060 0.336290 -0.550465
O20   O     O_R   0.214240 0.955060 0.663710 -0.550466
O21   O     O_R   0.785760 0.955060 0.336290 -0.550465
O22   O     O_R   0.736780 0.204870 0.675910 -0.481998
O23   O     O_R   0.457210 0.949410 0.665480 -0.535869
O24   O     O_R   0.263220 0.204870 0.324090 -0.482000
O25   O     O_R   0.236780 0.704870 0.675910 -0.481998
O26   O     O_R   0.763220 0.704870 0.324090 -0.482000
O27   O     O_R   0.833070 0.087590 0.673490 -0.538642
O28   O     O_R   0.166930 0.087590 0.326510 -0.538640
O29   O     O_R   0.333070 0.587590 0.673490 -0.538642
O30   O     O_R   0.666930 0.587590 0.326510 -0.538640
O31   O     O_R   0.946890 0.246800 0.676300 -0.518706
O32   O     O_R   0.053110 0.246800 0.323700 -0.518706
O33   O     O_R   0.446890 0.746800 0.676300 -0.518706
O34   O     O_R   0.542790 0.949410 0.334520 -0.535867
O35   O     O_R   0.553110 0.746800 0.323700 -0.518706
O36   O     O_R   0.956650 0.457120 0.827980 -0.540217
O37   O     O_R   0.043350 0.457120 0.172020 -0.540215
O38   O     O_R   0.456650 0.957120 0.827980 -0.540217
O39   O     O_R   0.543350 0.957120 0.172020 -0.540215
O40   O     O_R   0.820220 0.548390 0.818890 -0.505348
O41   O     O_R   0.179780 0.548390 0.181110 -0.505347
O42   O     O_R   0.320220 0.048390 0.818890 -0.505348
O43   O     O_R   0.679780 0.048390 0.181110 -0.505347
O44   O     O_R   0.713680 0.462770 0.826210 -0.538509
O45   O     O_R   0.736260 0.212010 0.826560 -0.509742
O46   O     O_R   0.286320 0.462770 0.173790 -0.538508
O47   O     O_R   0.213680 0.962770 0.826210 -0.538509
O48   O     O_R   0.786320 0.962770 0.173790 -0.538508
O49   O     O_3   0.947756 0.174245 0.089020 -0.590044
O50   O     O_3   0.052240 0.174242 0.910984 -0.590042
O51   O     O_3   0.447756 0.674245 0.089020 -0.590044
O52   O     O_3   0.552240 0.674242 0.910984 -0.590042
O53   O     O_3   0.637957 0.124006 0.585404 -0.589452
O54   O     O_3   0.362042 0.124005 0.414597 -0.589449
O55   O     O_3   0.137957 0.624006 0.585404 -0.589452
O56   O     O_R   0.263740 0.212010 0.173440 -0.509741
O57   O     O_3   0.862042 0.624005 0.414597 -0.589449
O58   O     O_R   0.236260 0.712010 0.826560 -0.509742
O59   O     O_R   0.763740 0.712010 0.173440 -0.509741
O60   O     O_R   0.832520 0.095300 0.836000 -0.530921

loop_
_geom_bond_atom_site_label_1
_geom_bond_atom_site_label_2
_ccdc_geom_bond_type
C68   H105  S    
C33   H64   S    
C84   H130  S    
Cr9   O24   S    
Cr1   O14   S    
C101  H138  S    
C26   H41   S    
C98   H121  S    
C82   C87   S    
C107  F4    S    
Cr10  O25   S    
C4    O60   A    
C105  C123  S    
Cr12  O31   S    
C37   C42   S    
C112  H19   S    
C39   H27   S    
C113  C122  S    
C116  O52   S    
C29   O52   S    
C68   C90   S    
C78   H115  S    
C82   H123  S    
C49   C62   S    
C91   C100  S    
C10   C125  S    
C96   H32   S    
C78   H141  S    
C36   C71   S    
C79   H142  S    
C95   H119  S    
C83   C88   S    
Cr11  O26   S    
C63   O17   A    
C20   H149  S    
C128  O47   A    
C13   C41   S    
C31   H56   S    
C65   C87   S    
C56   H84   S    
C68   H96   S    
C63   C118  S    
C27   O50   S    
C115  H14   S    
Cr3   O11   S    
C8    O5    A    
C14   H69   S    
C49   H73   S    
C25   C42   S    
C110  C123  S    
C108  H7    S    
Cr12  O9    S    
C16   C20   S    
Cr5   O41   S    
C46   H135  S    
C90   C126  S    
C24   C107  S    
C27   H43   S    
C109  H10   S    
C34   C69   S    
C112  C125  S    
C42   H65   S    
C2    C52   S    
C28   O51   S    
C23   H23   S    
C81   C90   S    
C19   H148  S    
C17   C34   S    
C76   H108  S    
Cr5   O10   S    
C89   C127  S    
C68   C77   S    
C69   O27   A    
C38   H35   S    
C111  C124  S    
C102  H139  S    
C79   C97   S    
C8    C123  S    
C57   C61   S    
C64   C120  S    
C51   H89   S    
C86   H131  S    
C32   H59   S    
Cr10  O11   S    
C51   H77   S    
C29   H49   S    
C2    C14   S    
C116  H12   S    
C3    O43   A    
C73   H110  S    
C22   H22   S    
C72   O30   A    
C106  C124  S    
C21   H146  S    
C43   H102  S    
Cr10  O20   S    
C78   C87   S    
C43   H34   S    
C106  H6    S    
C84   C102  S    
C104  C105  S    
C11   C124  S    
C54   H92   S    
C59   H87   S    
C28   H45   S    
C126  O40   A    
C58   H86   S    
Cr3   O3    S    
C86   H127  S    
C74   H30   S    
C75   H111  S    
C66   C88   S    
Cr3   O29   S    
C104  C122  S    
C66   C75   S    
C77   C94   S    
C13   C23   S    
C60   C119  S    
C15   H80   S    
Cr9   O10   S    
C14   H98   S    
C53   C61   S    
Cr7   O13   S    
C9    O6    A    
C22   H2    S    
Cr8   O18   S    
Cr7   O39   S    
C18   C35   S    
Cr5   O12   S    
C4    C91   S    
C117  O31   A    
C1    O14   A    
C107  H33   S    
Cr1   O40   S    
C103  H136  S    
C92   C97   S    
C54   C59   S    
C25   H24   S    
C74   C118  S    
C15   H99   S    
C13   C96   S    
C81   C99   S    
C95   H150  S    
C77   H109  S    
C8    O36   A    
Cr1   O9    S    
C70   O28   A    
C18   O54   S    
C16   H91   S    
C29   H51   S    
C119  O32   A    
C9    O37   A    
C12   H1    S    
C12   C17   S    
C2    C22   S    
C99   H153  S    
C109  C114  S    
Cr2   O28   S    
C114  C123  S    
C16   H100  S    
C104  H154  S    
C30   H54   S    
C74   F1    S    
C116  C125  S    
C33   O57   S    
C55   C58   S    
C55   H90   S    
C44   C85   S    
C28   H47   S    
C103  H140  S    
Cr2   O10   S    
C53   C56   S    
Cr3   O7    S    
C33   H63   S    
C83   C101  S    
C111  H20   S    
C127  O46   A    
C128  O42   A    
Cr8   O44   S    
Cr5   O37   S    
C112  H9    S    
C46   H38   S    
C26   O49   S    
C37   C46   S    
C114  O50   S    
C20   C37   S    
C106  C108  S    
C22   C39   S    
C23   H13   S    
C49   H68   S    
C67   H95   S    
Cr6   O23   S    
Cr9   O56   S    
C76   H112  S    
C121  O35   A    
C53   H88   S    
C91   C95   S    
Cr2   O32   S    
C41   O15   A    
C1    C24   S    
C49   C50   S    
C19   O55   S    
C51   C60   S    
C83   H129  S    
C10   O38   A    
C3    O48   A    
Cr8   O9    S    
C58   C62   S    
C99   H122  S    
Cr6   O16   S    
C104  H4    S    
Cr6   O42   S    
C111  H8    S    
C44   H36   S    
C31   H55   S    
C45   H37   S    
C54   H75   S    
C15   C19   S    
Cr1   O1    S    
C100  H132  S    
C101  H133  S    
C109  H18   S    
C72   O26   A    
C23   C40   S    
C21   H21   S    
C2    C85   S    
C80   C89   S    
C127  O41   A    
C31   H58   S    
Cr8   O45   S    
Cr11  O13   S    
C30   H52   S    
C47   H71   S    
C100  H137  S    
C111  C116  S    
C32   O55   S    
Cr6   O11   S    
C26   H39   S    
Cr2   O2    S    
C10   O7    A    
Cr4   O8    S    
C75   H107  S    
C79   C88   S    
C38   H26   S    
C66   H103  S    
C34   C43   S    
C61   C117  S    
Cr7   O17   S    
C54   C62   S    
C53   H78   S    
Cr11  O48   S    
Cr7   O43   S    
C56   C60   S    
Cr4   O13   S    
C32   H60   S    
C35   C39   S    
C63   O21   A    
C21   C118  S    
C76   C93   S    
C57   H85   S    
Cr4   O30   S    
C48   H67   S    
C78   C95   S    
C6    C93   S    
C1    O18   A    
C9    C122  S    
C30   O53   S    
C58   H81   S    
C59   H79   S    
C92   C101  S    
C12   C118  S    
C94   C103  S    
C71   O25   A    
C86   C90   S    
Cr5   O15   S    
C40   H28   S    
Cr4   O35   S    
C70   O24   A    
C7    C94   S    
C65   H101  S    
C115  C124  S    
C52   O16   A    
C56   H83   S    
C80   C98   S    
C97   H151  S    
C98   H152  S    
C93   C102  S    
Cr2   O6    S    
C18   H147  S    
Cr9   O46   S    
C84   H126  S    
C96   F3    S    
C120  O33   A    
C27   H44   S    
C40   H57   S    
C12   H97   S    
Cr4   O4    S    
C37   C72   S    
C117  O1    A    
C71   O29   A    
C41   O19   A    
C7    O59   A    
C32   H61   S    
C48   H72   S    
C50   C64   S    
C14   C18   S    
C5    O56   A    
C59   C64   S    
C17   H145  S    
C79   H116  S    
C19   C36   S    
C109  C122  S    
C120  O23   A    
C50   H70   S    
C29   H50   S    
C67   C89   S    
C65   C73   S    
C82   H128  S    
C4    O45   A    
C83   H125  S    
Cr1   O36   S    
Cr11  O59   S    
C97   H120  S    
C44   H113  S    
C45   H124  S    
Cr11  O21   S    
C35   C70   S    
Cr8   O22   S    
C110  H11   S    
C108  C125  S    
C5    O2    A    
C108  H3    S    
C7    O4    A    
C43   C74   S    
Cr12  O5    S    
C47   C60   S    
C81   H118  S    
C16   C24   S    
C65   H93   S    
C102  H134  S    
C86   C103  S    
C28   H48   S    
C110  H17   S    
Cr12  O60   S    
C6    O58   A    
C33   H62   S    
C21   C38   S    
C3    C87   S    
C36   C40   S    
C24   C25   S    
C73   C91   S    
C81   H144  S    
C39   H46   S    
C17   O53   S    
C50   H74   S    
C27   H42   S    
C67   H104  S    
C47   C48   S    
C46   C107  S    
C36   C45   S    
C35   C44   S    
C110  C113  S    
C121  O34   A    
Cr6   O38   S    
C57   H82   S    
C69   O22   A    
C77   H114  S    
C13   C15   S    
C84   C89   S    
C75   C92   S    
Cr10  O58   S    
C73   H106  S    
C31   O54   S    
C25   H25   S    
C80   H143  S    
C11   O8    A    
C34   C38   S    
C82   C100  S    
C80   H117  S    
C42   H29   S    
C85   F2    S    
C55   H76   S    
C20   O57   S    
C55   C64   S    
C105  H5    S    
C119  O12   A    
C88   C128  S    
Cr9   O19   S    
C113  O49   S    
C48   C61   S    
C126  O44   A    
C94   C99   S    
Cr7   O34   S    
C115  O51   S    
C85   H31   S    
Cr12  O27   S    
Cr10  O47   S    
C112  C115  S    
C113  H16   S    
C114  H15   S    
C5    C92   S    
C6    O3    A    
Cr3   O33   S    
C51   C57   S    
C30   H53   S    
C52   O20   A    
C47   H66   S    
C67   C76   S    
C105  H155  S    
C11   O39   A    
C45   C96   S    
C106  H156  S    
C93   C98   S    
C62   C121  S    
C66   H94   S    
C26   H40   S    
