data_mof_unit_33498.cif
_audit_creation_date              2012-12-11T17:06:27-0500
_audit_creation_method            fapswitch 2.2
_symmetry_space_group_name_H-M    P1
_symmetry_Int_Tables_number       1
_space_group_crystal_system       triclinic
_cell_length_a                    6.993782
_cell_length_b                    14.540215
_cell_length_c                    15.949274
_cell_angle_alpha                 90.587981
_cell_angle_beta                  90.115334
_cell_angle_gamma                 89.953504
_cell_volume                      1621.80992498

loop_
_atom_site_label
_atom_site_type_symbol
_atom_type_description
_atom_site_fract_x
_atom_site_fract_y
_atom_site_fract_z
_atom_type_partial_charge
O1    O     O_R   0.494400 0.415450 0.412630 -0.536597
O2    O     O_R   0.823940 0.405730 0.586760 -0.515344
O3    O     O_R   0.994240 0.584550 0.587370 -0.548260
C1    C     C_R   0.655082 0.384291 0.615725 0.768871
O4    O     O_R   0.824110 0.404430 0.413240 -0.540197
O5    O     O_R   0.994420 0.583240 0.412620 -0.536435
C2    C     C_R   0.655301 0.382334 0.384320 0.751097
O6    O     O_R   0.494230 0.416760 0.587380 -0.510749
O7    O     O_3   0.660800 0.558670 0.500000 -0.392392
V1    V     V_3+5 0.935650 0.489120 0.500000 1.557733
O8    O     O_R   0.324140 0.594270 0.413240 -0.542646
C3    C     C_R   0.155370 0.616729 0.385118 0.711444
O9    O     O_R   0.323960 0.595570 0.586760 -0.540744
C4    C     C_R   0.155320 0.617410 0.615585 0.743273
V2    V     V_3+5 0.435660 0.510880 0.500000 1.544680
O10   O     O_3   0.160640 0.441330 0.500000 -0.339130
C5    C     C_3   0.045857 0.669693 0.770501 -0.093475
C6    C     C_3   0.218732 0.714051 0.816689 -0.165284
H1    H     H_    0.288702 0.686447 0.873694 0.164356
H2    H     H_    0.973977 0.604787 0.788515 0.152960
C7    C     C_3   0.121237 0.808891 0.810287 -0.092358
C8    C     C_3   0.948282 0.765289 0.764724 -0.168557
C9    C     C_3   0.047532 0.781656 0.679174 -0.162587
C10   C     C_3   0.219507 0.824836 0.725759 0.426692
C11   C     C_3   0.318438 0.730254 0.731245 -0.145969
C12   C     C_3   0.145103 0.686930 0.685875 -0.088295
H3    H     H_    0.795742 0.779760 0.778821 0.152187
H4    H     H_    0.978262 0.809613 0.622149 0.155774
H5    H     H_    0.471073 0.716203 0.716992 0.134544
C13   C     C_R   0.281745 0.754980 0.191171 0.014552
C14   C     C_R   0.122595 0.813031 0.181615 -0.133894
C15   C     C_R   0.984180 0.810702 0.245177 -0.088819
H6    H     H_    0.875064 0.862140 0.247752 0.167599
C16   C     C_R   0.996455 0.747888 0.311324 -0.074348
H7    H     H_    0.897857 0.753434 0.362441 0.105391
C17   C     C_R   0.145734 0.684106 0.316061 -0.071073
C18   C     C_R   0.292610 0.691707 0.257079 0.066723
C19   C     C_3   0.498177 0.712997 0.274494 0.176022
C20   C     C_3   0.486823 0.782705 0.201907 0.274835
C21   C     C_R   0.505318 0.246263 0.682924 0.059049
C22   C     C_R   0.645406 0.315060 0.683176 -0.140673
C23   C     C_R   0.770230 0.319366 0.752050 -0.116333
H8    H     H_    0.863721 0.377848 0.758681 0.201376
C24   C     C_R   0.761851 0.254433 0.816951 0.365470
C25   C     C_R   0.623055 0.183505 0.814928 -0.156938
C26   C     C_R   0.496096 0.180785 0.746719 0.004438
C27   C     C_3   0.282989 0.185182 0.750333 -0.391335
C28   C     C_3   0.293266 0.258916 0.684063 0.651404
H9    H     H_    0.230623 0.210060 0.812163 0.223190
H10   H     H_    0.215743 0.120096 0.728292 0.227510
C29   C     C_R   0.492368 0.315305 0.256974 0.169620
C30   C     C_R   0.647277 0.316583 0.312833 -0.106076
C31   C     C_R   0.799497 0.255678 0.296133 -0.160855
H11   H     H_    0.922509 0.254361 0.337180 0.152148
C32   C     C_R   0.788558 0.191301 0.229726 -0.139535
H12   H     H_    0.904050 0.142567 0.221518 0.131222
C33   C     C_R   0.624756 0.185698 0.178213 -0.115535
C34   C     C_R   0.481094 0.251324 0.191483 0.127132
C35   C     C_3   0.272000 0.237853 0.204047 -0.422693
C36   C     C_3   0.284151 0.307947 0.275143 -0.405432
H13   H     H_    0.238161 0.167268 0.225615 0.169146
H14   H     H_    0.186510 0.262117 0.149754 0.210867
H15   H     H_    0.256613 0.278216 0.337916 0.189507
H16   H     H_    0.206360 0.372902 0.261816 0.195382
O11   O     O_R   0.771650 0.079500 0.908680 -0.526911
O12   O     O_R   0.441690 0.091800 0.082800 -0.547236
O13   O     O_R   0.271460 0.912980 0.083410 -0.531484
C37   C     C_R   0.610930 0.115091 0.110832 0.781245
O14   O     O_R   0.441930 0.090510 0.909280 -0.542960
O15   O     O_R   0.271690 0.911670 0.908660 -0.531086
C38   C     C_R   0.610930 0.113849 0.881961 0.774502
O16   O     O_R   0.771410 0.080810 0.083440 -0.532385
O17   O     O_3   0.605100 0.937580 0.996050 -0.332666
V3    V     V_3+5 0.330220 0.007110 0.996030 1.564939
O18   O     O_R   0.941980 0.900620 0.909250 -0.543512
C39   C     C_R   0.110705 0.878624 0.880529 0.732474
O19   O     O_R   0.941740 0.901920 0.082770 -0.494103
C40   C     C_R   0.110977 0.881028 0.112488 0.721773
V4    V     V_3+5 0.830220 0.985300 0.996000 1.626236
O20   O     O_3   0.105210 0.054870 0.996020 -0.374273
C41   C     C_2   0.529757 0.749611 0.363279 0.255717
H17   H     H_    0.618909 0.711129 0.406016 0.125095
O21   O     O_2   0.443463 0.816228 0.391029 -0.545371
Cl1   Cl    Cl    0.617644 0.751411 0.109072 -0.513657
C42   C     C_2   0.504515 0.883927 0.225138 0.300207
H18   H     H_    0.414178 0.914429 0.273012 0.093133
O22   O     O_2   0.610152 0.934494 0.186341 -0.522434
Cl2   Cl    Cl    0.909993 0.272284 0.905123 -0.634103
Cl3   Cl    Cl    0.225142 0.370240 0.722349 -0.658223
Cl4   Cl    Cl    0.182329 0.227709 0.587081 -0.597570
Cl5   Cl    Cl    0.337807 0.927529 0.695269 -0.650864
Cl6   Cl    Cl    0.638427 0.611702 0.254735 -0.600119

loop_
_geom_bond_atom_site_label_1
_geom_bond_atom_site_label_2
_ccdc_geom_bond_type
O12   C37   A    
C32   H12   S    
O11   V4    S    
C25   C38   S    
C6    C7    S    
O17   V3    S    
C31   C32   A    
C1    O6    A    
C41   H17   S    
C27   H9    S    
O19   C40   A    
C30   C31   A    
C21   C26   A    
C6    C11   S    
C7    C39   S    
C36   H15   S    
C5    C12   S    
C17   C18   A    
C20   Cl1   S    
C16   H7    S    
O16   V4    S    
O5    C3    A    
C19   C20   S    
C1    C22   S    
V2    O10   S    
O12   V3    S    
C19   Cl6   S    
C5    H2    S    
C6    H1    S    
C22   C23   A    
C9    C12   S    
C29   C34   A    
O14   C38   A    
O8    V2    S    
C14   C15   A    
O15   V3    S    
C9    C10   S    
O1    V2    S    
O9    C4    A    
C3    C17   S    
O7    V1    S    
O19   V4    S    
C35   C36   S    
V3    O20   S    
C7    C8    S    
O13   C40   A    
C23   C24   A    
C41   O21   D    
C27   H10   S    
C42   O22   D    
C11   H5    S    
C35   H13   S    
C29   C30   A    
C10   C11   S    
O4    C2    A    
C34   C35   S    
C42   H18   S    
C13   C18   A    
C15   C16   A    
O2    C1    A    
O18   C39   A    
O5    V1    S    
C18   C19   S    
C27   C28   S    
C37   O16   A    
C5    C6    S    
O17   V4    S    
O14   V3    S    
O13   V3    S    
C9    H4    S    
C4    C12   S    
O3    C4    A    
C21   C22   A    
O6    V2    S    
C8    H3    S    
O9    V2    S    
C19   C41   S    
O15   C39   A    
C23   H8    S    
C20   C42   S    
C33   C37   S    
O2    V1    S    
C10   Cl5   S    
C24   C25   A    
C14   C40   S    
C21   C28   S    
C26   C27   S    
C35   H14   S    
C28   Cl4   S    
O1    C2    A    
C2    C30   S    
O8    C3    A    
C31   H11   S    
C5    C8    S    
C36   H16   S    
C15   H6    S    
C32   C33   A    
C11   C12   S    
O4    V1    S    
O3    V1    S    
O11   C38   A    
C33   C34   A    
C13   C14   A    
C13   C20   S    
C16   C17   A    
O7    V2    S    
V4    O20   S    
C25   C26   A    
C7    C10   S    
C8    C9    S    
V1    O10   S    
C29   C36   S    
C24   Cl2   S    
O18   V4    S    
C28   Cl3   S    
