data_mof_unit_32690.cif
_audit_creation_date              2012-12-10T20:31:03-0500
_audit_creation_method            fapswitch 2.2
_symmetry_space_group_name_H-M    P1
_symmetry_Int_Tables_number       1
_space_group_crystal_system       triclinic
_cell_length_a                    14.922929
_cell_length_b                    10.662923
_cell_length_c                    9.86194
_cell_angle_alpha                 89.913269
_cell_angle_beta                  90.012313
_cell_angle_gamma                 89.826416
_cell_volume                      1569.24300196

loop_
_atom_site_label
_atom_site_type_symbol
_atom_type_description
_atom_site_fract_x
_atom_site_fract_y
_atom_site_fract_z
_atom_type_partial_charge
C1    C     C_R   0.503230 0.259903 0.500032 0.922734
C2    C     C_R   0.905620 0.598163 0.559145 0.144630
C3    C     C_R   0.953170 0.290647 0.391302 0.239306
C4    C     C_R   0.046173 0.290125 0.395143 -0.173614
C5    C     C_R   0.093622 0.391807 0.449697 0.003464
C6    C     C_R   0.046448 0.496129 0.502707 -0.034255
C7    C     C_R   0.092586 0.601056 0.556260 0.073385
C8    C     C_R   0.044118 0.701853 0.611872 -0.127100
C9    C     C_R   0.951403 0.699821 0.614086 -0.211136
C10   C     C_R   0.187149 0.391827 0.452612 0.152635
C11   C     C_R   0.231610 0.498324 0.500747 -0.204825
C12   C     C_R   0.327082 0.499463 0.500100 1.036082
C13   C     C_R   0.185955 0.602827 0.552121 0.137709
C14   C     C_R   0.526621 0.063787 0.621816 0.101557
C15   C     C_R   0.519122 0.128615 0.499717 -0.084795
C16   C     C_R   0.530590 0.064832 0.376579 -0.169267
C17   C     C_R   0.530833 0.935264 0.376596 -0.193804
C18   C     C_R   0.519664 0.871213 0.499751 -0.081956
C19   C     C_R   0.527266 0.935809 0.621941 0.106359
C20   C     C_3   0.472528 0.928635 0.748740 -0.451641
C21   C     C_3   0.471197 0.070822 0.747804 -0.399171
C22   C     C_R   0.446424 0.418841 0.071250 0.145853
C23   C     C_R   0.503460 0.740069 0.499918 0.915219
C24   C     C_R   0.558380 0.572101 0.071891 -0.111796
C25   C     C_R   0.558425 0.572049 0.927884 -0.131147
C26   C     C_R   0.446109 0.419420 0.928644 0.188050
C27   C     C_3   0.346373 0.415300 0.922578 0.294022
C28   C     C_3   0.346635 0.412907 0.076930 -0.534408
C29   C     C_R   0.672859 0.499674 0.500016 0.867386
C30   C     C_R   0.813007 0.597582 0.559819 -0.244184
C31   C     C_R   0.767896 0.498381 0.500300 -0.060375
C32   C     C_R   0.812702 0.397413 0.442271 -0.206365
C33   C     C_R   0.905844 0.393491 0.444596 0.048786
C34   C     C_R   0.952740 0.495753 0.502178 0.052409
H1    H     H_    0.775733 0.675030 0.603947 0.138775
H2    H     H_    0.532636 0.886584 0.280281 0.170589
H3    H     H_    0.405440 0.886627 0.732391 0.258414
H4    H     H_    0.511144 0.888427 0.834967 0.197674
H5    H     H_    0.403403 0.110869 0.729196 0.261162
H6    H     H_    0.508490 0.112939 0.833965 0.206019
H7    H     H_    0.604160 0.632385 0.126187 0.151065
H8    H     H_    0.604253 0.632272 0.873421 0.152248
H9    H     H_    0.317411 0.502157 0.876621 0.122278
H10   H     H_    0.316088 0.498263 0.122359 0.198764
H11   H     H_    0.773930 0.322097 0.398177 0.185434
H12   H     H_    0.323005 0.322863 0.120771 0.260625
H13   H     H_    0.080385 0.209644 0.353111 0.227375
H14   H     H_    0.076757 0.782861 0.654945 0.203574
H15   H     H_    0.915419 0.778428 0.657840 0.161797
H16   H     H_    0.532298 0.113735 0.280240 0.177382
N1    N     N_R   0.499390 0.499140 0.142800 -0.105700
N2    N     N_R   0.499390 0.499180 0.857150 -0.138245
O1    O     O_R   0.500010 0.316790 0.614690 -0.609082
O2    O     O_R   0.500000 0.316760 0.385350 -0.611970
O3    O     O_R   0.367850 0.499990 0.614680 -0.599479
O4    O     O_R   0.367840 0.499950 0.385340 -0.597524
O5    O     O_R   0.500000 0.683240 0.614650 -0.617174
O6    O     O_R   0.499990 0.683210 0.385310 -0.628179
O7    O     O_R   0.632160 0.500050 0.614660 -0.623366
O8    O     O_R   0.632150 0.500010 0.385320 -0.623315
Zn1   Zn    Zn3+2 0.500010 0.500020 0.653130 0.982604
Zn2   Zn    Zn3+2 0.499990 0.499980 0.346870 0.978393
O9    O     O_3   0.317502 0.301178 0.865078 -0.588440
C35   C     C_3   0.224146 0.306372 0.844162 -0.216355
H17   H     H_    0.206156 0.380549 0.769493 0.162125
H18   H     H_    0.187669 0.321633 0.941193 0.168235
H19   H     H_    0.201936 0.215291 0.801832 0.208001
Br1   Br    Br    0.895220 0.147013 0.312958 -0.526247
Br2   Br    Br    0.255777 0.245133 0.399171 -0.539746
Br3   Br    Br    0.252636 0.748637 0.611319 -0.557460

loop_
_geom_bond_atom_site_label_1
_geom_bond_atom_site_label_2
_ccdc_geom_bond_type
C25   H8    S    
O6    Zn2   S    
C23   O6    A    
C11   C12   S    
C8    H14   S    
C24   C25   A    
O5    Zn1   S    
C6    C7    A    
C1    C15   S    
C17   H2    S    
C26   N2    A    
C20   H4    S    
C32   H11   S    
C19   C20   S    
C21   H5    S    
C29   O8    A    
C2    C30   A    
C30   C31   A    
C1    O2    A    
C6    C34   A    
C32   C33   A    
C2    C34   A    
C24   N1    A    
C17   C18   A    
C8    C9    A    
C25   N2    A    
C5    C10   A    
C29   C31   S    
C22   C28   S    
C4    C5    A    
C24   H7    S    
C20   H3    S    
C11   C13   A    
C4    H13   S    
C28   H12   S    
C26   C27   S    
C12   O4    A    
C21   H6    S    
C27   O9    S    
C30   H1    S    
N1    Zn2   S    
C15   C16   A    
O3    Zn1   S    
C14   C21   S    
C16   H16   S    
C33   C34   A    
N2    Zn1   S    
C22   C26   A    
C5    C6    A    
O4    Zn2   S    
O7    Zn1   S    
C12   O3    A    
C7    C8    A    
C10   C11   A    
C3    C33   A    
O9    C35   S    
C18   C23   S    
C35   H19   S    
C27   H9    S    
C7    C13   A    
C9    H15   S    
C20   C21   S    
O8    Zn2   S    
C18   C19   A    
C13   Br3   S    
C27   C28   S    
C23   O5    A    
C29   O7    A    
C10   Br2   S    
C16   C17   A    
C1    O1    A    
O2    Zn2   S    
C14   C15   A    
C2    C9    A    
O1    Zn1   S    
C14   C19   A    
C28   H10   S    
C31   C32   A    
C3    C4    A    
C3    Br1   S    
C22   N1    A    
C35   H17   S    
C35   H18   S    
