data_mof_unit_38624.cif
_audit_creation_date              2012-12-10T18:22:17-0500
_audit_creation_method            fapswitch 2.2
_symmetry_space_group_name_H-M    P1
_symmetry_Int_Tables_number       1
_space_group_crystal_system       triclinic
_cell_length_a                    15.009283
_cell_length_b                    14.001003
_cell_length_c                    15.746543
_cell_angle_alpha                 89.85176
_cell_angle_beta                  89.778605
_cell_angle_gamma                 89.768099
_cell_volume                      3308.99478585

loop_
_atom_site_label
_atom_site_type_symbol
_atom_type_description
_atom_site_fract_x
_atom_site_fract_y
_atom_site_fract_z
_atom_type_partial_charge
C1    C     C_R   0.326824 0.500373 0.497370 0.894465
C2    C     C_3   0.547026 0.398987 0.952530 0.055820
C3    C     C_3   0.541477 0.399898 0.051501 -0.440745
C4    C     C_1   0.505874 0.497565 0.825715 -0.089304
C5    C     C_1   0.502725 0.499182 0.174572 -0.095169
C6    C     C_1   0.501442 0.500066 0.249688 -0.176310
C7    C     C_R   0.813576 0.572179 0.464403 -0.273256
C8    C     C_R   0.769109 0.498330 0.505872 -0.116467
C9    C     C_R   0.815869 0.423615 0.547049 -0.072983
C10   C     C_R   0.909299 0.425086 0.545807 0.069796
C11   C     C_R   0.953718 0.499564 0.501695 0.052867
C12   C     C_R   0.500177 0.500094 0.338267 0.914517
C13   C     C_R   0.905301 0.572697 0.460909 0.124915
C14   C     C_R   0.959520 0.354301 0.587678 -0.218605
C15   C     C_R   0.051609 0.355886 0.584336 -0.214833
C16   C     C_R   0.095157 0.428161 0.539565 0.124043
C17   C     C_R   0.046780 0.500834 0.498038 0.053671
C18   C     C_R   0.091279 0.574348 0.452667 0.072122
C19   C     C_R   0.041090 0.645557 0.411357 -0.220461
C20   C     C_R   0.948932 0.645014 0.416127 -0.213709
C21   C     C_R   0.186803 0.429015 0.536817 -0.277882
C22   C     C_R   0.231220 0.501335 0.493453 -0.114923
C23   C     C_R   0.673324 0.499554 0.502242 0.891912
C24   C     C_R   0.184735 0.574117 0.449625 -0.073252
C25   C     C_R   0.545620 0.797177 0.437820 -0.037722
C26   C     C_R   0.545363 0.202839 0.437724 -0.027235
C27   C     C_R   0.454445 0.798645 0.561225 -0.053088
C28   C     C_R   0.454952 0.201413 0.561585 -0.052438
C29   C     C_R   0.453933 0.899111 0.562066 0.023075
C30   C     C_R   0.454324 0.100946 0.562357 0.024112
C31   C     C_R   0.500745 0.949401 0.498272 0.062407
C32   C     C_R   0.500873 0.050631 0.498388 0.063488
C33   C     C_R   0.547137 0.898333 0.434792 -0.066956
C34   C     C_R   0.547044 0.101702 0.434815 -0.069114
C35   C     C_R   0.407785 0.950017 0.625196 -0.215128
C36   C     C_R   0.408100 0.050070 0.625422 -0.212601
C37   C     C_R   0.593017 0.050801 0.370396 -0.055525
C38   C     C_R   0.593344 0.949362 0.370548 -0.054343
C39   C     C_R   0.500707 0.499828 0.661826 0.903630
C40   C     C_3   0.563742 0.580362 0.048717 -0.155390
C41   C     C_3   0.407783 0.512232 0.048089 -0.158473
C42   C     C_3   0.409448 0.507885 0.949884 -0.447654
C43   C     C_3   0.561675 0.581331 0.950367 -0.456030
C44   C     C_1   0.503649 0.499091 0.750532 -0.192435
C45   C     C_3   0.504135 0.497420 0.082961 0.224291
C46   C     C_3   0.506667 0.495380 0.917430 0.238596
H1    H     H_    0.530677 0.649425 0.928409 0.166633
H2    H     H_    0.380384 0.575263 0.924091 0.166543
H3    H     H_    0.088877 0.300414 0.616893 0.146396
H4    H     H_    0.224060 0.374077 0.570321 0.159240
H5    H     H_    0.072275 0.702275 0.375318 0.158134
H6    H     H_    0.911655 0.700981 0.384280 0.140376
H7    H     H_    0.580525 0.755114 0.390679 0.150308
H8    H     H_    0.580178 0.244970 0.390614 0.153680
H9    H     H_    0.418486 0.758879 0.609325 0.132259
H10   H     H_    0.419510 0.241223 0.610026 0.133320
H11   H     H_    0.371532 0.912405 0.674531 0.141473
H12   H     H_    0.372084 0.087702 0.674919 0.146925
H13   H     H_    0.536444 0.649567 0.072082 0.116647
H14   H     H_    0.383580 0.584247 0.067539 0.119730
H15   H     H_    0.367107 0.448930 0.925399 0.189542
H16   H     H_    0.630034 0.580073 0.922529 0.188189
H17   H     H_    0.607869 0.386201 0.080696 0.174488
H18   H     H_    0.498243 0.341294 0.075835 0.173775
H19   H     H_    0.776320 0.628119 0.432215 0.164141
H20   H     H_    0.928443 0.297391 0.623562 0.162237
N1    N     N_R   0.500070 0.750030 0.500040 -0.100594
N2    N     N_R   0.500070 0.249970 0.500040 -0.101462
O1    O     O_R   0.367860 0.580280 0.500020 -0.608440
O2    O     O_R   0.367860 0.419720 0.500020 -0.624759
O3    O     O_R   0.500020 0.580310 0.377140 -0.616768
O4    O     O_R   0.500020 0.419690 0.377140 -0.620506
O5    O     O_R   0.632160 0.580270 0.499980 -0.626167
O6    O     O_R   0.632160 0.419730 0.499980 -0.607802
O7    O     O_R   0.500010 0.580240 0.622850 -0.621396
O8    O     O_R   0.500010 0.419760 0.622850 -0.617896
Zn1   Zn    Zn3+2 0.500020 0.607200 0.499990 0.955757
Zn2   Zn    Zn3+2 0.500020 0.392800 0.499990 0.957881
C47   C     C_R   0.234058 0.647531 0.399904 0.132432
C48   C     C_R   0.276058 0.622778 0.323139 -0.140312
C49   C     C_R   0.327667 0.689986 0.279476 -0.115013
C50   C     C_R   0.337869 0.781974 0.312274 -0.102004
C51   C     C_R   0.296030 0.807142 0.388505 -0.132943
C52   C     C_R   0.244240 0.740235 0.432316 -0.134465
H21   H     H_    0.269863 0.551207 0.297944 0.123558
H22   H     H_    0.360459 0.670480 0.220649 0.118170
H23   H     H_    0.378438 0.833654 0.278816 0.114657
H24   H     H_    0.304479 0.878211 0.414074 0.135445
H25   H     H_    0.213387 0.759907 0.492081 0.124646
C53   C     C_R   0.640045 0.103297 0.301975 0.128891
C54   C     C_R   0.727506 0.135179 0.314309 -0.162753
C55   C     C_R   0.770732 0.187274 0.250554 -0.127105
C56   C     C_R   0.726922 0.207497 0.174317 -0.102448
C57   C     C_R   0.639886 0.175466 0.161656 -0.140695
C58   C     C_R   0.596373 0.123599 0.225355 -0.141055
H26   H     H_    0.761748 0.120046 0.373268 0.117660
H27   H     H_    0.838096 0.212132 0.260305 0.134455
H28   H     H_    0.760373 0.247974 0.125068 0.137730
H29   H     H_    0.606100 0.191013 0.102586 0.134607
H30   H     H_    0.528732 0.099604 0.215272 0.125943
C59   C     C_R   0.642779 0.897448 0.303401 0.132186
C60   C     C_R   0.600225 0.873003 0.227377 -0.156941
C61   C     C_R   0.647540 0.825438 0.163476 -0.135725
C62   C     C_R   0.737274 0.801956 0.175334 -0.080795
C63   C     C_R   0.779744 0.825630 0.251241 -0.142083
C64   C     C_R   0.732700 0.873359 0.315229 -0.163365
H31   H     H_    0.530875 0.891379 0.217529 0.114398
H32   H     H_    0.614816 0.807208 0.104628 0.121380
H33   H     H_    0.773974 0.765657 0.125632 0.139128
H34   H     H_    0.849200 0.807392 0.260298 0.126174
H35   H     H_    0.766199 0.891887 0.373682 0.124201
C65   C     C_1   0.343534 0.442370 0.082957 0.171604
N3    N     N_1   0.293322 0.387742 0.110326 -0.208752
C66   C     C_1   0.656512 0.573444 0.079620 0.180179
N4    N     N_1   0.729035 0.567646 0.103827 -0.217662
C67   C     C_1   0.641050 0.387323 0.925693 0.115217
N5    N     N_1   0.714671 0.378368 0.904942 -0.216460
C68   C     C_1   0.498280 0.315403 0.919374 0.114858
N6    N     N_1   0.460155 0.250071 0.893377 -0.221680
C69   C     C_R   0.767356 0.343785 0.589161 0.132266
C70   C     C_R   0.718599 0.359494 0.664200 -0.116588
C71   C     C_R   0.668041 0.285702 0.699794 -0.090081
C72   C     C_R   0.666543 0.195866 0.661316 -0.108066
C73   C     C_R   0.715422 0.179596 0.587006 -0.144827
C74   C     C_R   0.765425 0.253316 0.550764 -0.144283
H36   H     H_    0.718366 0.429172 0.693925 0.117241
H37   H     H_    0.629198 0.298357 0.756675 0.144315
H38   H     H_    0.626968 0.139063 0.688720 0.135210
H39   H     H_    0.713650 0.110217 0.556889 0.132694
H40   H     H_    0.801721 0.240526 0.492295 0.123272

loop_
_geom_bond_atom_site_label_1
_geom_bond_atom_site_label_2
_ccdc_geom_bond_type
C63   H34   S    
C56   C57   A    
O2    Zn2   S    
C34   C37   A    
C41   C42   S    
O1    Zn1   S    
C19   C20   A    
N1    Zn1   S    
C66   N4    T    
C28   H10   S    
C72   C73   A    
C4    C46   S    
C3    H18   S    
C2    C46   S    
C16   C21   A    
C37   C53   S    
C18   C24   A    
C5    C6    T    
C28   N2    A    
C37   C38   A    
C25   H7    S    
C38   C59   S    
C36   H12   S    
C6    C12   S    
C62   H33   S    
C27   H9    S    
C27   C29   A    
C50   H23   S    
C8    C23   S    
C67   N5    T    
C18   C19   A    
C42   C46   S    
C71   H37   S    
C68   N6    T    
C65   N3    T    
O4    Zn2   S    
C54   H26   S    
C2    C67   S    
C74   H40   S    
C26   C34   A    
C40   C43   S    
C40   C66   S    
C51   C52   A    
C16   C17   A    
C41   C65   S    
C25   N1    A    
C31   C33   A    
C61   H32   S    
C39   O7    A    
C9    C10   A    
C49   H22   S    
C51   H24   S    
C12   O4    A    
C1    C22   S    
C40   H13   S    
C21   C22   A    
C57   C58   A    
C23   O5    A    
C26   H8    S    
C62   C63   A    
C55   H27   S    
C49   C50   A    
C64   H35   S    
N2    Zn2   S    
C40   C45   S    
C59   C60   A    
C7    C8    A    
C10   C14   A    
C54   C55   A    
C58   H30   S    
C8    C9    A    
C4    C44   T    
C5    C45   S    
C3    C45   S    
C1    O1    A    
C35   C36   A    
C32   C34   A    
C2    C68   S    
C48   H21   S    
C7    H19   S    
C24   C47   S    
C31   C32   A    
C17   C18   A    
C14   H20   S    
C60   H31   S    
C42   H2    S    
C39   O8    A    
O7    Zn1   S    
C42   H15   S    
C70   C71   A    
C12   O3    A    
C22   C24   A    
C52   H25   S    
C23   O6    A    
O3    Zn1   S    
C69   C70   A    
C59   C64   A    
C11   C17   A    
C41   C45   S    
C13   C20   A    
C69   C74   A    
C1    O2    A    
C41   H14   S    
O8    Zn2   S    
C48   C49   A    
C53   C58   A    
C39   C44   S    
C3    H17   S    
C63   C64   A    
C29   C35   A    
C33   C38   A    
C30   C36   A    
C35   H11   S    
C26   N2    A    
C28   C30   A    
C2    C3    S    
C70   H36   S    
C29   C31   A    
C30   C32   A    
C11   C13   A    
C53   C54   A    
C47   C52   A    
C57   H29   S    
C55   C56   A    
C73   H39   S    
C21   H4    S    
C15   H3    S    
C60   C61   A    
C43   C46   S    
C27   N1    A    
C10   C11   A    
C47   C48   A    
C19   H5    S    
C7    C13   A    
C20   H6    S    
C50   C51   A    
O6    Zn2   S    
C72   H38   S    
C61   C62   A    
C9    C69   S    
O5    Zn1   S    
C14   C15   A    
C71   C72   A    
C43   H1    S    
C56   H28   S    
C15   C16   A    
C43   H16   S    
C25   C33   A    
C73   C74   A    
