data_mof_unit_54329.cif
_audit_creation_date              2012-12-11T15:43:01-0500
_audit_creation_method            fapswitch 2.2
_symmetry_space_group_name_H-M    P1
_symmetry_Int_Tables_number       1
_space_group_crystal_system       triclinic
_cell_length_a                    19.154861
_cell_length_b                    10.945663
_cell_length_c                    18.754409
_cell_angle_alpha                 90.000232
_cell_angle_beta                  90.61257
_cell_angle_gamma                 90.000208
_cell_volume                      3931.87442464

loop_
_atom_site_label
_atom_site_type_symbol
_atom_type_description
_atom_site_fract_x
_atom_site_fract_y
_atom_site_fract_z
_atom_type_partial_charge
C1    C     C_R   0.728213 0.374851 0.144929 0.553899
C2    C     C_R   0.271767 0.374895 0.855060 0.558965
C3    C     C_R   0.228233 0.874895 0.144940 0.558964
C4    C     C_R   0.771787 0.874851 0.855071 0.553900
C5    C     C_R   0.510964 0.387043 0.927128 -0.106308
C6    C     C_R   0.488952 0.387211 0.072849 -0.106837
C7    C     C_R   0.011049 0.887210 0.927151 -0.106840
C8    C     C_R   0.989038 0.887043 0.072873 -0.106305
C9    C     C_R   0.005294 0.999772 0.962443 0.013463
C10   C     C_R   0.994691 0.999697 0.037693 0.013737
C11   C     C_R   0.505311 0.499696 0.962308 0.013737
C12   C     C_R   0.494708 0.499772 0.037558 0.013463
C13   C     C_R   0.759060 0.911655 0.927795 0.016361
C14   C     C_R   0.241047 0.911889 0.072249 0.014668
C15   C     C_R   0.258954 0.411887 0.927752 0.014667
C16   C     C_R   0.740941 0.411658 0.072206 0.016361
C17   C     C_R   0.694597 0.899022 0.960213 0.008885
C18   C     C_R   0.305403 0.898456 0.039699 0.008745
C19   C     C_R   0.194597 0.398459 0.960301 0.008746
C20   C     C_R   0.805403 0.399018 0.039787 0.008885
C21   C     C_R   0.689279 0.906164 0.033864 0.042960
C22   C     C_R   0.310646 0.905509 0.966042 0.044809
C23   C     C_R   0.189354 0.405511 0.033957 0.044810
C24   C     C_R   0.810721 0.406161 0.966135 0.042959
C25   C     C_R   0.812873 0.940225 0.043920 -0.167268
C26   C     C_R   0.187183 0.941083 0.956208 -0.166706
C27   C     C_R   0.312818 0.441073 0.043794 -0.166707
C28   C     C_R   0.687128 0.440234 0.956081 -0.167266
C29   C     C_R   0.817843 0.937505 0.970795 -0.156770
C30   C     C_R   0.182333 0.938649 0.029346 -0.157489
C31   C     C_R   0.317669 0.438638 0.970656 -0.157489
C32   C     C_R   0.682158 0.437514 0.029206 -0.156769
C33   C     C_3   0.645062 0.795695 0.954785 -0.276839
C34   C     C_3   0.354657 0.794716 0.045068 -0.276619
C35   C     C_3   0.145339 0.294724 0.954930 -0.276621
C36   C     C_3   0.854935 0.295687 0.045214 -0.276837
C37   C     C_3   0.640562 0.800193 0.035036 -0.274286
C38   C     C_3   0.359067 0.799118 0.964798 -0.274862
C39   C     C_3   0.140930 0.299125 0.035200 -0.274861
C40   C     C_3   0.859435 0.300185 0.964962 -0.274287
C41   C     C_R   0.748808 0.922735 0.076534 0.013551
C42   C     C_R   0.251121 0.922714 0.923463 0.015171
C43   C     C_R   0.248879 0.422712 0.076537 0.015171
C44   C     C_R   0.751191 0.422738 0.923466 0.013552
C45   C     C_R   0.530693 0.155367 0.147074 0.548301
C46   C     C_R   0.469239 0.155339 0.852972 0.544224
C47   C     C_R   0.030761 0.655339 0.147028 0.544224
C48   C     C_R   0.969307 0.655367 0.852927 0.548297
C49   C     C_R   0.508302 0.154545 0.581382 0.004606
C50   C     C_R   0.544996 0.158438 0.436555 0.006872
C51   C     C_R   0.955012 0.658442 0.563447 0.006902
C52   C     C_R   0.991699 0.654544 0.418619 0.004570
C53   C     C_R   0.508509 0.046327 0.540541 0.038879
C54   C     C_R   0.519346 0.054315 0.468995 0.022213
C55   C     C_R   0.980661 0.554318 0.531008 0.022180
C56   C     C_R   0.991496 0.546328 0.459461 0.038857
C57   C     C_R   0.562144 0.257689 0.481045 -0.172968
C58   C     C_R   0.541390 0.258142 0.553060 -0.176361
C59   C     C_R   0.958611 0.758139 0.446941 -0.176374
C60   C     C_R   0.937861 0.757687 0.518957 -0.172949
C61   C     C_3   0.455431 0.944905 0.529179 -0.084677
C62   C     C_3   0.464599 0.963334 0.448777 -0.109779
C63   C     C_3   0.035418 0.463354 0.551226 -0.109780
C64   C     C_3   0.044581 0.444918 0.470824 -0.084652
C65   C     C_R   0.742942 0.952187 0.586794 0.018643
C66   C     C_R   0.224180 0.857823 0.434432 0.007182
C67   C     C_R   0.275824 0.357811 0.565563 0.007175
C68   C     C_R   0.757060 0.452187 0.413206 0.018641
C69   C     C_R   0.782981 0.044523 0.554707 0.038712
C70   C     C_R   0.183189 0.946024 0.467059 0.031234
C71   C     C_R   0.316820 0.445999 0.532935 0.031225
C72   C     C_R   0.717023 0.544526 0.445293 0.038711
C73   C     C_R   0.778754 0.062160 0.482044 0.024851
C74   C     C_R   0.191219 0.971790 0.537666 0.021085
C75   C     C_R   0.308781 0.471790 0.462334 0.021046
C76   C     C_R   0.721249 0.562162 0.517955 0.024849
C77   C     C_R   0.676990 0.936643 0.475186 -0.157344
C78   C     C_R   0.285479 0.826431 0.547190 -0.182837
C79   C     C_R   0.214516 0.326438 0.452808 -0.182844
C80   C     C_R   0.823012 0.436644 0.524814 -0.157339
C81   C     C_R   0.683203 0.913742 0.549089 -0.156674
C82   C     C_R   0.276452 0.798243 0.474763 -0.181547
C83   C     C_R   0.223540 0.298252 0.525236 -0.181512
C84   C     C_R   0.816798 0.413740 0.450911 -0.156672
C85   C     C_3   0.858666 0.080208 0.556125 -0.274325
C86   C     C_3   0.105621 0.955627 0.470016 -0.269854
C87   C     C_3   0.394388 0.455601 0.529969 -0.269862
C88   C     C_3   0.641339 0.580217 0.443874 -0.274326
C89   C     C_R   0.741011 0.968669 0.148001 0.555373
C90   C     C_R   0.258969 0.968633 0.851990 0.545838
C91   C     C_R   0.241031 0.468632 0.148010 0.545838
C92   C     C_R   0.758989 0.468670 0.851999 0.555373
C93   C     C_3   0.854896 0.085285 0.475194 -0.271149
C94   C     C_3   0.114276 0.983085 0.548692 -0.273882
C95   C     C_3   0.385721 0.483123 0.451302 -0.273868
C96   C     C_3   0.645108 0.585291 0.524806 -0.271147
C97   C     C_R   0.729766 0.001976 0.439311 0.007768
C98   C     C_R   0.241520 0.912757 0.579238 0.006794
C99   C     C_R   0.258479 0.412759 0.420761 0.006784
C100  C     C_R   0.770236 0.501979 0.560689 0.007765
C101  C     C_R   0.731171 0.384096 0.350437 0.533470
C102  C     C_R   0.288123 0.332460 0.640339 0.561342
C103  C     C_R   0.211876 0.832458 0.359660 0.561334
C104  C     C_R   0.768829 0.884096 0.649563 0.533471
C105  C     C_R   0.562697 0.152983 0.361296 0.542270
C106  C     C_R   0.469116 0.155674 0.647541 0.533796
C107  C     C_R   0.030883 0.655674 0.352459 0.533790
C108  C     C_R   0.937305 0.652983 0.638704 0.542247
C109  C     C_R   0.728124 0.021376 0.361628 0.553550
C110  C     C_R   0.257044 0.967736 0.647555 0.534446
C111  C     C_R   0.242956 0.467736 0.352444 0.534452
C112  C     C_R   0.771876 0.521378 0.638372 0.553552
C113  C     C_R   0.498162 0.162890 0.925478 0.005998
C114  C     C_R   0.501518 0.163001 0.074661 0.004153
C115  C     C_R   0.998480 0.663001 0.925340 0.004153
C116  C     C_R   0.001837 0.662890 0.074523 0.005997
C117  C     C_R   0.502335 0.275312 0.962664 0.002791
C118  C     C_R   0.497464 0.275384 0.037401 0.002212
C119  C     C_R   0.002537 0.775384 0.962600 0.002210
C120  C     C_R   0.997666 0.775312 0.037337 0.002793
C121  C     C_R   0.499160 0.053264 0.036610 -0.142550
C122  C     C_R   0.500143 0.053194 0.963611 -0.141770
C123  C     C_R   0.999854 0.553195 0.036390 -0.141771
C124  C     C_R   0.000836 0.553264 0.963391 -0.142548
Cr1   Cr    Cr6+3 0.772010 0.169670 0.250090 0.990249
Cr2   Cr    Cr6+3 0.227990 0.169670 0.749910 0.993669
Cr3   Cr    Cr6+3 0.272010 0.669670 0.250090 0.993667
Cr4   Cr    Cr6+3 0.727990 0.669670 0.749910 0.990252
Cr5   Cr    Cr6+3 0.615000 0.323260 0.249260 0.982978
Cr6   Cr    Cr6+3 0.385000 0.323260 0.750740 0.985887
Cr7   Cr    Cr6+3 0.115000 0.823260 0.249260 0.985885
Cr8   Cr    Cr6+3 0.885000 0.823260 0.750740 0.982978
Cr9   Cr    Cr6+3 0.616710 0.010760 0.250840 0.993631
Cr10  Cr    Cr6+3 0.383290 0.010760 0.749160 0.979765
Cr11  Cr    Cr6+3 0.116710 0.510760 0.250840 0.979770
Cr12  Cr    Cr6+3 0.883290 0.510760 0.749160 0.993634
H1    H     H_    0.500091 0.965775 0.063318 0.124658
H2    H     H_    0.498965 0.965648 0.936975 0.124874
H3    H     H_    0.001029 0.465649 0.063026 0.124872
H4    H     H_    0.999903 0.465774 0.936682 0.124661
H5    H     H_    0.588967 0.334761 0.459691 0.129468
H6    H     H_    0.547547 0.339907 0.584906 0.122166
H7    H     H_    0.952448 0.839896 0.415092 0.122171
H8    H     H_    0.911034 0.834750 0.540309 0.129468
H9    H     H_    0.012261 0.383929 0.579550 0.129240
H10   H     H_    0.096868 0.467207 0.449960 0.173869
H11   H     H_    0.403140 0.967184 0.550037 0.173841
H12   H     H_    0.487765 0.883909 0.420461 0.129224
H13   H     H_    0.633329 0.897788 0.446012 0.126897
H14   H     H_    0.326490 0.782121 0.577685 0.130547
H15   H     H_    0.173501 0.282138 0.422313 0.130547
H16   H     H_    0.866673 0.397790 0.553989 0.126902
H17   H     H_    0.644320 0.860380 0.575888 0.118136
H18   H     H_    0.310133 0.731384 0.450388 0.140710
H19   H     H_    0.189851 0.231405 0.549613 0.140717
H20   H     H_    0.855682 0.360374 0.424114 0.118138
H21   H     H_    0.895764 0.012541 0.577680 0.152045
H22   H     H_    0.080182 0.866858 0.459016 0.147365
H23   H     H_    0.419824 0.366821 0.540935 0.147371
H24   H     H_    0.604239 0.512556 0.422318 0.152043
H25   H     H_    0.865924 0.172051 0.580403 0.132581
H26   H     H_    0.085259 0.034075 0.438470 0.137455
H27   H     H_    0.414760 0.534021 0.561532 0.137469
H28   H     H_    0.634083 0.672061 0.419599 0.132582
H29   H     H_    0.867117 0.175101 0.452855 0.132963
H30   H     H_    0.098383 0.077561 0.562880 0.128992
H31   H     H_    0.401600 0.577615 0.437142 0.128976
H32   H     H_    0.632889 0.675106 0.547148 0.132962
H33   H     H_    0.882265 0.008076 0.449273 0.140834
H34   H     H_    0.093112 0.910522 0.583879 0.145063
H35   H     H_    0.406888 0.410609 0.416087 0.145029
H36   H     H_    0.617737 0.508082 0.550726 0.140834
H37   H     H_    0.525128 0.387362 0.871502 0.133045
H38   H     H_    0.474889 0.387690 0.128505 0.133326
H39   H     H_    0.025113 0.887689 0.871496 0.133326
H40   H     H_    0.974874 0.887363 0.128499 0.133044
H41   H     H_    0.858757 0.959275 0.075423 0.136011
H42   H     H_    0.141310 0.960746 0.924813 0.136133
H43   H     H_    0.358691 0.460732 0.075190 0.136131
H44   H     H_    0.641244 0.459288 0.924579 0.136013
H45   H     H_    0.869205 0.946196 0.948719 0.165788
H46   H     H_    0.131054 0.948260 0.051499 0.165586
H47   H     H_    0.368949 0.448243 0.948503 0.165587
H48   H     H_    0.630797 0.446212 0.051283 0.165787
H49   H     H_    0.170047 0.209525 0.935268 0.174691
H50   H     H_    0.830399 0.210274 0.064802 0.174346
H51   H     H_    0.669595 0.710280 0.935196 0.174343
H52   H     H_    0.329947 0.709519 0.064730 0.174694
H53   H     H_    0.596830 0.825057 0.926508 0.121458
H54   H     H_    0.402980 0.823781 0.073271 0.121794
H55   H     H_    0.097017 0.323792 0.926727 0.121796
H56   H     H_    0.903167 0.325046 0.073490 0.121457
H57   H     H_    0.588535 0.826629 0.054716 0.135865
H58   H     H_    0.411142 0.825113 0.945050 0.135935
H59   H     H_    0.088855 0.325124 0.054948 0.135936
H60   H     H_    0.911462 0.326617 0.945282 0.135864
H61   H     H_    0.664603 0.719297 0.061280 0.138144
H62   H     H_    0.334800 0.718388 0.938578 0.137548
H63   H     H_    0.165193 0.218393 0.061419 0.137548
H64   H     H_    0.835390 0.219292 0.938718 0.138145
O1    O     O_R   0.787520 0.042810 0.170440 -0.534260
O2    O     O_R   0.212480 0.042810 0.829560 -0.537979
O3    O     O_R   0.287520 0.542810 0.170440 -0.537978
O4    O     O_R   0.712480 0.542810 0.829560 -0.534260
O5    O     O_R   0.556610 0.252880 0.323980 -0.506166
O6    O     O_R   0.443390 0.252880 0.676020 -0.523006
O7    O     O_R   0.056610 0.752880 0.323980 -0.523012
O8    O     O_R   0.943390 0.752880 0.676020 -0.506166
O9    O     O_R   0.545950 0.051210 0.330860 -0.538570
O10   O     O_R   0.454050 0.051210 0.669140 -0.531297
O11   O     O_R   0.045950 0.551210 0.330860 -0.531296
O12   O     O_R   0.954050 0.551210 0.669140 -0.538583
O13   O     O_R   0.681390 0.959480 0.325510 -0.517659
O14   O     O_R   0.318610 0.959480 0.674490 -0.522882
O15   O     O_R   0.181390 0.459480 0.325510 -0.522872
O16   O     O_R   0.818610 0.459480 0.674490 -0.517655
O17   O     O_3   0.667900 0.167900 0.250060 -0.274389
O18   O     O_3   0.332100 0.167900 0.749940 -0.256853
O19   O     O_3   0.167900 0.667900 0.250060 -0.256854
O20   O     O_3   0.832100 0.667900 0.749940 -0.274389
O21   O     O_R   0.765640 0.292100 0.175020 -0.500691
O22   O     O_R   0.234360 0.292100 0.824980 -0.496677
O23   O     O_R   0.265640 0.792100 0.175020 -0.496679
O24   O     O_R   0.734360 0.792100 0.824980 -0.500691
O25   O     O_R   0.670190 0.408840 0.168540 -0.535361
O26   O     O_R   0.329810 0.408840 0.831460 -0.533963
O27   O     O_R   0.170190 0.908840 0.168540 -0.533960
O28   O     O_R   0.829810 0.908840 0.831460 -0.535363
O29   O     O_R   0.556620 0.251410 0.175160 -0.503926
O30   O     O_R   0.443380 0.251410 0.824840 -0.507996
O31   O     O_R   0.056620 0.751410 0.175160 -0.507994
O32   O     O_R   0.943380 0.751410 0.824840 -0.503927
O33   O     O_R   0.545960 0.049620 0.170320 -0.521485
O34   O     O_R   0.454040 0.049620 0.829680 -0.524156
O35   O     O_R   0.045960 0.549620 0.170320 -0.524156
O36   O     O_R   0.954040 0.549620 0.829680 -0.521482
O37   O     O_R   0.681390 0.958010 0.176690 -0.490714
O38   O     O_R   0.318610 0.958010 0.823310 -0.495432
O39   O     O_R   0.181390 0.458010 0.176690 -0.495432
O40   O     O_R   0.818610 0.458010 0.823310 -0.490714
O41   O     O_R   0.787510 0.044390 0.330970 -0.511512
O42   O     O_R   0.212490 0.044390 0.669030 -0.524705
O43   O     O_R   0.287510 0.544390 0.330970 -0.524707
O44   O     O_R   0.712490 0.544390 0.669030 -0.511510
O45   O     O_R   0.765630 0.293570 0.323840 -0.518786
O46   O     O_R   0.234370 0.293570 0.676160 -0.511788
O47   O     O_R   0.265630 0.793570 0.323840 -0.511784
O48   O     O_R   0.734370 0.793570 0.676160 -0.518785
O49   O     O_R   0.670190 0.410420 0.329080 -0.532582
O50   O     O_R   0.329810 0.410420 0.670920 -0.515355
O51   O     O_R   0.170190 0.910420 0.329080 -0.515364
O52   O     O_R   0.829810 0.910420 0.670920 -0.532583
C125  C     C_3   0.481496 0.816545 0.551322 -0.298351
C126  C     C_3   0.486394 0.797403 0.631686 -0.407039
H65   H     H_    0.526986 0.857956 0.655260 0.174701
H66   H     H_    0.435177 0.814684 0.656841 0.179921
H67   H     H_    0.501627 0.701332 0.642849 0.110286
H68   H     H_    0.444858 0.747739 0.528734 0.129015
H69   H     H_    0.533472 0.798154 0.528084 0.132613
C127  C     C_3   0.400675 0.015857 0.407607 -0.271386
C128  C     C_3   0.363366 0.124080 0.442347 -0.421502
H70   H     H_    0.334273 0.095326 0.490280 0.148817
H71   H     H_    0.400783 0.197219 0.456858 0.158068
H72   H     H_    0.324876 0.162330 0.403747 0.153631
H73   H     H_    0.417401 0.044596 0.353725 0.186027
H74   H     H_    0.362524 0.941323 0.399086 0.165227
C129  C     C_3   0.099333 0.515921 0.592395 -0.271404
C130  C     C_3   0.136691 0.624031 0.557591 -0.421635
H75   H     H_    0.165921 0.595074 0.509796 0.148892
H76   H     H_    0.099293 0.697048 0.542851 0.158064
H77   H     H_    0.175060 0.662511 0.596229 0.153627
H78   H     H_    0.082580 0.544804 0.646241 0.186049
H79   H     H_    0.137462 0.441377 0.601001 0.165245
C131  C     C_3   0.018514 0.316553 0.448686 -0.298334
C132  C     C_3   0.013563 0.297432 0.368323 -0.407031
H80   H     H_    0.972971 0.358019 0.344779 0.174704
H81   H     H_    0.064770 0.314681 0.343137 0.179905
H82   H     H_    0.998300 0.201374 0.357161 0.110289
H83   H     H_    0.055171 0.247750 0.471245 0.129007
H84   H     H_    0.966553 0.298141 0.471957 0.132606
C133  C     C_3   0.012054 0.113316 0.916346 -0.293571
C134  C     C_3   0.959709 0.116826 0.854097 -0.421252
H85   H     H_    0.972584 0.047457 0.813149 0.151274
H86   H     H_    0.906066 0.100416 0.872796 0.168066
H87   H     H_    0.961416 0.208046 0.828213 0.130156
H88   H     H_    0.005798 0.198440 0.946226 0.130615
H89   H     H_    0.064954 0.114760 0.893128 0.143715
C135  C     C_3   0.987617 0.113156 0.083853 -0.292592
C136  C     C_3   0.039677 0.116873 0.146368 -0.423088
H90   H     H_    0.026905 0.047096 0.187113 0.150211
H91   H     H_    0.093482 0.101311 0.127884 0.167901
H92   H     H_    0.037473 0.207881 0.172475 0.126477
H93   H     H_    0.993895 0.198358 0.054053 0.130722
H94   H     H_    0.934613 0.114357 0.106825 0.143795
C137  C     C_3   0.512382 0.613155 0.916148 -0.292593
C138  C     C_3   0.460319 0.616869 0.853635 -0.423086
H95   H     H_    0.473090 0.547090 0.812889 0.150214
H96   H     H_    0.406516 0.601306 0.872122 0.167904
H97   H     H_    0.462522 0.707877 0.827527 0.126477
H98   H     H_    0.506106 0.698357 0.945948 0.130723
H99   H     H_    0.565385 0.614357 0.893173 0.143792
C139  C     C_3   0.487946 0.613317 0.083655 -0.293569
C140  C     C_3   0.540288 0.616830 0.145906 -0.421253
H100  H     H_    0.527412 0.547462 0.186854 0.151269
H101  H     H_    0.593933 0.600421 0.127208 0.168063
H102  H     H_    0.538580 0.708050 0.171789 0.130156
H103  H     H_    0.494202 0.698440 0.053774 0.130615
H104  H     H_    0.435045 0.614760 0.106870 0.143717

loop_
_geom_bond_atom_site_label_1
_geom_bond_atom_site_label_2
_ccdc_geom_bond_type
Cr10  O10   S    
Cr2   O46   S    
C102  O46   A    
C73   C93   S    
Cr4   O24   S    
C75   C95   S    
C140  H101  S    
Cr2   O2    S    
C134  H85   S    
C45   O29   A    
C79   C99   A    
C111  O15   A    
C22   C38   S    
C139  H104  S    
C23   C43   A    
C33   H53   S    
C131  C132  S    
C126  H66   S    
Cr1   O45   S    
C125  H68   S    
C113  C122  A    
C70   C74   A    
C111  O43   A    
C96   H32   S    
C135  H94   S    
C107  O7    A    
C44   C92   S    
C26   H42   S    
C59   C60   A    
C30   H46   S    
C47   O35   A    
C25   C29   A    
C47   C116  S    
Cr5   O49   S    
C90   O38   A    
C27   C31   A    
C7    C119  A    
C28   C32   A    
C68   C101  S    
C25   C41   A    
C6    H38   S    
C39   H59   S    
C28   C44   A    
C103  O47   A    
C37   H57   S    
C19   C23   A    
C66   C82   A    
C129  H78   S    
C110  O42   A    
C140  H100  S    
C68   C72   A    
C93   H33   S    
C125  H69   S    
C28   H44   S    
C138  H95   S    
C130  H76   S    
Cr12  O40   S    
Cr4   O44   S    
C127  H74   S    
C2    O26   A    
C133  H88   S    
C129  H79   S    
C61   C125  S    
C64   H10   S    
C50   C57   A    
C66   C103  S    
C45   O33   A    
C106  O6    A    
C49   C106  S    
C76   C100  A    
C103  O51   A    
C19   C35   S    
C76   C96   S    
C84   H20   S    
C66   C70   A    
C49   C53   A    
C102  O50   A    
C51   C55   A    
C88   H24   S    
Cr9   O17   S    
C112  O44   A    
Cr6   O26   S    
C8    C10   A    
C5    C117  A    
C42   C90   S    
C94   H34   S    
Cr2   O18   S    
C90   O2    A    
C106  O10   A    
C41   C89   S    
C67   C83   A    
C104  O52   A    
C116  C123  A    
Cr9   O9    S    
C108  O8    A    
Cr7   O7    S    
C123  C124  A    
C74   C98   A    
C53   C54   A    
C11   C137  S    
C46   O34   A    
C1    O21   A    
C110  O14   A    
C128  H70   S    
C83   H19   S    
C123  H3    S    
C81   H17   S    
C121  H1    S    
Cr6   O18   S    
Cr12  O12   S    
C53   C61   S    
C45   C114  S    
C138  H97   S    
C87   H23   S    
C87   C95   S    
Cr2   O42   S    
C50   C105  S    
C38   H62   S    
C77   C97   A    
C9    C10   A    
Cr4   O20   S    
C59   H7    S    
C62   H12   S    
Cr9   O37   S    
C108  O12   A    
Cr7   O51   S    
C18   C34   S    
C131  H83   S    
C10   C135  S    
C34   H54   S    
C132  H82   S    
Cr3   O43   S    
C126  H67   S    
C88   H28   S    
C116  C120  A    
Cr8   O20   S    
Cr6   O6    S    
Cr7   O27   S    
C97   C109  S    
C99   C111  S    
C75   C99   A    
C136  H90   S    
Cr10  O34   S    
C78   H14   S    
C48   O36   A    
C113  C117  A    
C26   C30   A    
C115  C119  A    
C69   C85   S    
C26   C42   A    
Cr7   O31   S    
C39   H63   S    
C92   O40   A    
C35   H55   S    
C46   C113  S    
C36   H56   S    
C5    H37   S    
C101  O49   A    
C127  C128  S    
C95   H31   S    
C128  H72   S    
C129  C130  S    
C8    H40   S    
C15   C31   A    
Cr1   O21   S    
C16   C32   A    
C134  H86   S    
C13   C17   A    
C117  C118  A    
C57   C58   A    
C95   H35   S    
Cr12  O36   S    
C112  O16   A    
C61   C62   S    
C63   C64   S    
C134  H87   S    
Cr5   O25   S    
C51   C60   A    
C63   H9    S    
Cr11  O11   S    
C55   C56   A    
C88   C96   S    
C98   C110  S    
C85   H25   S    
C74   C94   S    
C89   O1    A    
C132  H80   S    
C80   C84   A    
C101  O45   A    
C94   H30   S    
Cr3   O19   S    
C15   C19   A    
Cr1   O1    S    
C50   C54   A    
C85   H21   S    
C13   C29   A    
C27   H43   S    
C5    C11   A    
Cr8   O28   S    
C6    C12   A    
C25   H41   S    
C107  O11   A    
Cr6   O30   S    
C2    O22   A    
C136  H92   S    
C105  O9    A    
C80   H16   S    
Cr4   O4    S    
Cr5   O17   S    
C114  C121  A    
C52   C107  S    
C104  O48   A    
C3    O23   A    
C69   C73   A    
C92   O4    A    
C137  H99   S    
C138  H96   S    
C18   C22   A    
C46   O30   A    
C17   C33   S    
C140  H102  S    
C68   C84   A    
C89   O37   A    
C122  H2    S    
C77   H13   S    
C137  C138  S    
C40   H64   S    
C64   C131  S    
Cr10  O18   S    
C139  H103  S    
C33   C37   S    
C38   H58   S    
C35   C39   S    
C126  H65   S    
Cr5   O5    S    
C58   H6    S    
C65   C81   A    
C109  O41   A    
C1    C16   S    
Cr9   O33   S    
C135  H93   S    
C2    C15   S    
C121  C122  A    
C3    C14   S    
C71   C87   S    
C100  C112  S    
C24   C44   A    
Cr11  O35   S    
Cr3   O47   S    
C3    O27   A    
C1    O25   A    
C115  C124  A    
C124  H4    S    
C119  C120  A    
C105  O5    A    
C137  H98   S    
Cr12  O20   S    
C54   C62   S    
Cr10  O14   S    
C57   H5    S    
C61   H11   S    
C60   H8    S    
C79   C83   A    
C125  C126  S    
C65   C69   A    
C67   C71   A    
C4    O28   A    
C17   C21   A    
Cr10  O38   S    
C20   C36   S    
C27   C43   A    
C21   C37   S    
C130  H75   S    
C77   C81   A    
C127  H73   S    
Cr3   O3    S    
C91   O3    A    
Cr1   O17   S    
C133  H89   S    
C87   H27   S    
C14   C18   A    
C72   C76   A    
C73   C97   A    
C29   H45   S    
C131  H84   S    
C132  H81   S    
C109  O13   A    
C47   O31   A    
Cr5   O29   S    
Cr7   O19   S    
C4    C13   S    
C78   C82   A    
C86   C94   S    
C24   C40   S    
Cr11  O15   S    
C20   C24   A    
C51   C108  S    
C7    H39   S    
C78   C98   A    
Cr1   O41   S    
C86   H26   S    
C37   H61   S    
C16   C20   A    
C93   H29   S    
C80   C100  A    
C85   C93   S    
C14   C30   A    
Cr8   O32   S    
C72   C88   S    
Cr6   O50   S    
Cr4   O48   S    
C36   C40   S    
C128  H71   S    
C133  C134  S    
C4    O24   A    
C43   C91   S    
C49   C58   A    
C55   C63   S    
C82   H18   S    
C52   C59   A    
C130  H77   S    
C35   H49   S    
Cr11  O19   S    
C56   C64   S    
C9    C133  S    
C33   H51   S    
C34   H52   S    
C86   H22   S    
C114  C118  A    
C48   C115  S    
Cr8   O8    S    
C21   C41   A    
C70   C86   S    
C62   C127  S    
Cr8   O52   S    
C79   H15   S    
C40   H60   S    
C7    C9    A    
C8    C120  A    
C139  C140  S    
C31   H47   S    
C34   C38   S    
C32   H48   S    
C11   C12   A    
Cr2   O22   S    
Cr3   O23   S    
Cr9   O13   S    
C135  C136  S    
C71   C75   A    
C22   C42   A    
C23   C39   S    
C136  H91   S    
Cr11  O39   S    
C36   H50   S    
C48   O32   A    
C12   C139  S    
C96   H36   S    
C91   O39   A    
C65   C104  S    
C63   C129  S    
C6    C118  A    
C52   C56   A    
C67   C102  S    
Cr12  O16   S    
