data_mof_unit_52826.cif
_audit_creation_date              2012-12-10T18:52:58-0500
_audit_creation_method            fapswitch 2.2
_symmetry_space_group_name_H-M    P1
_symmetry_Int_Tables_number       1
_space_group_crystal_system       triclinic
_cell_length_a                    9.830349
_cell_length_b                    10.64988
_cell_length_c                    16.669496
_cell_angle_alpha                 89.396057
_cell_angle_beta                  83.898885
_cell_angle_gamma                 90.363583
_cell_volume                      1735.13335319

loop_
_atom_site_label
_atom_site_type_symbol
_atom_type_description
_atom_site_fract_x
_atom_site_fract_y
_atom_site_fract_z
_atom_type_partial_charge
C1    C     C_R   0.500452 0.739753 0.499868 1.040193
C2    C     C_R   0.499571 0.260257 0.500350 1.040663
C3    C     C_R   0.571542 0.937114 0.435010 0.310785
C4    C     C_R   0.429589 0.062992 0.565805 0.308873
C5    C     C_R   0.570988 0.066738 0.434991 0.323967
C6    C     C_R   0.430472 0.933272 0.565886 0.308531
C7    C     C_R   0.499289 0.127957 0.500192 -0.343559
C8    C     C_R   0.501082 0.872095 0.500305 -0.362672
C9    C     C_R   0.933199 0.402480 0.467549 -0.021787
C10   C     C_R   0.066688 0.597285 0.532808 0.000092
C11   C     C_R   0.076938 0.402215 0.467997 0.016239
C12   C     C_R   0.922767 0.597208 0.532840 0.026205
C13   C     C_R   0.479027 0.499538 0.654233 0.985309
C14   C     C_R   0.520726 0.492817 0.346477 1.000709
C15   C     C_R   0.462381 0.483237 0.742580 -0.238080
C16   C     C_R   0.538907 0.450692 0.262648 -0.231627
C17   C     C_R   0.573098 0.511873 0.786785 0.367237
C18   C     C_R   0.453833 0.353811 0.238271 0.370074
C19   C     C_R   0.570293 0.471962 0.866157 -0.171008
C20   C     C_R   0.475150 0.307880 0.160641 -0.135691
C21   C     C_R   0.458248 0.404463 0.903860 -0.000237
C22   C     C_R   0.579747 0.356636 0.105873 -0.005125
C23   C     C_R   0.341196 0.386814 0.863726 -0.076612
C24   C     C_R   0.672535 0.445406 0.130831 -0.068225
C25   C     C_R   0.341822 0.427166 0.783248 0.361525
C26   C     C_R   0.652167 0.492916 0.209356 0.328138
C27   C     C_2   0.458336 0.366881 0.988705 -0.158382
C28   C     C_2   0.573594 0.335348 0.019858 -0.146525
H1    H     H_    0.668350 0.322799 0.980999 0.177715
H2    H     H_    0.364674 0.381678 0.028282 0.168191
H3    H     H_    0.405856 0.237268 0.141519 0.198636
H4    H     H_    0.655867 0.496348 0.899017 0.189142
H5    H     H_    0.882986 0.324566 0.441445 0.181195
H6    H     H_    0.116858 0.674929 0.559228 0.179911
H7    H     H_    0.135045 0.323483 0.443030 0.194379
H8    H     H_    0.864055 0.674809 0.559254 0.173181
N1    N     N_R   0.142790 0.500030 0.500020 -0.096985
N2    N     N_R   0.857210 0.499970 0.499980 -0.098354
O1    O     O_R   0.385380 0.683250 0.500010 -0.613477
O2    O     O_R   0.614620 0.316750 0.499990 -0.621440
O3    O     O_R   0.614710 0.683220 0.500000 -0.598076
O4    O     O_R   0.385290 0.316780 0.500000 -0.581411
O5    O     O_R   0.371780 0.500040 0.615800 -0.553734
O6    O     O_R   0.628220 0.499960 0.384200 -0.561484
O7    O     O_R   0.601110 0.500010 0.615800 -0.586184
O8    O     O_R   0.398890 0.499990 0.384200 -0.591537
Zn1   Zn    Zn3+2 0.346870 0.500020 0.500000 1.075139
Zn2   Zn    Zn3+2 0.653130 0.499980 0.500000 1.067098
Cl1   Cl    Cl    0.716471 0.602486 0.747370 -0.518578
Cl2   Cl    Cl    0.322228 0.281225 0.302960 -0.569902
Cl3   Cl    Cl    0.766849 0.608531 0.238560 -0.465150
Cl4   Cl    Cl    0.189358 0.405312 0.736414 -0.464812
C29   C     C_1   0.221093 0.324802 0.904502 0.331958
N3    N     N_1   0.125215 0.275359 0.937095 -0.129753
C30   C     C_1   0.783605 0.493557 0.074565 0.295413
N4    N     N_1   0.872286 0.531902 0.029560 -0.127747
Cl5   Cl    Cl    0.656154 0.856959 0.352008 -0.423328
Cl6   Cl    Cl    0.346854 0.143369 0.649392 -0.467599
Cl7   Cl    Cl    0.656985 0.151724 0.352466 -0.505655
Cl8   Cl    Cl    0.347882 0.847892 0.649293 -0.485760

loop_
_geom_bond_atom_site_label_1
_geom_bond_atom_site_label_2
_ccdc_geom_bond_type
C1    O3    A    
C9    H5    S    
C30   N4    T    
C15   C17   A    
C2    O2    A    
N1    Zn1   S    
C1    C8    S    
N2    Zn2   S    
C2    C7    S    
C13   C15   S    
C14   O8    A    
C3    C5    A    
C11   H7    S    
C21   C27   S    
C25   Cl4   S    
C10   H6    S    
C16   C18   A    
C22   C28   S    
C26   Cl3   S    
C24   C30   S    
C13   O7    A    
C9    C11   A    
C10   C12   A    
C2    O4    A    
C10   N1    A    
C6    C8    A    
C19   H4    S    
C3    Cl5   S    
C22   C24   A    
C14   O6    A    
C28   H1    S    
C19   C21   A    
O3    Zn2   S    
C24   C26   A    
C23   C29   S    
C18   C20   A    
O4    Zn1   S    
C21   C23   A    
C16   C26   A    
C14   C16   S    
C15   C25   A    
C4    C6    A    
C12   H8    S    
C5    Cl7   S    
C17   Cl1   S    
C12   N2    A    
C6    Cl8   S    
C13   O5    A    
C23   C25   A    
C18   Cl2   S    
C5    C7    A    
C3    C8    A    
O7    Zn2   S    
C4    Cl6   S    
C27   C28   D    
C11   N1    A    
C1    O1    A    
O8    Zn1   S    
C17   C19   A    
C9    N2    A    
C4    C7    A    
C29   N3    T    
O1    Zn1   S    
O5    Zn1   S    
O2    Zn2   S    
O6    Zn2   S    
C20   C22   A    
C27   H2    S    
C20   H3    S    
