data_mof_unit_6139.cif
_audit_creation_date              2012-12-10T17:49:42-0500
_audit_creation_method            fapswitch 2.2
_symmetry_space_group_name_H-M    P1
_symmetry_Int_Tables_number       1
_space_group_crystal_system       triclinic
_cell_length_a                    10.549738
_cell_length_b                    10.694406
_cell_length_c                    9.980408
_cell_angle_alpha                 91.57891
_cell_angle_beta                  90.179773
_cell_angle_gamma                 93.254554
_cell_volume                      1123.7659865

loop_
_atom_site_label
_atom_site_type_symbol
_atom_type_description
_atom_site_fract_x
_atom_site_fract_y
_atom_site_fract_z
_atom_type_partial_charge
C1    C     C_R   0.499352 0.260879 0.498179 0.899686
C2    C     C_R   0.621645 0.079934 0.546677 0.058357
C3    C     C_R   0.512094 0.129877 0.494713 -0.118254
C4    C     C_R   0.257959 0.501375 0.499171 0.968928
C5    C     C_R   0.409266 0.055726 0.447310 -0.224272
C6    C     C_R   0.411179 0.928123 0.452896 0.368152
C7    C     C_R   0.517379 0.873759 0.507822 -0.197968
C8    C     C_R   0.371655 0.307656 0.140168 -0.151666
C9    C     C_R   0.340358 0.193156 0.078089 -0.255743
C10   C     C_R   0.351206 0.181184 0.940880 -0.185949
C11   C     C_R   0.378789 0.287717 0.865702 0.419072
C12   C     C_3   0.963872 0.609152 0.452966 0.141768
C13   C     C_R   0.439324 0.399154 0.927087 0.069692
C14   C     C_R   0.438000 0.403077 0.071322 0.124953
C15   C     C_R   0.557689 0.594412 0.074142 -0.091783
C16   C     C_R   0.512539 0.739761 0.502315 0.995790
C17   C     C_R   0.556186 0.595169 0.931803 -0.075185
C18   C     C_R   0.741989 0.500038 0.500089 0.912100
C19   C     C_3   0.037197 0.391394 0.543241 -0.253339
C20   C     C_3   0.951345 0.405502 0.418139 -0.335508
C21   C     C_3   0.876497 0.500695 0.499902 -0.027101
C22   C     C_3   0.961554 0.487335 0.621858 0.164207
C23   C     C_3   0.039222 0.515912 0.373226 0.126478
C24   C     C_3   0.048833 0.598723 0.577653 -0.125950
C25   C     C_3   0.123340 0.502630 0.496432 -0.047364
C26   C     C_R   0.727823 0.159522 0.585829 -0.166104
C27   C     C_R   0.834254 0.112236 0.642146 -0.224757
C28   C     C_R   0.837533 0.985423 0.661121 -0.110499
C29   C     C_R   0.734847 0.903802 0.623147 0.368582
C30   C     C_R   0.624557 0.949000 0.559810 -0.050133
Cl1   Cl    Cl    0.753546 0.752523 0.675395 -0.680305
Cl2   Cl    Cl    0.274378 0.839391 0.395065 -0.666796
Cl3   Cl    Cl    0.270575 0.283699 0.733580 -0.692329
H1    H     H_    0.909011 0.328243 0.352909 0.175830
H2    H     H_    0.325854 0.097736 0.408591 0.168596
H3    H     H_    0.729899 0.259199 0.573051 0.135895
H4    H     H_    0.913446 0.174208 0.674493 0.163988
H5    H     H_    0.997343 0.463255 0.819041 0.202258
H6    H     H_    0.864207 0.386555 0.761938 0.183493
H7    H     H_    0.999294 0.779213 0.370793 0.245960
H8    H     H_    0.864667 0.702965 0.316750 0.180725
H9    H     H_    0.004599 0.544500 0.176627 0.181117
H10   H     H_    0.123451 0.451099 0.204418 0.194810
H11   H     H_    0.920386 0.950575 0.708969 0.181758
H12   H     H_    0.605526 0.671793 0.129474 0.150623
H13   H     H_    0.340456 0.320688 0.240989 0.202673
H14   H     H_    0.297887 0.116827 0.134779 0.189722
H15   H     H_    0.312559 0.095030 0.892870 0.193548
H16   H     H_    0.601371 0.673841 0.882042 0.199946
H17   H     H_    0.068083 0.300338 0.576599 0.208684
H18   H     H_    0.090415 0.676835 0.642231 0.173149
N1    N     N_R   0.498800 0.498800 0.142780 -0.113009
N2    N     N_R   0.498760 0.498720 0.857170 -0.110361
N3    N     N_3   0.917271 0.471870 0.758838 -0.393144
N4    N     N_3   0.919701 0.725537 0.402170 -0.420024
N5    N     N_3   0.084263 0.534157 0.236926 -0.397795
O1    O     O_R   0.500000 0.316780 0.614690 -0.587592
O2    O     O_R   0.499990 0.316750 0.385360 -0.653893
O3    O     O_R   0.313960 0.499980 0.614650 -0.566585
O4    O     O_R   0.313940 0.499960 0.385310 -0.625886
O5    O     O_R   0.500010 0.683250 0.614640 -0.583730
O6    O     O_R   0.500000 0.683220 0.385310 -0.591937
O7    O     O_R   0.686060 0.500040 0.614690 -0.574450
O8    O     O_R   0.686040 0.500020 0.385350 -0.642125
Zn1   Zn    Zn3+2 0.500010 0.500020 0.653130 1.023110
Zn2   Zn    Zn3+2 0.499990 0.499980 0.346870 0.967886

loop_
_geom_bond_atom_site_label_1
_geom_bond_atom_site_label_2
_ccdc_geom_bond_type
C2    C26   A    
C6    Cl2   S    
O7    Zn1   S    
C14   N1    A    
C6    C7    A    
C1    O1    A    
C18   C21   S    
N2    Zn1   S    
C9    C10   A    
C12   C24   S    
C19   C20   S    
H5    N3    S    
C20   C23   S    
C2    C30   A    
H7    N4    S    
C20   H1    S    
C4    O4    A    
C24   H18   S    
C15   N1    A    
C2    C3    A    
C17   N2    A    
O4    Zn2   S    
C23   N5    S    
C29   Cl1   S    
C7    C30   A    
C21   C22   S    
O3    Zn1   S    
C11   C13   A    
C19   H17   S    
C18   O8    A    
C26   C27   A    
C29   C30   A    
C16   O6    A    
C27   H4    S    
C5    H2    S    
C4    O3    A    
C26   H3    S    
C28   C29   A    
C28   H11   S    
C9    H14   S    
C13   N2    A    
C23   C25   S    
C10   H15   S    
C5    C6    A    
C19   C25   S    
C22   C24   S    
C18   O7    A    
H6    N3    S    
C16   O5    A    
C15   H12   S    
C4    C25   S    
C13   C14   A    
C12   N4    S    
O5    Zn1   S    
H10   N5    S    
C11   Cl3   S    
C19   C22   S    
N1    Zn2   S    
C24   C25   S    
C22   N3    S    
C10   C11   A    
C17   H16   S    
C27   C28   A    
C15   C17   A    
C3    C5    A    
O6    Zn2   S    
H8    N4    S    
C12   C23   S    
C8    C14   A    
C8    H13   S    
H9    N5    S    
C20   C21   S    
C1    O2    A    
C12   C21   S    
O2    Zn2   S    
C7    C16   S    
O1    Zn1   S    
C8    C9    A    
C1    C3    S    
O8    Zn2   S    
