data_mof_unit_63940.cif
_audit_creation_date              2012-12-10T18:00:54-0500
_audit_creation_method            fapswitch 2.2
_symmetry_space_group_name_H-M    P1
_symmetry_Int_Tables_number       1
_space_group_crystal_system       triclinic
_cell_length_a                    30.645015
_cell_length_b                    30.779305
_cell_length_c                    24.847584
_cell_angle_alpha                 89.904898
_cell_angle_beta                  128.526784
_cell_angle_gamma                 89.98599
_cell_volume                      18335.1488744

loop_
_atom_site_label
_atom_site_type_symbol
_atom_type_description
_atom_site_fract_x
_atom_site_fract_y
_atom_site_fract_z
_atom_type_partial_charge
C1    C     C_R   0.809634 0.809401 0.500513 0.792253
C2    C     C_R   0.190431 0.809255 0.499771 0.793476
C3    C     C_R   0.309607 0.309400 0.500501 0.792216
C4    C     C_R   0.690565 0.309347 0.499747 0.796449
C5    C     C_R   0.647564 0.752254 0.291671 -0.131782
C6    C     C_R   0.352210 0.752209 0.708292 -0.129946
C7    C     C_R   0.147569 0.252270 0.291666 -0.131663
C8    C     C_R   0.852149 0.252216 0.708273 -0.132684
C9    C     C_R   0.464655 0.751211 0.929986 0.435309
C10   C     C_R   0.534887 0.751223 0.069984 0.435629
C11   C     C_R   0.964529 0.251260 0.929967 0.434955
C12   C     C_R   0.034816 0.251266 0.069969 0.435602
C13   C     C_R   0.855055 0.841006 0.455244 0.108677
C14   C     C_R   0.100878 0.837054 0.465214 0.139796
C15   C     C_R   0.353274 0.341820 0.453588 0.107287
C16   C     C_R   0.655260 0.346286 0.553435 0.095424
C17   C     C_R   0.841864 0.843355 0.499637 -0.109682
C18   C     C_R   0.158301 0.841921 0.503042 -0.105926
C19   C     C_R   0.341766 0.343388 0.499640 -0.107828
C20   C     C_R   0.658157 0.343259 0.499908 -0.104634
C21   C     C_R   0.854602 0.881549 0.537811 -0.243337
C22   C     C_R   0.184925 0.877392 0.547655 -0.257849
C23   C     C_R   0.355848 0.381012 0.539405 -0.244424
C24   C     C_R   0.636266 0.377118 0.451603 -0.233454
C25   C     C_R   0.886860 0.914230 0.538343 0.130185
C26   C     C_R   0.153264 0.910037 0.548375 0.140322
C27   C     C_R   0.388055 0.413727 0.539880 0.130780
C28   C     C_R   0.604410 0.410313 0.451103 0.148301
C29   C     C_R   0.904874 0.908920 0.498572 -0.079829
C30   C     C_R   0.094395 0.907424 0.502479 -0.082507
C31   C     C_R   0.404706 0.409005 0.498553 -0.083591
C32   C     C_R   0.596144 0.409663 0.501195 -0.111625
C33   C     C_R   0.885398 0.873552 0.454050 0.092305
C34   C     C_R   0.069384 0.869568 0.464216 0.043324
C35   C     C_R   0.383651 0.374364 0.452473 0.093368
C36   C     C_R   0.625156 0.379135 0.554371 0.103770
C37   C     C_3   0.917092 0.842022 0.444480 -0.493897
C38   C     C_3   0.022714 0.863639 0.389317 -0.441555
C39   C     C_3   0.413620 0.342946 0.440005 -0.483332
C40   C     C_3   0.604600 0.349734 0.582124 -0.461999
C41   C     C_3   0.883890 0.806172 0.446231 -0.430328
C42   C     C_3   0.057323 0.827739 0.390421 -0.471860
C43   C     C_3   0.380248 0.307122 0.441461 -0.435714
C44   C     C_3   0.637668 0.313534 0.580807 -0.448866
C45   C     C_R   0.684419 0.750841 0.367558 0.762060
C46   C     C_R   0.315523 0.750808 0.632427 0.765000
C47   C     C_R   0.184422 0.250846 0.367556 0.761334
C48   C     C_R   0.815510 0.250810 0.632421 0.764683
C49   C     C_R   0.840349 0.770571 0.745536 -0.178879
C50   C     C_R   0.159858 0.770332 0.254356 -0.173468
C51   C     C_R   0.340269 0.270305 0.745579 -0.178461
C52   C     C_R   0.659600 0.270877 0.254346 -0.175506
C53   C     C_R   0.876497 0.769940 0.817293 -0.196887
C54   C     C_R   0.123564 0.769849 0.182553 -0.204605
C55   C     C_R   0.376470 0.269665 0.817339 -0.196546
C56   C     C_R   0.623375 0.270353 0.182540 -0.204774
C57   C     C_R   0.928432 0.748899 0.853998 0.047316
C58   C     C_R   0.071204 0.749591 0.146017 0.063615
C59   C     C_R   0.428588 0.248922 0.853978 0.047293
C60   C     C_R   0.571494 0.249327 0.145976 0.064004
C61   C     C_R   0.943567 0.727620 0.817335 0.180097
C62   C     C_R   0.055895 0.729178 0.183033 0.172622
C63   C     C_R   0.443865 0.227954 0.817264 0.180068
C64   C     C_R   0.556639 0.228125 0.182945 0.171898
C65   C     C_R   0.906604 0.728233 0.744994 -0.198039
C66   C     C_R   0.092886 0.729447 0.255213 -0.231333
C67   C     C_R   0.406844 0.228555 0.744927 -0.197971
C68   C     C_R   0.593553 0.228452 0.255123 -0.226296
C69   C     C_R   0.854965 0.749665 0.708682 -0.058436
C70   C     C_R   0.144967 0.750008 0.291381 -0.053881
C71   C     C_R   0.355016 0.249688 0.708674 -0.057897
C72   C     C_R   0.645119 0.249844 0.291347 -0.053800
C73   C     C_R   0.033843 0.749729 0.069862 0.422439
C74   C     C_R   0.965754 0.749360 0.930119 0.405386
C75   C     C_R   0.534111 0.249540 0.069831 0.422565
C76   C     C_R   0.465944 0.249333 0.930092 0.405261
C77   C     C_R   0.681286 0.620718 0.540754 0.092819
C78   C     C_R   0.318225 0.622975 0.454548 -0.016068
C79   C     C_R   0.181213 0.121863 0.542625 0.090856
C80   C     C_R   0.818219 0.123010 0.454481 -0.016257
C81   C     C_R   0.656796 0.658177 0.500932 -0.201398
C82   C     C_R   0.343258 0.658152 0.499414 -0.139696
C83   C     C_R   0.156502 0.158311 0.500430 -0.199364
C84   C     C_R   0.843260 0.158172 0.499370 -0.139784
C85   C     C_R   0.600091 0.666218 0.468041 -0.168327
C86   C     C_R   0.401026 0.664294 0.537906 -0.230817
C87   C     C_R   0.099340 0.165807 0.465362 -0.168556
C88   C     C_R   0.901015 0.164353 0.537731 -0.230763
C89   C     C_R   0.690219 0.690689 0.499510 0.836800
C90   C     C_R   0.309743 0.690693 0.500477 0.816034
C91   C     C_R   0.190116 0.190720 0.499300 0.837759
C92   C     C_R   0.809749 0.190696 0.500481 0.816335
C93   C     C_R   0.567034 0.634344 0.467197 0.128053
C94   C     C_R   0.433949 0.632274 0.538368 0.127987
C95   C     C_R   0.066278 0.134030 0.464761 0.126750
C96   C     C_R   0.933924 0.132335 0.538146 0.127659
C97   C     C_R   0.591686 0.594427 0.501568 -0.106033
C98   C     C_R   0.408229 0.594583 0.498155 -0.057085
C99   C     C_R   0.091380 0.094824 0.501575 -0.110121
C100  C     C_R   0.908210 0.094592 0.498092 -0.056695
C101  C     C_R   0.649382 0.589666 0.541944 -0.020680
C102  C     C_R   0.350171 0.591978 0.453271 -0.050663
C103  C     C_R   0.149300 0.091003 0.544093 -0.013653
C104  C     C_R   0.850148 0.092013 0.453187 -0.050546
C105  C     C_3   0.682984 0.552590 0.546251 -0.583075
C106  C     C_3   0.313156 0.555243 0.441366 -0.455832
C107  C     C_3   0.184744 0.054023 0.552612 -0.582200
C108  C     C_3   0.813036 0.055305 0.441081 -0.455767
C109  C     C_3   0.717857 0.586760 0.543807 0.774609
C110  C     C_3   0.278087 0.589173 0.443703 0.775665
C111  C     C_3   0.219546 0.087939 0.549606 0.765637
C112  C     C_3   0.777983 0.089241 0.443446 0.775467
C113  C     C_R   0.440572 0.559705 0.499655 0.840020
C114  C     C_R   0.559323 0.559713 0.500236 0.812591
C115  C     C_R   0.940558 0.059697 0.499643 0.840544
C116  C     C_R   0.059161 0.059904 0.500235 0.823007
C117  C     C_R   0.940256 0.940721 0.499807 0.827078
C118  C     C_R   0.060222 0.941036 0.500382 0.828389
C119  C     C_R   0.440213 0.440734 0.499803 0.824651
C120  C     C_R   0.560137 0.440963 0.500212 0.804113
C121  C     C_R   0.816463 0.749919 0.632631 0.795439
C122  C     C_R   0.183536 0.750015 0.367392 0.785576
C123  C     C_R   0.316471 0.249925 0.632628 0.796323
C124  C     C_R   0.683583 0.249963 0.367381 0.786669
C125  C     C_R   0.625727 0.791851 0.254303 0.408839
C126  C     C_R   0.373684 0.791823 0.745369 0.409887
C127  C     C_R   0.125700 0.291870 0.254310 0.408965
C128  C     C_R   0.873304 0.291857 0.745320 0.407113
C129  C     C_R   0.588282 0.790816 0.182362 -0.134718
C130  C     C_R   0.411037 0.790799 0.817318 -0.136916
C131  C     C_R   0.088233 0.290844 0.182368 -0.134538
C132  C     C_R   0.910629 0.290859 0.817275 -0.136089
C133  C     C_R   0.573408 0.751447 0.146262 -0.038094
C134  C     C_R   0.426180 0.751423 0.853706 -0.037341
C135  C     C_R   0.073372 0.251484 0.146251 -0.038156
C136  C     C_R   0.926045 0.251468 0.853683 -0.037649
C137  C     C_R   0.596295 0.712570 0.183642 -0.154430
C138  C     C_R   0.403634 0.712527 0.816609 -0.154427
C139  C     C_R   0.096305 0.212606 0.183618 -0.154340
C140  C     C_R   0.903780 0.212539 0.816601 -0.155024
C141  C     C_R   0.632958 0.713015 0.255454 -0.224546
C142  C     C_R   0.367058 0.712962 0.744790 -0.225198
C143  C     C_R   0.132985 0.213041 0.255431 -0.224773
C144  C     C_R   0.867238 0.212957 0.744783 -0.226209
Cu1   Cu    Cu3+1 0.780910 0.719090 0.500000 1.004648
Cu2   Cu    Cu3+1 0.219090 0.719090 0.500000 0.985079
Cu3   Cu    Cu3+1 0.280910 0.219090 0.500000 1.003589
Cu4   Cu    Cu3+1 0.719090 0.219090 0.500000 0.980801
Cu5   Cu    Cu3+1 0.719070 0.780890 0.500010 0.981811
Cu6   Cu    Cu3+1 0.280930 0.780890 0.499990 0.977391
Cu7   Cu    Cu3+1 0.219070 0.280890 0.500010 0.982550
Cu8   Cu    Cu3+1 0.780930 0.280890 0.499990 0.978699
Cu9   Cu    Cu3+1 0.465760 0.500000 0.431570 0.977490
Cu10  Cu    Cu3+1 0.534240 0.500000 0.568430 0.988190
Cu11  Cu    Cu3+1 0.965760 0.000000 0.431570 0.957512
Cu12  Cu    Cu3+1 0.034240 0.000000 0.568430 1.002017
H1    H     H_    0.909856 0.784626 0.492019 0.209533
H2    H     H_    0.071367 0.835438 0.359611 0.194505
H3    H     H_    0.406343 0.284693 0.486044 0.209320
H4    H     H_    0.610958 0.287543 0.543024 0.211726
H5    H     H_    0.800720 0.787219 0.718919 0.163917
H6    H     H_    0.199827 0.786328 0.280867 0.164062
H7    H     H_    0.300493 0.286716 0.718997 0.163963
H8    H     H_    0.699171 0.287510 0.280873 0.163947
H9    H     H_    0.864037 0.786468 0.844261 0.162726
H10   H     H_    0.136310 0.785800 0.155463 0.164119
H11   H     H_    0.363907 0.285949 0.844364 0.162915
H12   H     H_    0.635765 0.286898 0.155464 0.163755
H13   H     H_    0.918244 0.711842 0.717054 0.154609
H14   H     H_    0.080588 0.713535 0.282831 0.156586
H15   H     H_    0.418590 0.212398 0.716942 0.154043
H16   H     H_    0.581595 0.211920 0.282687 0.158222
H17   H     H_    0.580826 0.696338 0.440248 0.180489
H18   H     H_    0.420918 0.692822 0.569961 0.160348
H19   H     H_    0.079849 0.195373 0.435836 0.179184
H20   H     H_    0.920911 0.192911 0.569707 0.160563
H21   H     H_    0.705891 0.535269 0.596360 0.213234
H22   H     H_    0.291799 0.540381 0.389814 0.216435
H23   H     H_    0.207108 0.038449 0.603940 0.217748
H24   H     H_    0.791708 0.040508 0.389494 0.216242
H25   H     H_    0.658477 0.531221 0.500326 0.165264
H26   H     H_    0.334597 0.531659 0.484784 0.159266
H27   H     H_    0.161773 0.031260 0.508259 0.180454
H28   H     H_    0.834396 0.031681 0.484420 0.159499
H29   H     H_    0.571720 0.821305 0.154727 0.179923
H30   H     H_    0.427330 0.821301 0.844728 0.178456
H31   H     H_    0.071644 0.321335 0.154746 0.180088
H32   H     H_    0.926689 0.321383 0.844670 0.179275
H33   H     H_    0.585867 0.681680 0.157471 0.167684
H34   H     H_    0.414276 0.681631 0.843009 0.167595
H35   H     H_    0.085890 0.181721 0.157437 0.167638
H36   H     H_    0.914626 0.181630 0.843012 0.167446
H37   H     H_    0.649298 0.682433 0.282895 0.169054
H38   H     H_    0.350992 0.682371 0.717567 0.168103
H39   H     H_    0.149350 0.182457 0.282859 0.168684
H40   H     H_    0.851392 0.182346 0.717568 0.167914
H41   H     H_    0.841750 0.885195 0.569511 0.162207
H42   H     H_    0.229943 0.880309 0.580618 0.162310
H43   H     H_    0.344079 0.384149 0.572297 0.161080
H44   H     H_    0.641980 0.376631 0.412724 0.149233
H45   H     H_    0.907133 0.845701 0.393374 0.202762
H46   H     H_    0.984224 0.851491 0.379585 0.193945
H47   H     H_    0.402776 0.347523 0.388541 0.212716
H48   H     H_    0.621206 0.358965 0.635025 0.210346
H49   H     H_    0.962371 0.841205 0.488999 0.195099
H50   H     H_    0.016737 0.892245 0.357930 0.213776
H51   H     H_    0.459008 0.341248 0.483652 0.183770
H52   H     H_    0.558760 0.344702 0.545258 0.182705
H53   H     H_    0.855039 0.789090 0.396235 0.199846
H54   H     H_    0.038797 0.794922 0.381446 0.203031
H55   H     H_    0.350161 0.291037 0.390822 0.201117
H56   H     H_    0.673325 0.301895 0.632949 0.200944
N1    N     N_R   0.517151 0.713274 0.034408 -0.235124
N2    N     N_R   0.482705 0.713268 0.965856 -0.235300
N3    N     N_R   0.017215 0.213320 0.034389 -0.235348
N4    N     N_R   0.982745 0.213317 0.965837 -0.235516
N5    N     N_R   0.482445 0.789110 0.965603 -0.233760
N6    N     N_R   0.516773 0.789116 0.034073 -0.233388
N7    N     N_R   0.982180 0.289158 0.965587 -0.233362
N8    N     N_R   0.016535 0.289161 0.034059 -0.232984
N9    N     N_R   0.022046 0.750019 0.967431 -0.189297
N10   N     N_R   0.977538 0.749620 0.032524 -0.189625
N11   N     N_R   0.522218 0.250539 0.967347 -0.189856
N12   N     N_R   0.477817 0.248882 0.032551 -0.189049
N13   N     N_R   0.055414 0.750285 0.035904 -0.239522
N14   N     N_R   0.944164 0.749541 0.964049 -0.238096
N15   N     N_R   0.555625 0.250732 0.035825 -0.239938
N16   N     N_R   0.444402 0.248885 0.964075 -0.237426
O1    O     O_R   0.821190 0.768980 0.500000 -0.589754
O2    O     O_R   0.178810 0.768980 0.500000 -0.581356
O3    O     O_R   0.321190 0.268980 0.500000 -0.590064
O4    O     O_R   0.678810 0.268980 0.500000 -0.585778
O5    O     O_R   0.483700 0.545120 0.557760 -0.561482
O6    O     O_R   0.516300 0.545120 0.442240 -0.599340
O7    O     O_R   0.983700 0.045120 0.557760 -0.562547
O8    O     O_R   0.016300 0.045120 0.442240 -0.603197
O9    O     O_R   0.925990 0.954920 0.442210 -0.591340
O10   O     O_R   0.074010 0.954920 0.557790 -0.563939
O11   O     O_R   0.425990 0.454920 0.442210 -0.589831
O12   O     O_R   0.574010 0.454920 0.557790 -0.592190
O13   O     O_R   0.983760 0.954940 0.557800 -0.567986
O14   O     O_R   0.016240 0.954940 0.442200 -0.598505
O15   O     O_R   0.483760 0.454940 0.557800 -0.567088
O16   O     O_R   0.516240 0.454940 0.442200 -0.555758
O17   O     O_R   0.768960 0.821170 0.500020 -0.584310
O18   O     O_R   0.231040 0.821170 0.499980 -0.584380
O19   O     O_R   0.268960 0.321170 0.500020 -0.583862
O20   O     O_R   0.731040 0.321170 0.499980 -0.583427
O21   O     O_R   0.726180 0.723900 0.400140 -0.579611
O22   O     O_R   0.273820 0.723900 0.599860 -0.574749
O23   O     O_R   0.226180 0.223900 0.400140 -0.580169
O24   O     O_R   0.773820 0.223900 0.599860 -0.577180
O25   O     O_R   0.673950 0.776090 0.400160 -0.568248
O26   O     O_R   0.326050 0.776090 0.599840 -0.570926
O27   O     O_R   0.173950 0.276090 0.400160 -0.568425
O28   O     O_R   0.826050 0.276090 0.599840 -0.568558
O29   O     O_R   0.731010 0.678810 0.499990 -0.530624
O30   O     O_R   0.268990 0.678810 0.500010 -0.561926
O31   O     O_R   0.231010 0.178810 0.499990 -0.531193
O32   O     O_R   0.768990 0.178810 0.500010 -0.561779
O33   O     O_R   0.678790 0.731000 0.500010 -0.590665
O34   O     O_R   0.321210 0.731000 0.499990 -0.581867
O35   O     O_R   0.178790 0.231000 0.500010 -0.590136
O36   O     O_R   0.821210 0.231000 0.499990 -0.581842
O37   O     O_R   0.826030 0.723890 0.599860 -0.577599
O38   O     O_R   0.173970 0.723890 0.400140 -0.591332
O39   O     O_R   0.326030 0.223890 0.599860 -0.577109
O40   O     O_R   0.673970 0.223890 0.400140 -0.589992
O41   O     O_R   0.773800 0.776080 0.599870 -0.590815
O42   O     O_R   0.226200 0.776080 0.400130 -0.584927
O43   O     O_R   0.273800 0.276080 0.599870 -0.590835
O44   O     O_R   0.726200 0.276080 0.400130 -0.587313
O45   O     O_R   0.425940 0.545090 0.442170 -0.590628
O46   O     O_R   0.574060 0.545090 0.557830 -0.568172
O47   O     O_R   0.925940 0.045090 0.442170 -0.590736
O48   O     O_R   0.074060 0.045090 0.557830 -0.562658
O49   O     O_3   0.640636 0.832153 0.285297 -0.712472
H57   H     H_    0.677497 0.829963 0.331312 0.327359
O50   O     O_3   0.358512 0.832128 0.714076 -0.723311
H58   H     H_    0.321764 0.829875 0.667976 0.319884
O51   O     O_3   0.140596 0.332167 0.285320 -0.712156
H59   H     H_    0.177477 0.329981 0.331314 0.327479
O52   O     O_3   0.857839 0.332152 0.713984 -0.716844
H60   H     H_    0.821165 0.329777 0.667815 0.325904
N17   N     N_3   0.995597 0.704557 0.853445 -0.558083
H61   H     H_    0.001744 0.692942 0.819089 0.218048
H62   H     H_    0.992774 0.677288 0.876270 0.228018
N18   N     N_3   0.003614 0.707065 0.147798 -0.565555
H63   H     H_    0.011750 0.674630 0.163912 0.228351
H64   H     H_    0.981656 0.720972 0.162939 0.222865
N19   N     N_3   0.496108 0.205209 0.853325 -0.558919
H65   H     H_    0.502312 0.193795 0.818930 0.217343
H66   H     H_    0.493579 0.177819 0.876203 0.227801
N20   N     N_3   0.504914 0.205168 0.147656 -0.565266
H67   H     H_    0.513846 0.172750 0.163810 0.228257
H68   H     H_    0.482564 0.218361 0.162706 0.224888
N21   N     N_3   0.508920 0.643096 0.430656 -0.580280
H69   H     H_    0.499574 0.638190 0.464124 0.222660
H70   H     H_    0.485762 0.621077 0.390054 0.242777
N22   N     N_3   0.493155 0.637738 0.580283 -0.585520
H71   H     H_    0.508751 0.641295 0.631300 0.230166
H72   H     H_    0.500980 0.666615 0.565427 0.219794
N23   N     N_3   0.007797 0.142209 0.426195 -0.579770
H73   H     H_    0.997408 0.137944 0.458745 0.222340
H74   H     H_    0.985696 0.119541 0.386411 0.243072
N24   N     N_3   0.993101 0.137875 0.579775 -0.585528
H75   H     H_    0.008853 0.141653 0.630821 0.230196
H76   H     H_    0.000762 0.166648 0.564515 0.219976
O53   O     O_3   0.772905 0.589368 0.604745 -0.700175
H77   H     H_    0.792106 0.562927 0.606102 0.339265
O54   O     O_3   0.224639 0.593805 0.380474 -0.694345
H78   H     H_    0.208031 0.619941 0.384757 0.337541
O55   O     O_3   0.273887 0.092092 0.611433 -0.701224
H79   H     H_    0.294232 0.065604 0.615493 0.337211
O56   O     O_3   0.724577 0.093965 0.380183 -0.694845
H80   H     H_    0.708001 0.120105 0.384508 0.337341
O57   O     O_3   0.714808 0.584866 0.484854 -0.710372
H81   H     H_    0.674847 0.584374 0.443605 0.300283
O58   O     O_3   0.276753 0.583881 0.499029 -0.703355
H82   H     H_    0.315787 0.582213 0.542280 0.301469
O59   O     O_3   0.218330 0.084378 0.492126 -0.708899
H83   H     H_    0.178746 0.082819 0.450071 0.301890
O60   O     O_3   0.776556 0.083888 0.498690 -0.703663
H84   H     H_    0.815568 0.082160 0.541974 0.301462
N25   N     N_3   0.901862 0.952177 0.579817 -0.583399
H85   H     H_    0.924074 0.942156 0.630929 0.229121
H86   H     H_    0.865126 0.967099 0.564769 0.217968
N26   N     N_3   0.180812 0.946776 0.592633 -0.579590
H87   H     H_    0.206934 0.935453 0.643373 0.234473
H88   H     H_    0.206151 0.960533 0.582406 0.216048
N27   N     N_3   0.404301 0.451127 0.582756 -0.581373
H89   H     H_    0.426933 0.440455 0.633628 0.228393
H90   H     H_    0.368089 0.466319 0.568964 0.218172
N28   N     N_3   0.579451 0.443673 0.399269 -0.550297
H91   H     H_    0.598620 0.473034 0.423956 0.204828
H92   H     H_    0.587851 0.438233 0.364991 0.217358

loop_
_geom_bond_atom_site_label_1
_geom_bond_atom_site_label_2
_ccdc_geom_bond_type
C99   C103  A    
C40   H52   S    
C133  C137  A    
C129  H29   S    
C76   N16   A    
C77   C101  A    
N19   H65   S    
C136  C140  A    
C132  H32   S    
N23   H74   S    
C135  C139  A    
C37   C41   S    
C4    O4    A    
C111  O59   S    
C55   C59   A    
C95   C99   A    
C111  O55   S    
C118  O10   A    
Cu12  O7    S    
C29   C33   A    
C100  C104  A    
C116  O48   A    
C46   O22   A    
Cu2   Cu6   S    
Cu3   O3    S    
C12   C135  S    
C3    C19   S    
C43   H55   S    
C16   C44   S    
C11   N4    A    
C117  O9    A    
C49   C69   A    
C72   C124  S    
C93   N21   S    
C130  C134  A    
C100  C115  S    
C51   C71   A    
Cu4   O32   S    
N12   N16   A    
Cu5   O33   S    
C25   C29   A    
Cu4   O24   S    
Cu9   O11   S    
C27   C31   A    
O60   H84   S    
C110  O58   S    
C28   C32   A    
C114  O6    A    
C121  O37   A    
C99   C116  S    
Cu8   O28   S    
C30   C34   A    
C98   C102  A    
C124  O40   A    
C17   C21   A    
C86   H18   S    
C48   O24   A    
C15   C19   A    
N3    N4    A    
C13   C33   A    
C52   C72   A    
C78   C82   A    
N23   H73   S    
C16   C20   A    
C80   C112  S    
N24   H75   S    
C142  H38   S    
C92   O36   A    
C129  C133  A    
Cu3   O39   S    
C89   O33   A    
C3    O3    A    
C90   O30   A    
C91   O35   A    
N22   H71   S    
Cu10  O15   S    
C107  H23   S    
C84   C88   A    
C105  H21   S    
C10   N1    A    
C57   C61   A    
C108  H28   S    
C83   C91   S    
C59   C63   A    
C60   C64   A    
C75   N15   A    
C50   C70   A    
N17   H62   S    
C1    O17   A    
C11   C136  S    
C66   C70   A    
C49   C53   A    
Cu9   O6    S    
C51   C55   A    
C62   N18   S    
Cu12  O48   S    
Cu6   O26   S    
C4    C20   S    
Cu11  O14   S    
C125  C129  A    
C24   H44   S    
O59   H83   S    
C38   H46   S    
Cu11  Cu12  S    
C126  C130  A    
Cu9   O45   S    
C94   N22   S    
C12   N8    A    
C131  H31   S    
N9    N13   A    
C50   H6    S    
Cu6   O42   S    
C7    C143  A    
C74   N9    A    
C125  O49   S    
C64   C68   A    
C71   C123  S    
N19   H66   S    
C43   H3    S    
N11   N15   A    
Cu5   O25   S    
Cu10  O12   S    
N25   H86   S    
C45   O21   A    
C139  C143  A    
C8    C128  A    
C40   H48   S    
C87   C95   A    
C47   O23   A    
C112  O56   S    
O49   H57   S    
N21   H70   S    
C79   C103  A    
C39   H47   S    
C127  C131  A    
C62   C66   A    
C8    C144  A    
C113  O45   A    
Cu6   O34   S    
N28   H91   S    
C30   C118  S    
N5    N6    A    
C109  O57   S    
N18   H64   S    
Cu3   Cu7   S    
C61   C65   A    
C70   C122  S    
C132  C136  A    
C141  H37   S    
C77   C109  S    
C75   N12   A    
C26   C30   A    
Cu2   O30   S    
C121  O41   A    
C122  O38   A    
C9    N5    A    
Cu6   O18   S    
Cu1   O1    S    
C124  O44   A    
C95   N23   S    
C18   C22   A    
C107  C111  S    
Cu4   Cu8   S    
N26   H87   S    
C14   C34   A    
C103  C107  S    
C13   C41   S    
C144  H40   S    
C87   H19   S    
C126  O50   S    
C1    C17   S    
C88   H20   S    
C13   C17   A    
C15   C43   S    
C74   N14   A    
C16   C36   A    
C119  O11   A    
Cu11  O8    S    
C27   N27   S    
C96   C100  A    
Cu3   O31   S    
C90   O34   A    
C91   O31   A    
C2    O2    A    
C40   C44   S    
C56   C60   A    
C5    C125  A    
O52   H60   S    
Cu1   O37   S    
C84   C92   S    
C105  H25   S    
C97   C114  S    
C59   C76   S    
C106  H22   S    
C81   C85   A    
C118  O14   A    
C58   C62   A    
C83   C87   A    
C88   C96   A    
C11   N7    A    
C78   C102  A    
C10   C133  S    
C55   H11   S    
C80   C84   A    
C115  O7    A    
N1    N2    A    
C113  O5    A    
Cu3   O23   S    
C50   C54   A    
C80   C104  A    
C139  H35   S    
Cu7   O19   S    
N20   H67   S    
C25   N25   S    
C94   C98   A    
C123  O43   A    
Cu10  O46   S    
C21   C25   A    
N24   H76   S    
O50   H58   S    
C51   H7    S    
Cu4   O4    S    
C6    C142  A    
C6    C46   S    
C42   H54   S    
Cu7   O35   S    
C81   C89   S    
Cu8   O36   S    
O56   H80   S    
C42   H2    S    
C3    O19   A    
C54   H10   S    
N22   H72   S    
C76   N11   A    
C24   C28   A    
C37   H49   S    
C6    C126  A    
Cu11  O47   S    
C138  C142  A    
N7    N8    A    
C53   C57   A    
C98   C113  S    
Cu12  O10   S    
C82   C86   A    
C5    C45   S    
C33   C37   S    
C108  C112  S    
C65   H13   S    
C7    C47   S    
C35   C39   S    
N27   H89   S    
C8    C48   S    
C47   O27   A    
N17   H61   S    
C93   C97   A    
C77   C81   A    
C143  H39   S    
C116  O8    A    
C31   C119  S    
C52   H8    S    
C41   H1    S    
C53   H9    S    
C44   H4    S    
C31   C35   A    
C32   C36   A    
C104  C108  S    
C114  O46   A    
Cu1   O21   S    
C137  C141  A    
Cu5   O17   S    
C22   H42   S    
C140  C144  A    
C9    N2    A    
C60   C75   S    
C82   C90   S    
Cu4   O40   S    
C2    O18   A    
Cu5   O41   S    
C79   C83   A    
C68   H16   S    
O55   H79   S    
C105  C109  S    
C65   C69   A    
Cu10  O5    S    
C21   H41   S    
C110  O54   S    
C67   C71   A    
N25   H85   S    
Cu8   O20   S    
Cu12  O13   S    
C122  O42   A    
O58   H82   S    
C123  O39   A    
Cu11  O9    S    
C22   C26   A    
C37   H45   S    
C12   N3    A    
C46   O26   A    
Cu1   Cu5   S    
Cu2   O2    S    
N20   H68   S    
O54   H78   S    
C2    C18   S    
N21   H69   S    
C14   C18   A    
C19   C23   A    
O53   H77   S    
C73   N10   A    
Cu2   O22   S    
C38   C42   S    
C131  C135  A    
N28   H92   S    
N10   N14   A    
C23   H43   S    
C108  H24   S    
C120  O16   A    
Cu2   O38   S    
C4    O20   A    
C86   C94   A    
C96   N24   S    
C106  H26   S    
C20   C24   A    
C39   H51   S    
C85   H17   S    
C23   C27   A    
C48   O28   A    
C68   C72   A    
C14   C42   S    
C41   H53   S    
C9    C134  S    
C63   N19   S    
C138  H34   S    
C85   C93   A    
C32   C120  S    
C128  C132  A    
C15   C35   A    
C92   O32   A    
C101  C105  S    
C63   C67   A    
C36   C40   S    
C89   O29   A    
N26   H88   S    
C39   C43   S    
C67   H15   S    
O51   H59   S    
C29   C117  S    
C107  H27   S    
C44   H56   S    
C57   C74   S    
C1    O1    A    
C26   N26   S    
C5    C141  A    
C69   C121  S    
C56   H12   S    
C78   C110  S    
N27   H90   S    
C137  H33   S    
C120  O12   A    
C61   N17   S    
C140  H36   S    
C28   N28   S    
C10   N6    A    
Cu7   O27   S    
C54   C58   A    
C38   H50   S    
C34   C38   S    
C49   H5    S    
C66   H14   S    
Cu1   O29   S    
C134  C138  A    
C130  H30   S    
C112  O60   S    
C79   C111  S    
C7    C127  A    
N18   H63   S    
C127  O51   S    
C73   N13   A    
Cu7   O43   S    
Cu8   O44   S    
C102  C106  S    
O57   H81   S    
C115  O47   A    
C106  C110  S    
Cu9   O16   S    
C109  O53   S    
C64   N20   S    
C128  O52   S    
Cu9   Cu10  S    
C119  O15   A    
C97   C101  A    
C52   C56   A    
C58   C73   S    
C45   O25   A    
C117  O13   A    
