data_mof_unit_36581.cif
_audit_creation_date              2012-12-10T18:51:36-0500
_audit_creation_method            fapswitch 2.2
_symmetry_space_group_name_H-M    P1
_symmetry_Int_Tables_number       1
_space_group_crystal_system       triclinic
_cell_length_a                    10.780839
_cell_length_b                    10.02762
_cell_length_c                    10.448231
_cell_angle_alpha                 90.222439
_cell_angle_beta                  94.214085
_cell_angle_gamma                 90.568777
_cell_volume                      1126.39683349

loop_
_atom_site_label
_atom_site_type_symbol
_atom_type_description
_atom_site_fract_x
_atom_site_fract_y
_atom_site_fract_z
_atom_type_partial_charge
Br1   Br    Br    0.632854 0.159417 0.750295 -0.497908
Br2   Br    Br    0.384748 0.843729 0.239121 -0.497504
Br3   Br    Br    0.359881 0.157888 0.254715 -0.505895
Br4   Br    Br    0.635074 0.843344 0.748770 -0.499518
C1    C     C_R   0.876702 0.509322 0.529289 -0.222096
C2    C     C_3   0.527689 0.376210 0.041573 -0.060710
C3    C     C_3   0.413245 0.412287 0.951443 -0.138861
C4    C     C_3   0.586401 0.587361 0.048506 -0.137683
C5    C     C_3   0.498211 0.501200 0.877191 -0.015028
C6    C     C_3   0.501453 0.498499 0.122781 -0.012271
C7    C     C_R   0.553368 0.071708 0.602060 0.234800
C8    C     C_R   0.451180 0.928757 0.395612 0.225722
C9    C     C_R   0.447003 0.070621 0.397855 0.222038
C10   C     C_R   0.552337 0.929688 0.602589 0.223726
C11   C     C_R   0.055367 0.381680 0.488275 0.144277
C12   C     C_R   0.122748 0.500823 0.470264 -0.226498
C13   C     C_R   0.939655 0.630795 0.506141 0.094784
C14   C     C_R   0.943406 0.390919 0.544900 0.130272
C15   C     C_R   0.060698 0.625377 0.465933 0.099525
C16   C     C_3   0.090515 0.248421 0.432048 -0.372468
C17   C     C_3   0.991215 0.196995 0.330999 -0.859232
C18   C     C_3   0.891199 0.762348 0.554907 -0.287818
C19   C     C_3   0.831248 0.853096 0.449905 -0.781973
C20   C     C_3   0.905407 0.284257 0.637286 -0.346317
C21   C     C_3   0.002923 0.267899 0.750026 -0.860694
C22   C     C_3   0.109690 0.741420 0.389283 -0.290588
C23   C     C_R   0.259166 0.499615 0.486129 0.864131
C24   C     C_3   0.161150 0.861252 0.469578 -0.788445
C25   C     C_R   0.740671 0.501967 0.512986 0.860213
C26   C     C_R   0.501116 0.499594 0.258004 0.894241
C27   C     C_R   0.498755 0.500354 0.741984 0.895436
C28   C     C_3   0.387144 0.534364 0.035413 -0.188639
C29   C     C_3   0.612509 0.465254 0.964569 -0.192086
C30   C     C_3   0.471935 0.623417 0.958422 -0.058343
H1    H     H_    0.342762 0.341357 0.907069 0.169888
H2    H     H_    0.174435 0.259027 0.379936 0.272541
H3    H     H_    0.108143 0.172796 0.508080 0.210495
H4    H     H_    0.771340 0.795884 0.377932 0.276443
H5    H     H_    0.774275 0.929191 0.494590 0.243059
H6    H     H_    0.901054 0.908828 0.398764 0.233061
H7    H     H_    0.824577 0.741701 0.627368 0.244775
H8    H     H_    0.964677 0.815645 0.614683 0.193365
H9    H     H_    0.018920 0.364444 0.801469 0.253837
H10   H     H_    0.969065 0.193591 0.818243 0.280315
H11   H     H_    0.092629 0.232643 0.717661 0.255508
H12   H     H_    0.656791 0.658376 0.092895 0.167695
H13   H     H_    0.820291 0.315592 0.681024 0.249847
H14   H     H_    0.887085 0.187065 0.588199 0.228498
H15   H     H_    0.088462 0.922985 0.507621 0.228715
H16   H     H_    0.227016 0.830506 0.550223 0.276072
H17   H     H_    0.208071 0.930584 0.406671 0.266968
H18   H     H_    0.182248 0.705122 0.328512 0.230809
H19   H     H_    0.035967 0.774923 0.317439 0.193013
H20   H     H_    0.295672 0.562242 0.069429 0.161572
H21   H     H_    0.703986 0.437352 0.930558 0.165357
H22   H     H_    0.447646 0.724033 0.921166 0.205257
H23   H     H_    0.551648 0.275572 0.079041 0.204826
H24   H     H_    0.975677 0.271504 0.253171 0.267938
H25   H     H_    0.023218 0.102872 0.288377 0.270141
H26   H     H_    0.901579 0.176335 0.372931 0.256241
N1    N     N_R   0.500000 0.857200 0.500000 -0.162797
N2    N     N_R   0.500000 0.142800 0.500000 -0.161034
O1    O     O_R   0.316770 0.614620 0.499990 -0.596402
O2    O     O_R   0.683230 0.385380 0.500010 -0.606589
O3    O     O_R   0.683230 0.614620 0.500010 -0.597460
O4    O     O_R   0.316770 0.385380 0.499990 -0.613078
O5    O     O_R   0.499970 0.614650 0.313950 -0.576439
O6    O     O_R   0.500030 0.385350 0.686050 -0.575009
O7    O     O_R   0.500030 0.614650 0.686050 -0.585429
O8    O     O_R   0.499970 0.385350 0.313950 -0.582737
Zn1   Zn    Zn3+2 0.500000 0.653120 0.500000 0.998897
Zn2   Zn    Zn3+2 0.500000 0.346880 0.500000 1.003243

loop_
_geom_bond_atom_site_label_1
_geom_bond_atom_site_label_2
_ccdc_geom_bond_type
C29   H21   S    
C11   C14   A    
C30   H22   S    
C2    C3    S    
C1    C14   A    
C22   H18   S    
C19   H4    S    
C24   H15   S    
C6    C26   S    
O5    Zn1   S    
C22   C24   S    
C13   C18   S    
Br3   C9    S    
C2    C29   S    
O6    Zn2   S    
C7    N2    A    
Br2   C8    S    
C21   H9    S    
C12   C23   S    
C25   O2    A    
N2    Zn2   S    
C17   H24   S    
C23   O4    A    
C4    C30   S    
C8    C9    A    
C5    C29   S    
C8    N1    A    
C10   N1    A    
C2    H23   S    
N1    Zn1   S    
C18   H8    S    
C23   O1    A    
C12   C15   A    
C14   C20   S    
C11   C12   A    
C21   H10   S    
C28   H20   S    
C24   H17   S    
O1    Zn1   S    
C5    C30   S    
C17   H25   S    
C1    C25   S    
C4    C29   S    
O2    Zn2   S    
Br4   C10   S    
C27   O6    A    
C7    C10   A    
C25   O3    A    
C18   H7    S    
C1    C13   A    
C2    C6    S    
C5    C27   S    
C21   H11   S    
C19   H6    S    
C20   H14   S    
C22   H19   S    
C6    C28   S    
O7    Zn1   S    
C27   O7    A    
C20   C21   S    
C26   O8    A    
C17   H26   S    
C4    C6    S    
C3    C5    S    
C15   C22   S    
C18   C19   S    
C16   H2    S    
O8    Zn2   S    
C3    C28   S    
C4    H12   S    
C13   C15   A    
C16   C17   S    
O3    Zn1   S    
C20   H13   S    
C24   H16   S    
C19   H5    S    
O4    Zn2   S    
C9    N2    A    
C26   O5    A    
C16   H3    S    
C28   C30   S    
C11   C16   S    
C3    H1    S    
Br1   C7    S    
