data_mof_unit_38213.cif
_audit_creation_date              2012-12-11T14:54:23-0500
_audit_creation_method            fapswitch 2.2
_symmetry_space_group_name_H-M    P1
_symmetry_Int_Tables_number       1
_space_group_crystal_system       triclinic
_cell_length_a                    18.94957
_cell_length_b                    10.93146
_cell_length_c                    18.780026
_cell_angle_alpha                 90.035575
_cell_angle_beta                  90.197179
_cell_angle_gamma                 89.904199
_cell_volume                      3890.1868155

loop_
_atom_site_label
_atom_site_type_symbol
_atom_type_description
_atom_site_fract_x
_atom_site_fract_y
_atom_site_fract_z
_atom_type_partial_charge
C1    C     C_R   0.727401 0.370660 0.643360 0.552183
C2    C     C_R   0.269810 0.375515 0.354295 0.548474
C3    C     C_R   0.226993 0.869751 0.643103 0.547954
C4    C     C_R   0.769582 0.875915 0.354141 0.547101
C5    C     C_3   0.456426 0.383273 0.472102 -0.263367
C6    C     C_3   0.462799 0.375868 0.552537 -0.287115
C7    C     C_3   0.924493 0.844357 0.472341 -0.241544
C8    C     C_3   0.937913 0.841993 0.551867 -0.282144
C9    C     C_R   0.719565 0.831069 0.543687 -0.035657
C10   C     C_R   0.308768 0.864961 0.462574 -0.021451
C11   C     C_R   0.220109 0.329910 0.543839 -0.030037
C12   C     C_R   0.809289 0.365218 0.462623 -0.021931
C13   C     C_R   0.721152 0.815736 0.469977 -0.138136
C14   C     C_R   0.301868 0.863033 0.536543 -0.134517
C15   C     C_R   0.222475 0.314236 0.470210 -0.125474
C16   C     C_R   0.802599 0.364001 0.536709 -0.136616
C17   C     C_R   0.749505 0.907559 0.425852 0.003487
C18   C     C_R   0.236894 0.887493 0.567707 0.003662
C19   C     C_R   0.250284 0.406473 0.426153 0.009581
C20   C     C_R   0.737768 0.389361 0.568019 0.003149
C21   C     C_R   0.771414 0.018205 0.454260 -0.155931
C22   C     C_R   0.177111 0.907857 0.525297 -0.145870
C23   C     C_R   0.271498 0.517581 0.454469 -0.163641
C24   C     C_R   0.678171 0.410789 0.525639 -0.146307
C25   C     C_R   0.769190 0.034818 0.526850 -0.141340
C26   C     C_R   0.183648 0.919790 0.452891 -0.156634
C27   C     C_R   0.269480 0.534020 0.527043 -0.146635
C28   C     C_R   0.684398 0.421746 0.453269 -0.157163
C29   C     C_R   0.745777 0.941033 0.571990 0.036103
C30   C     C_R   0.249867 0.907904 0.421386 0.022287
C31   C     C_R   0.246011 0.440197 0.572195 0.035628
C32   C     C_R   0.750320 0.408451 0.421526 0.023035
C33   C     C_R   0.467331 0.061768 0.951507 0.280512
C34   C     C_R   0.467695 0.052782 0.025138 0.291032
C35   C     C_R   0.032227 0.552603 0.974715 0.291268
C36   C     C_R   0.032564 0.561343 0.048355 0.280467
C37   C     C_R   0.479217 0.159024 0.067382 -0.016080
C38   C     C_R   0.493688 0.168485 0.919864 -0.023910
C39   C     C_R   0.006313 0.668188 0.080161 -0.024143
C40   C     C_R   0.020828 0.659100 0.932636 -0.016473
C41   C     C_R   0.493983 0.270528 0.034089 -0.211306
C42   C     C_R   0.501180 0.275178 0.960504 -0.204482
C43   C     C_R   0.998966 0.775095 0.039703 -0.204253
C44   C     C_R   0.006175 0.770623 0.966112 -0.211642
C45   C     C_R   0.533416 0.154332 0.645813 0.544731
C46   C     C_R   0.468240 0.155916 0.353099 0.545247
C47   C     C_R   0.037215 0.654360 0.643576 0.550135
C48   C     C_R   0.968596 0.655836 0.353013 0.537848
C49   C     C_R   0.822095 0.935729 0.954713 -0.133905
C50   C     C_R   0.176680 0.934602 0.045488 -0.139230
C51   C     C_R   0.323301 0.434694 0.954588 -0.139321
C52   C     C_R   0.677893 0.435774 0.045336 -0.133925
C53   C     C_R   0.831234 0.909887 0.025837 -0.132284
C54   C     C_R   0.166777 0.906280 0.974570 -0.134576
C55   C     C_R   0.333180 0.406323 0.025494 -0.134116
C56   C     C_R   0.668726 0.409967 0.974204 -0.132719
C57   C     C_R   0.778190 0.850664 0.064020 0.030933
C58   C     C_R   0.219665 0.845723 0.936539 0.008670
C59   C     C_R   0.280360 0.345771 0.063438 0.008686
C60   C     C_R   0.721781 0.350523 0.935971 0.031005
C61   C     C_R   0.716819 0.810999 0.028696 -0.140229
C62   C     C_R   0.279880 0.802475 0.972666 -0.130849
C63   C     C_R   0.220284 0.302506 0.027199 -0.131020
C64   C     C_R   0.783215 0.310662 0.971230 -0.140383
C65   C     C_R   0.706293 0.841250 0.957327 -0.137418
C66   C     C_R   0.290625 0.833419 0.044026 -0.108838
C67   C     C_R   0.209562 0.333483 0.955846 -0.109334
C68   C     C_R   0.793786 0.340946 0.042597 -0.137136
C69   C     C_R   0.758003 0.908110 0.920912 0.032675
C70   C     C_R   0.240645 0.905695 0.079529 0.017795
C71   C     C_R   0.259437 0.405798 0.920450 0.017569
C72   C     C_R   0.742045 0.407980 0.079075 0.032764
C73   C     C_R   0.740740 0.971773 0.646512 0.534638
C74   C     C_R   0.258781 0.966277 0.352001 0.537388
C75   C     C_R   0.240844 0.471327 0.646656 0.531748
C76   C     C_R   0.758874 0.466333 0.352017 0.538601
C77   C     C_R   0.711211 0.331386 0.859832 0.571105
C78   C     C_R   0.289409 0.329985 0.140330 0.559309
C79   C     C_R   0.210567 0.829892 0.859669 0.561849
C80   C     C_R   0.788746 0.831519 0.140167 0.568680
C81   C     C_R   0.529968 0.157807 0.851858 0.547001
C82   C     C_R   0.462950 0.155563 0.143476 0.555205
C83   C     C_R   0.037029 0.655661 0.856518 0.557507
C84   C     C_R   0.970021 0.657668 0.148144 0.545154
C85   C     C_R   0.742338 0.968376 0.853449 0.540758
C86   C     C_R   0.257462 0.967887 0.146545 0.541304
C87   C     C_R   0.242569 0.467968 0.853441 0.540559
C88   C     C_R   0.757687 0.468286 0.146538 0.541724
C89   C     C_R   0.493747 0.167084 0.424905 0.017214
C90   C     C_R   0.513235 0.155566 0.572068 0.028288
C91   C     C_R   0.004399 0.669119 0.420711 0.016178
C92   C     C_R   0.025178 0.660565 0.567733 0.024743
C93   C     C_R   0.457567 0.246618 0.470735 0.036430
C94   C     C_R   0.466479 0.240525 0.543565 -0.005162
C95   C     C_R   0.990913 0.771985 0.463327 0.005697
C96   C     C_R   0.002137 0.768271 0.535905 -0.000956
C97   C     C_R   0.546236 0.069956 0.526686 -0.147125
C98   C     C_R   0.535826 0.074654 0.453703 -0.172113
C99   C     C_R   0.051457 0.566322 0.523945 -0.147769
C100  C     C_R   0.040820 0.570042 0.450582 -0.164384
Cr1   Cr    Cr6+3 0.771950 0.169480 0.750100 0.998176
Cr2   Cr    Cr6+3 0.228050 0.169480 0.249900 0.996239
Cr3   Cr    Cr6+3 0.271950 0.669480 0.750100 0.991689
Cr4   Cr    Cr6+3 0.728050 0.669480 0.249900 1.000266
Cr5   Cr    Cr6+3 0.614930 0.323340 0.749170 0.987485
Cr6   Cr    Cr6+3 0.385070 0.323340 0.250830 0.999045
Cr7   Cr    Cr6+3 0.114930 0.823340 0.749170 0.989587
Cr8   Cr    Cr6+3 0.885070 0.823340 0.250830 0.999066
Cr9   Cr    Cr6+3 0.616590 0.010620 0.750610 1.004887
Cr10  Cr    Cr6+3 0.383410 0.010620 0.249390 1.015167
Cr11  Cr    Cr6+3 0.116590 0.510620 0.750610 1.011908
Cr12  Cr    Cr6+3 0.883410 0.510620 0.249390 1.009396
H1    H     H_    0.582929 0.002820 0.547335 0.147134
H2    H     H_    0.560814 0.007027 0.419882 0.128130
H3    H     H_    0.078073 0.488245 0.546663 0.143315
H4    H     H_    0.055406 0.491516 0.418616 0.127470
H5    H     H_    0.863468 0.985968 0.927920 0.125623
H6    H     H_    0.135946 0.987177 0.071930 0.135809
H7    H     H_    0.363962 0.487277 0.928235 0.135420
H8    H     H_    0.636495 0.486164 0.072181 0.125716
H9    H     H_    0.878623 0.942017 0.051728 0.124602
H10   H     H_    0.118906 0.937320 0.948665 0.133344
H11   H     H_    0.380980 0.437329 0.051457 0.133774
H12   H     H_    0.621318 0.442307 0.948345 0.123992
H13   H     H_    0.675803 0.762085 0.056789 0.121431
H14   H     H_    0.320192 0.750816 0.945027 0.150422
H15   H     H_    0.180048 0.250822 0.054749 0.150522
H16   H     H_    0.824250 0.261588 0.943082 0.121448
H17   H     H_    0.656652 0.818116 0.931977 0.130251
H18   H     H_    0.339144 0.806210 0.070133 0.174942
H19   H     H_    0.161128 0.306259 0.929662 0.174487
H20   H     H_    0.843470 0.317700 0.067896 0.131320
H21   H     H_    0.877048 0.791157 0.456672 0.158158
H22   H     H_    0.951208 0.933384 0.574158 0.139688
H23   H     H_    0.405270 0.421312 0.453979 0.170995
H24   H     H_    0.511790 0.416924 0.574118 0.142905
H25   H     H_    0.503627 0.423055 0.445991 0.123770
H26   H     H_    0.413831 0.404618 0.580415 0.148194
H27   H     H_    0.928370 0.937260 0.448864 0.152770
H28   H     H_    0.897447 0.789921 0.582020 0.137803
H29   H     H_    0.704860 0.728615 0.447771 0.145667
H30   H     H_    0.346197 0.840420 0.570468 0.123068
H31   H     H_    0.206615 0.226908 0.447950 0.145187
H32   H     H_    0.846879 0.340745 0.570561 0.123746
H33   H     H_    0.792727 0.089387 0.420553 0.131047
H34   H     H_    0.125066 0.917010 0.548254 0.146278
H35   H     H_    0.292527 0.589051 0.420766 0.128940
H36   H     H_    0.626477 0.421247 0.548575 0.135067
H37   H     H_    0.785800 0.121843 0.548180 0.144950
H38   H     H_    0.137445 0.945559 0.422145 0.132155
H39   H     H_    0.286292 0.621011 0.548281 0.146809
H40   H     H_    0.638189 0.448004 0.422691 0.125693
H41   H     H_    0.500995 0.353364 0.064963 0.132489
H42   H     H_    0.515497 0.360571 0.935642 0.136199
H43   H     H_    0.984718 0.860548 0.064703 0.136660
H44   H     H_    0.999232 0.853600 0.935376 0.132153
O1    O     O_R   0.787510 0.042610 0.670410 -0.529293
O2    O     O_R   0.212490 0.042610 0.329590 -0.523969
O3    O     O_R   0.287510 0.542610 0.670410 -0.531202
O4    O     O_R   0.712490 0.542610 0.329590 -0.524980
O5    O     O_R   0.556450 0.252890 0.823790 -0.530215
O6    O     O_R   0.443550 0.252890 0.176210 -0.528935
O7    O     O_R   0.056450 0.752890 0.823790 -0.527358
O8    O     O_R   0.943550 0.752890 0.176210 -0.530478
O9    O     O_R   0.545750 0.051070 0.830560 -0.469544
O10   O     O_R   0.454250 0.051070 0.169440 -0.467062
O11   O     O_R   0.045750 0.551070 0.830560 -0.467368
O12   O     O_R   0.954250 0.551070 0.169440 -0.468042
O13   O     O_R   0.681210 0.959150 0.825320 -0.504271
O14   O     O_R   0.318790 0.959150 0.174680 -0.485264
O15   O     O_R   0.181210 0.459150 0.825320 -0.487909
O16   O     O_R   0.818790 0.459150 0.174680 -0.500529
O17   O     O_3   0.667820 0.167810 0.749960 -0.263451
O18   O     O_3   0.332180 0.167810 0.250040 -0.261787
O19   O     O_3   0.167820 0.667810 0.749960 -0.265554
O20   O     O_3   0.832180 0.667810 0.250040 -0.262483
O21   O     O_R   0.765670 0.292090 0.675090 -0.502402
O22   O     O_R   0.234330 0.292090 0.324910 -0.505484
O23   O     O_R   0.265670 0.792090 0.675090 -0.505688
O24   O     O_R   0.734330 0.792090 0.324910 -0.502231
O25   O     O_R   0.670220 0.409020 0.668560 -0.533786
O26   O     O_R   0.329780 0.409020 0.331440 -0.522891
O27   O     O_R   0.170220 0.909020 0.668560 -0.533130
O28   O     O_R   0.829780 0.909020 0.331440 -0.522895
O29   O     O_R   0.556580 0.251590 0.674980 -0.505901
O30   O     O_R   0.443420 0.251590 0.325020 -0.496922
O31   O     O_R   0.056580 0.751590 0.674980 -0.499820
O32   O     O_R   0.943420 0.751590 0.325020 -0.500567
O33   O     O_R   0.545890 0.049670 0.670030 -0.531999
O34   O     O_R   0.454110 0.049670 0.329970 -0.540731
O35   O     O_R   0.045890 0.549670 0.670030 -0.530538
O36   O     O_R   0.954110 0.549670 0.329970 -0.542085
O37   O     O_R   0.681340 0.957860 0.676500 -0.506384
O38   O     O_R   0.318660 0.957860 0.323500 -0.520847
O39   O     O_R   0.181340 0.457860 0.676500 -0.508351
O40   O     O_R   0.818660 0.457860 0.323500 -0.518283
O41   O     O_R   0.787380 0.044010 0.830940 -0.536505
O42   O     O_R   0.212620 0.044010 0.169060 -0.536043
O43   O     O_R   0.287380 0.544010 0.830940 -0.535502
O44   O     O_R   0.712620 0.544010 0.169060 -0.537022
O45   O     O_R   0.765540 0.293390 0.823910 -0.504331
O46   O     O_R   0.234460 0.293390 0.176090 -0.525672
O47   O     O_R   0.265540 0.793390 0.823910 -0.523260
O48   O     O_R   0.734460 0.793390 0.176090 -0.505856
O49   O     O_R   0.670090 0.410410 0.829090 -0.521724
O50   O     O_R   0.329910 0.410410 0.170910 -0.523449
O51   O     O_R   0.170090 0.910410 0.829090 -0.525667
O52   O     O_R   0.829910 0.910410 0.170910 -0.518423
C101  C     C_3   0.693191 0.727740 0.590183 -0.238162
C102  C     C_3   0.612652 0.712031 0.583509 -0.280305
C103  C     C_3   0.577295 0.689547 0.655209 -0.425506
H45   H     H_    0.600606 0.608566 0.681904 0.179824
H46   H     H_    0.583623 0.770718 0.690207 0.177862
H47   H     H_    0.520057 0.672955 0.646857 0.123564
H48   H     H_    0.587614 0.793631 0.558969 0.167174
H49   H     H_    0.601624 0.633282 0.548182 0.138943
H50   H     H_    0.720023 0.642163 0.573701 0.136502
H51   H     H_    0.709137 0.740827 0.646578 0.158110
C104  C     C_3   0.378866 0.829094 0.428860 -0.238471
C105  C     C_3   0.427708 0.745221 0.472608 -0.330947
C106  C     C_3   0.488912 0.700111 0.426779 -0.450923
H52   H     H_    0.468864 0.648491 0.379945 0.154422
H53   H     H_    0.521244 0.778495 0.408282 0.158547
H54   H     H_    0.522895 0.638005 0.458236 0.130664
H55   H     H_    0.450142 0.796074 0.518648 0.159957
H56   H     H_    0.398194 0.664797 0.492513 0.164696
H57   H     H_    0.367274 0.779966 0.378314 0.163870
H58   H     H_    0.408346 0.913892 0.417847 0.203169
C107  C     C_3   0.193005 0.226518 0.589905 -0.237317
C108  C     C_3   0.113069 0.207077 0.579426 -0.281752
C109  C     C_3   0.074577 0.185404 0.649534 -0.428111
H59   H     H_    0.097595 0.106169 0.678199 0.180625
H60   H     H_    0.078281 0.267915 0.683873 0.172271
H61   H     H_    0.018000 0.166410 0.638618 0.123319
H62   H     H_    0.088104 0.286457 0.552733 0.161431
H63   H     H_    0.104581 0.127478 0.544053 0.143124
H64   H     H_    0.221697 0.141684 0.575270 0.138159
H65   H     H_    0.206017 0.241337 0.646890 0.157838
C110  C     C_3   0.878994 0.326692 0.428779 -0.237906
C111  C     C_3   0.926339 0.240404 0.472870 -0.334051
C112  C     C_3   0.985877 0.188008 0.427380 -0.453879
H66   H     H_    0.964192 0.140499 0.379814 0.157189
H67   H     H_    0.021921 0.262140 0.409990 0.154985
H68   H     H_    0.016343 0.120154 0.458782 0.132852
H69   H     H_    0.950437 0.290960 0.518166 0.157927
H70   H     H_    0.895092 0.163207 0.494112 0.162866
H71   H     H_    0.866756 0.278359 0.378142 0.165105
H72   H     H_    0.909793 0.410100 0.417674 0.199270
O53   O     O_3   0.450680 0.958655 0.912011 -0.549411
C113  C     C_3   0.391043 0.983934 0.869340 -0.086701
H73   H     H_    0.400399 0.059630 0.831064 0.103925
H74   H     H_    0.344260 0.005305 0.902757 0.132300
H75   H     H_    0.379545 0.901533 0.837183 0.169908
O54   O     O_3   0.451264 0.940791 0.054990 -0.535193
C114  C     C_3   0.513626 0.870375 0.059552 -0.092189
H76   H     H_    0.554863 0.917385 0.091864 0.118706
H77   H     H_    0.534571 0.847963 0.005836 0.141704
H78   H     H_    0.501148 0.782759 0.086440 0.119782
O55   O     O_3   0.048566 0.440532 0.944703 -0.535223
C115  C     C_3   0.986134 0.370702 0.939929 -0.092597
H79   H     H_    0.944964 0.418229 0.907701 0.118628
H80   H     H_    0.965134 0.348226 0.993579 0.142309
H81   H     H_    0.998539 0.283108 0.912838 0.118769
O56   O     O_3   0.049045 0.457926 0.087665 -0.548860
C116  C     C_3   0.108527 0.482558 0.130632 -0.085876
H82   H     H_    0.099021 0.557936 0.169166 0.104138
H83   H     H_    0.155410 0.504059 0.097467 0.132263
H84   H     H_    0.119935 0.399816 0.162517 0.169845

loop_
_geom_bond_atom_site_label_1
_geom_bond_atom_site_label_2
_ccdc_geom_bond_type
C8    H28   S    
C58   C62   A    
C14   H30   S    
Cr11  O35   S    
C93   C94   A    
C88   O16   A    
Cr1   O45   S    
C73   O37   A    
C34   C37   A    
C41   C42   A    
C14   C18   A    
Cr1   O17   S    
C95   C96   A    
C8    C96   S    
C87   O43   A    
Cr8   O52   S    
Cr3   O3    S    
Cr2   O2    S    
C114  H77   S    
C97   C98   A    
C7    C8    S    
Cr4   O20   S    
C46   C89   S    
Cr12  O16   S    
C56   H12   S    
C15   C19   A    
C60   C64   A    
Cr8   O8    S    
O55   C115  S    
O53   C113  S    
C106  H52   S    
C78   O46   A    
Cr11  O19   S    
C101  H51   S    
C64   C68   A    
C25   H37   S    
C42   H42   S    
C110  C111  S    
Cr4   O4    S    
C39   C84   S    
C38   C42   A    
C106  H54   S    
C55   C59   A    
Cr2   O42   S    
C2    O26   A    
C5    C6    S    
C30   C74   S    
Cr9   O17   S    
C98   H2    S    
Cr3   O23   S    
C29   C73   S    
C113  H74   S    
C102  H48   S    
Cr12  O12   S    
Cr7   O31   S    
C92   C96   A    
C46   O34   A    
C3    C18   S    
C110  H71   S    
C112  H66   S    
C47   C92   S    
Cr1   O41   S    
Cr5   O29   S    
C68   H20   S    
C9    C13   A    
Cr6   O26   S    
C6    H24   S    
C76   O40   A    
Cr5   O25   S    
C11   C15   A    
C12   C110  S    
Cr12  O40   S    
C22   H34   S    
C97   H1    S    
Cr9   O33   S    
O56   C116  S    
C6    C94   S    
C48   C91   S    
C100  H4    S    
Cr10  O38   S    
C51   H7    S    
C40   C44   A    
C108  H63   S    
C23   C27   A    
C91   C100  A    
Cr3   O47   S    
C116  H82   S    
C90   C97   A    
Cr7   O51   S    
C84   O8    A    
C9    C29   A    
C77   O49   A    
C74   O38   A    
C113  H75   S    
Cr6   O6    S    
C54   H10   S    
C114  H78   S    
C11   C31   A    
C11   C107  S    
Cr5   O17   S    
C12   C32   A    
C111  H70   S    
Cr9   O37   S    
Cr4   O44   S    
C40   C83   S    
C1    O21   A    
Cr2   O22   S    
C4    O24   A    
C115  H81   S    
C43   H43   S    
C59   C78   S    
C105  C106  S    
C72   C88   S    
Cr9   O13   S    
C10   C104  S    
C90   C94   A    
C41   H41   S    
Cr10  O18   S    
C25   C29   A    
C63   C67   A    
C60   C77   S    
C82   O10   A    
Cr8   O28   S    
C27   C31   A    
C44   H44   S    
C12   C16   A    
C26   H38   S    
Cr10  O14   S    
Cr6   O30   S    
C115  H80   S    
C15   H31   S    
C24   H36   S    
C16   H32   S    
C9    C101  S    
C104  C105  S    
C62   H14   S    
C5    H23   S    
C62   C66   A    
C39   C43   A    
O54   C114  S    
C82   O6    A    
C51   C55   A    
C64   H16   S    
C113  H73   S    
C83   O11   A    
C1    O25   A    
Cr10  O34   S    
C89   C93   A    
C17   C21   A    
C3    O23   A    
Cr7   O27   S    
C110  H72   S    
C112  H67   S    
C35   C36   A    
C21   H33   S    
C6    H26   S    
C19   C23   A    
C43   C44   A    
C78   O50   A    
Cr6   O50   S    
C107  C108  S    
C52   C72   A    
C35   O55   S    
C65   H17   S    
Cr12  O36   S    
C10   C30   A    
C31   C75   S    
C103  H45   S    
C8    H22   S    
C28   C32   A    
C16   C20   A    
C87   O15   A    
Cr3   O19   S    
C101  C102  S    
Cr6   O18   S    
C105  H56   S    
C108  H62   S    
C109  H60   S    
C48   O32   A    
Cr3   O43   S    
C4    O28   A    
C74   O2    A    
C57   C61   A    
C45   C90   S    
C116  H83   S    
C22   C26   A    
Cr9   O9    S    
C58   C79   S    
C86   O42   A    
C71   C87   S    
C4    C17   S    
C52   H8    S    
C45   O33   A    
Cr12  O20   S    
C57   C80   S    
C3    O27   A    
C26   C30   A    
C83   O7    A    
C79   O47   A    
C38   C81   S    
C10   C14   A    
C111  H69   S    
C104  H58   S    
C103  H46   S    
C37   C82   S    
Cr7   O19   S    
Cr11  O11   S    
C107  H64   S    
C114  H76   S    
C70   C86   S    
C55   H11   S    
Cr4   O48   S    
C69   C85   S    
C54   C58   A    
C75   O3    A    
C65   C69   A    
C21   C25   A    
C76   O4    A    
C1    C20   S    
C53   C57   A    
C80   O52   A    
C2    C19   S    
C50   H6    S    
C81   O5    A    
C13   H29   S    
Cr8   O32   S    
C36   C39   A    
C67   H19   S    
Cr4   O24   S    
C24   C28   A    
C27   H39   S    
C115  H79   S    
C77   O45   A    
C32   C76   S    
C7    H21   S    
C5    C93   S    
C51   C71   A    
C47   O35   A    
Cr5   O49   S    
C73   O1    A    
C68   C72   A    
Cr2   O18   S    
C7    C95   S    
C59   C63   A    
C33   C38   A    
C99   C100  A    
C13   C17   A    
C89   C98   A    
C34   O54   S    
C112  H68   S    
C101  H50   S    
C88   O44   A    
C28   H40   S    
C18   C22   A    
C35   C40   A    
Cr2   O46   S    
C5    H25   S    
C50   C54   A    
C53   H9    S    
C36   O56   S    
C7    H27   S    
Cr10  O10   S    
C45   O29   A    
C66   C70   A    
C23   H35   S    
C86   O14   A    
C49   C53   A    
C102  H49   S    
C33   O53   S    
C99   H3    S    
C111  C112  S    
C33   C34   A    
C105  H55   S    
C109  H61   S    
C67   C71   A    
C79   O51   A    
C61   C65   A    
C37   C41   A    
C108  C109  S    
C116  H84   S    
C85   O13   A    
C50   C70   A    
C48   O36   A    
Cr1   O21   S    
Cr1   O1    S    
C56   C60   A    
C61   H13   S    
C103  H47   S    
C84   O12   A    
C46   O30   A    
C91   C95   A    
C106  H53   S    
C102  C103  S    
Cr8   O20   S    
C49   H5    S    
C109  H59   S    
C81   O9    A    
C85   O41   A    
Cr5   O5    S    
C49   C69   A    
Cr7   O7    S    
C2    O22   A    
C104  H57   S    
C107  H65   S    
C80   O48   A    
C47   O31   A    
C20   C24   A    
C63   H15   S    
C52   C56   A    
C92   C99   A    
Cr11  O39   S    
C66   H18   S    
Cr11  O15   S    
C75   O39   A    
