data_mof_unit_65579.cif
_audit_creation_date              2012-12-10T19:26:39-0500
_audit_creation_method            fapswitch 2.2
_symmetry_space_group_name_H-M    P1
_symmetry_Int_Tables_number       1
_space_group_crystal_system       triclinic
_cell_length_a                    17.846234
_cell_length_b                    16.58852
_cell_length_c                    11.7108
_cell_angle_alpha                 90.000483
_cell_angle_beta                  93.366691
_cell_angle_gamma                 89.999913
_cell_volume                      3460.91240593

loop_
_atom_site_label
_atom_site_type_symbol
_atom_type_description
_atom_site_fract_x
_atom_site_fract_y
_atom_site_fract_z
_atom_type_partial_charge
C1    C     C_R   0.355725 0.500053 0.508949 0.908485
C2    C     C_R   0.644275 0.500052 0.491051 0.908486
C3    C     C_R   0.767773 0.574066 0.473762 0.225100
C4    C     C_R   0.232772 0.426810 0.535229 0.222853
C5    C     C_R   0.232227 0.574067 0.526241 0.225102
C6    C     C_R   0.767228 0.426810 0.464768 0.222854
C7    C     C_R   0.727037 0.500284 0.476537 -0.284677
C8    C     C_R   0.272963 0.500284 0.523463 -0.284677
C9    C     C_R   0.885448 0.499849 0.485189 -0.153648
C10   C     C_R   0.114552 0.499849 0.514810 -0.153648
C11   C     C_1   0.966240 0.499560 0.495636 0.176154
C12   C     C_1   0.033760 0.499560 0.504363 0.176154
C13   C     C_R   0.499846 0.499998 0.283774 0.850720
C14   C     C_R   0.500154 0.499998 0.716226 0.850721
C15   C     C_R   0.542547 0.829697 0.584601 0.000132
C16   C     C_R   0.451129 0.170258 0.423418 0.000088
C17   C     C_R   0.457453 0.829697 0.415402 0.000132
C18   C     C_R   0.548869 0.170260 0.576585 0.000088
C19   C     C_R   0.544080 0.743717 0.580250 0.408315
C20   C     C_R   0.452297 0.256347 0.424642 0.410783
C21   C     C_R   0.455920 0.743717 0.419751 0.408302
C22   C     C_R   0.547703 0.256348 0.575358 0.410766
C23   C     C_1   0.500000 0.962983 0.500001 -0.000635
C24   C     C_1   0.500000 0.036952 0.500002 -0.006838
C25   C     C_1   0.499895 0.499996 0.162214 -0.090653
C26   C     C_1   0.500105 0.499998 0.837786 -0.090653
C27   C     C_1   0.499956 0.499998 0.059833 0.052775
C28   C     C_1   0.500044 0.499999 0.940167 0.052775
C29   C     C_R   0.500000 0.873450 0.500001 0.016698
C30   C     C_R   0.499999 0.126472 0.500002 0.011007
C31   C     C_R   0.846559 0.573263 0.482944 0.241402
C32   C     C_R   0.153869 0.426991 0.528081 0.243434
C33   C     C_R   0.153441 0.573263 0.517058 0.241404
C34   C     C_R   0.846131 0.426991 0.471916 0.243436
Cu1   Cu    Cu3+1 0.500000 0.580420 0.500000 1.079772
Cu2   Cu    Cu3+1 0.500000 0.419580 0.500000 1.080771
N1    N     N_R   0.500000 0.701220 0.500000 -0.235126
N2    N     N_R   0.500000 0.298780 0.500000 -0.235035
O1    O     O_R   0.391260 0.567930 0.500000 -0.525940
O2    O     O_R   0.608740 0.432070 0.500000 -0.524913
O3    O     O_R   0.608740 0.567930 0.500000 -0.525941
O4    O     O_R   0.391260 0.432070 0.500000 -0.524914
O5    O     O_R   0.500010 0.567910 0.337200 -0.550982
O6    O     O_R   0.499990 0.432090 0.662800 -0.548564
O7    O     O_R   0.499990 0.567910 0.662800 -0.550980
O8    O     O_R   0.500010 0.432090 0.337200 -0.548561
C35   C     C_3   0.586990 0.874920 0.679007 -0.378149
C36   C     C_3   0.665063 0.896829 0.642324 -0.691740
H1    H     H_    0.697418 0.841513 0.624582 0.302402
H2    H     H_    0.660839 0.934725 0.564099 0.247318
H3    H     H_    0.695767 0.931020 0.711833 0.240245
H4    H     H_    0.556820 0.930258 0.702783 0.194467
H5    H     H_    0.591930 0.839752 0.759566 0.242828
C37   C     C_3   0.396462 0.125360 0.341499 -0.389250
C38   C     C_3   0.319892 0.116768 0.391852 -0.671555
H6    H     H_    0.325487 0.083772 0.474437 0.248039
H7    H     H_    0.294818 0.176820 0.406420 0.305059
H8    H     H_    0.281462 0.082607 0.331623 0.241023
H9    H     H_    0.390377 0.155645 0.257071 0.243491
H10   H     H_    0.417587 0.064668 0.321351 0.201099
C39   C     C_3   0.413007 0.874919 0.320999 -0.378147
C40   C     C_3   0.334942 0.896843 0.357696 -0.691765
H11   H     H_    0.302593 0.841534 0.375504 0.302405
H12   H     H_    0.339180 0.934775 0.435886 0.247307
H13   H     H_    0.304223 0.931003 0.288167 0.240257
H14   H     H_    0.443183 0.930251 0.297210 0.194467
H15   H     H_    0.408055 0.839747 0.240444 0.242837
C41   C     C_3   0.603532 0.125362 0.658511 -0.389229
C42   C     C_3   0.680101 0.116756 0.608160 -0.671570
H16   H     H_    0.674508 0.083716 0.525613 0.248019
H17   H     H_    0.705163 0.176803 0.593525 0.305055
H18   H     H_    0.718539 0.082636 0.668421 0.241039
H19   H     H_    0.609619 0.155655 0.742934 0.243490
H20   H     H_    0.582400 0.064676 0.678671 0.201090
Br1   Br    Br    0.612145 0.688244 0.688130 -0.432202
Br2   Br    Br    0.384743 0.312435 0.316690 -0.437381
Br3   Br    Br    0.387852 0.688243 0.311874 -0.432191
Br4   Br    Br    0.615260 0.312437 0.683305 -0.437370
Br5   Br    Br    0.901403 0.673535 0.492239 -0.302106
Br6   Br    Br    0.099201 0.326988 0.537568 -0.307905
Br7   Br    Br    0.098597 0.673536 0.507766 -0.302104
Br8   Br    Br    0.900799 0.326988 0.462426 -0.307901
Br9   Br    Br    0.719921 0.677133 0.441619 -0.378675
Br10  Br    Br    0.282073 0.326033 0.576529 -0.393174
Br11  Br    Br    0.280079 0.677133 0.558389 -0.378679
Br12  Br    Br    0.717926 0.326034 0.423464 -0.393168

loop_
_geom_bond_atom_site_label_1
_geom_bond_atom_site_label_2
_ccdc_geom_bond_type
C38   H6    S    
C1    C8    S    
C17   C29   A    
C6    C7    A    
C41   H20   S    
Cu2   O4    S    
C2    C7    S    
C15   C35   S    
C4    C8    A    
C37   H10   S    
C15   C19   A    
C23   C29   S    
Cu1   N1    S    
C3    C7    A    
C13   O8    A    
C2    O3    A    
C16   C30   A    
C22   N2    A    
C20   Br2   S    
C42   H17   S    
C40   H12   S    
C19   N1    A    
C17   C39   S    
C39   H14   S    
C36   H3    S    
Cu1   Cu2   S    
C41   C42   S    
C5    C33   A    
C23   C24   T    
Cu2   O8    S    
C18   C30   A    
Cu1   O5    S    
C35   H5    S    
C5    Br11  S    
C36   H2    S    
C13   C25   S    
C39   C40   S    
C15   C29   A    
C14   O7    A    
C16   C37   S    
C37   H9    S    
Cu2   O2    S    
C22   Br4   S    
C9    C31   A    
C41   H19   S    
C17   C21   A    
C6    C34   A    
C42   H18   S    
Cu1   O1    S    
C40   H11   S    
C10   C32   A    
C32   Br6   S    
C20   N2    A    
C39   H15   S    
C35   C36   S    
C4    Br10  S    
C16   C20   A    
C14   C26   S    
C3    C31   A    
C9    C11   S    
C4    C32   A    
C10   C12   S    
C36   H1    S    
C38   H7    S    
C3    Br9   S    
C9    C34   A    
Cu2   O6    S    
Cu1   O7    S    
C13   O5    A    
C14   O6    A    
C37   C38   S    
C40   H13   S    
C18   C22   A    
C5    C8    A    
C11   C12   T    
C31   Br5   S    
C35   H4    S    
C25   C27   T    
C26   C28   T    
C6    Br12  S    
Cu2   N2    S    
C33   Br7   S    
C19   Br1   S    
C10   C33   A    
C42   H16   S    
Cu1   O3    S    
C24   C30   S    
C1    O1    A    
C2    O2    A    
C1    O4    A    
C21   N1    A    
C38   H8    S    
C21   Br3   S    
C27   C28   S    
C34   Br8   S    
C18   C41   S    
