data_mof_unit_66533.cif
_audit_creation_date              2012-12-11T17:12:49-0500
_audit_creation_method            fapswitch 2.2
_symmetry_space_group_name_H-M    P1
_symmetry_Int_Tables_number       1
_space_group_crystal_system       triclinic
_cell_length_a                    17.19561
_cell_length_b                    6.874828
_cell_length_c                    14.532564
_cell_angle_alpha                 90.000103
_cell_angle_beta                  109.876582
_cell_angle_gamma                 89.99999
_cell_volume                      1615.64832738

loop_
_atom_site_label
_atom_site_type_symbol
_atom_type_description
_atom_site_fract_x
_atom_site_fract_y
_atom_site_fract_z
_atom_type_partial_charge
O1    O     O_R   0.314130 0.635770 0.168990 -0.533948
O2    O     O_R   0.685870 0.364230 0.831010 -0.548136
O3    O     O_R   0.185870 0.135770 0.331010 -0.533948
O4    O     O_R   0.814130 0.864230 0.668990 -0.548139
O5    O     O_R   0.146800 0.302460 0.139760 -0.543347
O6    O     O_R   0.853200 0.697540 0.860240 -0.534991
O7    O     O_R   0.353200 0.802460 0.360240 -0.543343
O8    O     O_R   0.646800 0.197540 0.639760 -0.534990
C1    C     C_R   0.113293 0.475852 0.113743 0.694758
C2    C     C_R   0.887201 0.524493 0.885357 0.693259
C3    C     C_R   0.386707 0.975852 0.386257 0.694754
C4    C     C_R   0.612799 0.024493 0.614643 0.693260
O9    O     O_R   0.311100 0.305780 0.157130 -0.557166
O10   O     O_R   0.688900 0.694220 0.842870 -0.540444
O11   O     O_R   0.188900 0.805780 0.342870 -0.557165
O12   O     O_R   0.811100 0.194220 0.657130 -0.540442
O13   O     O_R   0.351340 0.139640 0.348510 -0.533629
O14   O     O_R   0.648660 0.860360 0.651490 -0.539832
O15   O     O_R   0.148660 0.639640 0.151490 -0.533624
O16   O     O_R   0.851340 0.360360 0.848510 -0.539831
C5    C     C_R   0.334001 0.474301 0.137047 0.811978
C6    C     C_R   0.670882 0.524184 0.868171 0.811920
C7    C     C_R   0.165997 0.974301 0.362952 0.811987
C8    C     C_R   0.829119 0.024184 0.631829 0.811918
C9    C     C_1   0.532928 0.009094 0.533999 -0.196704
C10   C     C_1   0.466504 0.991361 0.466991 -0.187124
C11   C     C_1   0.967072 0.509095 0.966002 -0.196698
C12   C     C_1   0.033496 0.491361 0.033009 -0.187125
O17   O     O_3   0.263010 0.470920 0.312770 -0.374406
O18   O     O_3   0.736990 0.529080 0.687230 -0.371645
O19   O     O_3   0.236990 0.970920 0.187230 -0.374401
O20   O     O_3   0.763010 0.029080 0.812770 -0.371644
V1    V     V_3+5 0.247590 0.194450 0.238360 1.419238
V2    V     V_3+5 0.752410 0.805550 0.761640 1.415193
V3    V     V_3+5 0.252410 0.694450 0.261640 1.419241
V4    V     V_3+5 0.747590 0.305550 0.738360 1.415199
C13   C     C_R   0.115379 0.978745 0.427699 -0.330930
C14   C     C_R   0.877159 0.010211 0.564277 -0.310150
C15   C     C_R   0.384621 0.478741 0.072300 -0.330934
C16   C     C_R   0.622841 0.510211 0.935723 -0.310157
C17   C     C_R   0.889536 0.972159 0.402006 0.461738
C18   C     C_R   0.101313 0.990427 0.588961 0.477260
C19   C     C_R   0.610465 0.472165 0.097994 0.461744
C20   C     C_R   0.398688 0.490417 0.911039 0.477263
C21   C     C_R   0.839455 0.982794 0.461777 0.234605
C22   C     C_R   0.151778 0.992088 0.530778 0.264885
C23   C     C_R   0.660545 0.482797 0.038223 0.234602
C24   C     C_R   0.348222 0.492064 0.969221 0.264869
C25   C     C_R   0.963582 0.027457 0.604748 0.408192
C26   C     C_R   0.028844 0.952941 0.385721 0.421018
C27   C     C_R   0.536419 0.527450 0.895252 0.408221
C28   C     C_R   0.471156 0.452952 0.114280 0.421028
C29   C     C_R   0.014112 0.995887 0.546551 -0.254786
C30   C     C_R   0.977120 0.972783 0.444066 -0.221231
C31   C     C_R   0.485888 0.495884 0.953450 -0.254785
C32   C     C_R   0.522881 0.472788 0.055935 -0.221237
O21   O     O_3   0.994958 0.915348 0.286422 -0.535371
C33   C     C_3   0.992144 0.711708 0.271633 -0.207612
H1    H     H_    0.969252 0.631057 0.323801 0.110575
H2    H     H_    0.053517 0.653863 0.276886 0.144156
H3    H     H_    0.949551 0.680389 0.196546 0.146658
O22   O     O_3   0.997795 0.081190 0.702007 -0.542230
C34   C     C_3   0.006650 0.285676 0.706982 -0.191768
H4    H     H_    0.013791 0.332875 0.782324 0.131418
H5    H     H_    0.951655 0.363921 0.657096 0.111172
H6    H     H_    0.062841 0.330081 0.690924 0.150356
O23   O     O_3   0.505043 0.415376 0.213580 -0.535370
C35   C     C_3   0.507857 0.211738 0.228379 -0.207624
H7    H     H_    0.530725 0.131065 0.176199 0.110566
H8    H     H_    0.446490 0.153910 0.223158 0.144171
H9    H     H_    0.550467 0.180427 0.303456 0.146658
O24   O     O_3   0.502205 0.581170 0.797991 -0.542227
C36   C     C_3   0.493348 0.785655 0.793010 -0.191779
H10   H     H_    0.486207 0.832845 0.717666 0.131415
H11   H     H_    0.548342 0.863907 0.842894 0.111176
H12   H     H_    0.437156 0.830061 0.809065 0.150367
O25   O     O_3   0.235367 0.026567 0.579361 -0.578851
C37   C     C_3   0.288946 0.880493 0.566785 0.071575
H13   H     H_    0.349961 0.906396 0.623650 0.127099
H14   H     H_    0.299835 0.901532 0.497465 0.117508
C38   C     C_3   0.263784 0.669242 0.578176 -0.323639
H15   H     H_    0.260992 0.648700 0.652531 0.238055
H16   H     H_    0.202322 0.634883 0.523534 0.173587
C39   C     C_3   0.326622 0.526718 0.563506 -0.732789
H17   H     H_    0.334759 0.551689 0.492109 0.242933
H18   H     H_    0.304838 0.375325 0.564944 0.239231
H19   H     H_    0.387429 0.544808 0.622056 0.260702
O26   O     O_3   0.755184 0.006920 0.413478 -0.590376
C40   C     C_3   0.703660 0.872870 0.439563 0.047934
H20   H     H_    0.642289 0.879781 0.380652 0.148973
H21   H     H_    0.692939 0.923188 0.505547 0.115547
C41   C     C_3   0.731946 0.658811 0.450780 -0.349343
H22   H     H_    0.748539 0.612936 0.387194 0.199061
H23   H     H_    0.787046 0.639550 0.517506 0.187355
C42   C     C_3   0.662748 0.526286 0.457591 -0.703170
H24   H     H_    0.638127 0.578583 0.514431 0.239443
H25   H     H_    0.686474 0.375869 0.476010 0.223431
H26   H     H_    0.611146 0.524083 0.386586 0.259569
O27   O     O_3   0.264632 0.526516 0.920635 -0.578858
C43   C     C_3   0.211059 0.380435 0.933219 0.071595
H27   H     H_    0.150045 0.406306 0.876345 0.127129
H28   H     H_    0.200162 0.401498 0.002533 0.117498
C44   C     C_3   0.236235 0.169182 0.921853 -0.323618
H29   H     H_    0.239045 0.148614 0.847506 0.238006
H30   H     H_    0.297694 0.134844 0.976513 0.173588
C45   C     C_3   0.173392 0.026658 0.936514 -0.732797
H31   H     H_    0.165218 0.051680 0.007888 0.242926
H32   H     H_    0.195193 0.875271 0.935121 0.239222
H33   H     H_    0.112598 0.044693 0.877933 0.260716
O28   O     O_3   0.744816 0.506920 0.086522 -0.590376
C46   C     C_3   0.796339 0.372866 0.060438 0.047936
H34   H     H_    0.857710 0.379774 0.119349 0.148973
H35   H     H_    0.807061 0.423182 0.994454 0.115547
C47   C     C_3   0.768051 0.158808 0.049219 -0.349345
H36   H     H_    0.751457 0.112935 0.112805 0.199056
H37   H     H_    0.712951 0.139549 0.982493 0.187357
C48   C     C_3   0.837248 0.026279 0.042410 -0.703168
H38   H     H_    0.861871 0.078575 0.985571 0.239441
H39   H     H_    0.813520 0.875864 0.023989 0.223434
H40   H     H_    0.888849 0.024072 0.113416 0.259568
O29   O     O_3   0.853111 0.988955 0.301294 -0.540028
C49   C     C_3   0.805887 0.821852 0.261782 -0.121462
H41   H     H_    0.831453 0.685849 0.302213 0.095350
H42   H     H_    0.806303 0.801244 0.186695 0.189046
H43   H     H_    0.740452 0.843202 0.255815 0.180040
O30   O     O_3   0.139685 0.978941 0.689144 -0.529024
C50   C     C_3   0.136322 0.784389 0.719580 -0.182223
H44   H     H_    0.125211 0.673018 0.660567 0.071950
H45   H     H_    0.087463 0.769353 0.753026 0.163327
H46   H     H_    0.196427 0.749382 0.776093 0.206223
O31   O     O_3   0.646891 0.488960 0.198707 -0.540025
C51   C     C_3   0.694111 0.321851 0.238217 -0.121480
H47   H     H_    0.668539 0.185850 0.197788 0.095354
H48   H     H_    0.693699 0.301250 0.313306 0.189042
H49   H     H_    0.759545 0.343190 0.244180 0.180043
O32   O     O_3   0.360318 0.478944 0.810855 -0.529025
C52   C     C_3   0.363666 0.284390 0.780411 -0.182136
H50   H     H_    0.374839 0.173022 0.839434 0.071904
H51   H     H_    0.412475 0.269379 0.746890 0.163349
H52   H     H_    0.303535 0.249355 0.723957 0.206204

loop_
_geom_bond_atom_site_label_1
_geom_bond_atom_site_label_2
_ccdc_geom_bond_type
C2    C11   S    
C20   O32   S    
C16   C23   A    
C20   C24   A    
C31   C32   A    
C34   H5    S    
O1    C5    A    
O30   C50   S    
C36   H10   S    
C41   H23   S    
O3    C7    A    
C46   H34   S    
C37   C38   S    
C39   H19   S    
C47   H36   S    
C42   H26   S    
C14   C25   A    
C29   C30   A    
O7    C3    A    
C52   H51   S    
C26   C30   A    
O20   V4    S    
C39   H18   S    
C48   H39   S    
C18   C29   A    
C18   C22   A    
O4    C8    A    
C37   H14   S    
C45   H31   S    
O3    V1    S    
C33   H2    S    
O17   V1    S    
O8    V4    S    
C17   O29   S    
O28   C46   S    
C43   H27   S    
C14   C21   A    
C1    O15   A    
C42   H24   S    
C2    O16   A    
C51   H47   S    
O5    V1    S    
O2    C6    A    
C8    C14   S    
O19   V1    S    
C40   H21   S    
C13   C22   A    
O25   C37   S    
C33   H3    S    
O11   C7    A    
C15   C28   A    
C34   H6    S    
O12   C8    A    
C36   H11   S    
C46   C47   S    
O13   V1    S    
O11   V3    S    
C38   H16   S    
C38   H15   S    
C52   H52   S    
O4    V2    S    
O18   V2    S    
O23   C35   S    
C51   H49   S    
C21   O26   S    
C39   H17   S    
C44   H30   S    
C48   H40   S    
C37   H13   S    
C35   H7    S    
C3    C10   S    
C33   H1    S    
C7    C13   S    
C41   C42   S    
O6    V2    S    
O20   V2    S    
C50   H45   S    
O5    C1    A    
O22   C34   S    
O27   C43   S    
C5    C15   S    
O8    C4    A    
C6    C16   S    
C43   H28   S    
O9    C5    A    
C46   H35   S    
C40   C41   S    
O14   V2    S    
O29   C49   S    
C28   O23   S    
C35   H8    S    
C36   H12   S    
O19   V3    S    
C27   O24   S    
C49   H42   S    
O31   C51   S    
C23   O28   S    
C44   H29   S    
C38   C39   S    
O1    V3    S    
O2    V4    S    
C24   O27   S    
C3    O13   A    
C25   O22   S    
C26   O21   S    
O7    V3    S    
O24   C36   S    
O10   V2    S    
O6    C2    A    
C22   O25   S    
C47   H37   S    
C42   H25   S    
C16   C27   A    
C52   H50   S    
O17   V3    S    
O18   V4    S    
C4    C9    S    
O10   C6    A    
C49   H43   S    
C19   O31   S    
C9    C10   T    
C50   H46   S    
O15   V3    S    
C48   H38   S    
O12   V4    S    
C13   C26   A    
C20   C31   A    
O21   C33   S    
C45   H32   S    
C35   H9    S    
C25   C29   A    
C41   H22   S    
C44   C45   S    
C27   C31   A    
C43   C44   S    
C17   C30   A    
C47   C48   S    
C18   O30   S    
C34   H4    S    
O16   V4    S    
C28   C32   A    
C19   C32   A    
O26   C40   S    
C51   H48   S    
O9    V1    S    
C4    O14   A    
C11   C12   T    
C49   H41   S    
C17   C21   A    
O32   C52   S    
C40   H20   S    
C19   C23   A    
C50   H44   S    
C1    C12   S    
C15   C24   A    
C45   H33   S    
