data_mof_unit_22436.cif
_audit_creation_date              2012-12-10T17:35:50-0500
_audit_creation_method            fapswitch 2.2
_symmetry_space_group_name_H-M    P1
_symmetry_Int_Tables_number       1
_space_group_crystal_system       triclinic
_cell_length_a                    10.462966
_cell_length_b                    12.128518
_cell_length_c                    12.731639
_cell_angle_alpha                 95.475382
_cell_angle_beta                  91.844754
_cell_angle_gamma                 86.778772
_cell_volume                      1605.15045311

loop_
_atom_site_label
_atom_site_type_symbol
_atom_type_description
_atom_site_fract_x
_atom_site_fract_y
_atom_site_fract_z
_atom_type_partial_charge
C1    C     C_R   0.495337 0.523862 0.700173 0.911889
C2    C     C_R   0.637321 0.163001 0.552018 -0.045786
C3    C     C_R   0.570890 0.859043 0.523468 0.276483
C4    C     C_R   0.429106 0.141027 0.476230 0.277250
C5    C     C_R   0.560013 0.976175 0.516149 -0.026279
C6    C     C_R   0.439873 0.023811 0.483301 -0.029076
C7    C     C_R   0.741993 0.500211 0.499491 0.874103
C8    C     C_R   0.258003 0.499754 0.500556 0.875459
C9    C     C_3   0.964741 0.393966 0.491266 -0.195490
C10   C     C_3   0.035216 0.605750 0.508791 -0.192932
C11   C     C_3   0.046695 0.448703 0.581908 0.240448
C12   C     C_R   0.504815 0.476276 0.299766 0.909030
C13   C     C_3   0.953314 0.550911 0.418139 0.245772
C14   C     C_3   0.123106 0.499705 0.500904 -0.016307
C15   C     C_3   0.876892 0.500039 0.499194 -0.017069
C16   C     C_3   0.043174 0.445747 0.409232 -0.245300
C17   C     C_3   0.956829 0.553897 0.590910 -0.245759
C18   C     C_R   0.516919 0.460157 0.187613 -0.135444
C19   C     C_R   0.487827 0.542292 0.812469 -0.136884
C20   C     C_R   0.380004 0.614622 0.971380 0.513754
C21   C     C_R   0.644321 0.407289 0.034031 0.524994
C22   C     C_R   0.390944 0.612757 0.861634 0.059428
C23   C     C_R   0.573311 0.478148 0.869715 -0.298644
C24   C     C_R   0.619342 0.395222 0.140105 0.051369
C25   C     C_3   0.102543 0.388996 0.674134 -0.916690
C26   C     C_3   0.897288 0.609451 0.325252 -0.927489
C27   C     C_3   0.702008 0.316482 0.202224 -0.860585
C28   C     C_3   0.296280 0.679912 0.797528 -0.872939
C29   C     C_3   0.328510 0.792359 0.042080 0.048291
C30   C     C_3   0.396816 0.810515 0.150226 -0.350958
C31   C     C_3   0.429819 0.931305 0.175401 -0.943137
C32   C     C_3   0.862045 0.404036 0.012049 0.059498
C33   C     C_3   0.888134 0.487234 0.932870 -0.412668
C34   C     C_R   0.436453 0.528923 0.130889 -0.298399
C35   C     C_3   0.021133 0.532343 0.951248 -0.871084
C36   C     C_3   0.328224 0.189230 0.404147 -0.827217
C37   C     C_3   0.671838 0.811105 0.595691 -0.824912
C38   C     C_3   0.197259 0.990764 0.452848 -0.930377
C39   C     C_3   0.802759 0.008802 0.544409 -0.932802
C40   C     C_R   0.559800 0.475469 0.976750 -0.033266
C41   C     C_R   0.458106 0.539748 0.026436 -0.034815
C42   C     C_R   0.337126 0.951851 0.456755 0.135242
C43   C     C_R   0.662897 0.047975 0.542371 0.129690
C44   C     C_R   0.362763 0.836839 0.447685 -0.065420
H1    H     H_    0.932769 0.307734 0.484761 0.149169
H2    H     H_    0.166705 0.317635 0.644424 0.256057
H3    H     H_    0.157740 0.446710 0.728455 0.243506
H4    H     H_    0.976006 0.633722 0.277311 0.240213
H5    H     H_    0.835415 0.553143 0.275331 0.230909
H6    H     H_    0.839327 0.684893 0.354618 0.255607
H7    H     H_    0.776945 0.269502 0.154176 0.252739
H8    H     H_    0.750106 0.363206 0.270124 0.226276
H9    H     H_    0.641676 0.254211 0.231646 0.260547
H10   H     H_    0.216710 0.720072 0.845180 0.253175
H11   H     H_    0.346079 0.746063 0.763402 0.250547
H12   H     H_    0.067138 0.691997 0.515258 0.149327
H13   H     H_    0.252378 0.625552 0.732770 0.233599
H14   H     H_    0.241920 0.849704 0.041397 0.172594
H15   H     H_    0.390963 0.815620 0.979110 0.139038
H16   H     H_    0.333984 0.787097 0.212333 0.230955
H17   H     H_    0.486876 0.757486 0.151039 0.226553
H18   H     H_    0.492864 0.956597 0.114347 0.265579
H19   H     H_    0.481128 0.941271 0.253146 0.271236
H20   H     H_    0.341093 0.986178 0.178741 0.258407
H21   H     H_    0.941734 0.339390 0.009613 0.174178
H22   H     H_    0.863479 0.446300 0.093838 0.133062
H23   H     H_    0.082558 0.402509 0.335482 0.140155
H24   H     H_    0.880789 0.446248 0.851259 0.230303
H25   H     H_    0.815647 0.557819 0.940943 0.219163
H26   H     H_    0.030403 0.574887 0.032148 0.277021
H27   H     H_    0.036288 0.592867 0.893257 0.267390
H28   H     H_    0.096196 0.463975 0.940829 0.264343
H29   H     H_    0.361900 0.260304 0.368333 0.275265
H30   H     H_    0.308897 0.129868 0.334652 0.209032
H31   H     H_    0.239201 0.215156 0.446821 0.237689
H32   H     H_    0.638135 0.740139 0.631747 0.273580
H33   H     H_    0.760810 0.784999 0.552984 0.237424
H34   H     H_    0.917505 0.596969 0.664766 0.142459
H35   H     H_    0.691320 0.870860 0.664970 0.210853
H36   H     H_    0.177753 0.060955 0.513629 0.251178
H37   H     H_    0.167153 0.012600 0.372856 0.246460
H38   H     H_    0.135071 0.924401 0.471894 0.231754
H39   H     H_    0.820998 0.938619 0.483348 0.250216
H40   H     H_    0.864549 0.075097 0.524557 0.231973
H41   H     H_    0.834390 0.986632 0.623958 0.249218
H42   H     H_    0.358075 0.576597 0.170412 0.200341
H43   H     H_    0.646934 0.425814 0.828698 0.203494
H44   H     H_    0.713088 0.217741 0.576462 0.156077
H45   H     H_    0.287216 0.781966 0.422985 0.154105
H46   H     H_    0.023900 0.357771 0.717475 0.240128
N1    N     N_R   0.523490 0.207800 0.519350 -0.122912
N2    N     N_R   0.476510 0.792200 0.480650 -0.121561
O1    O     O_R   0.506270 0.421700 0.658830 -0.604112
O2    O     O_3   0.747420 0.349544 0.984462 -0.653677
O3    O     O_R   0.493730 0.578300 0.341170 -0.615026
O4    O     O_R   0.491200 0.609310 0.646410 -0.630471
O5    O     O_R   0.508800 0.390690 0.353590 -0.628850
O6    O     O_R   0.693580 0.406210 0.506230 -0.640133
O7    O     O_R   0.306420 0.593790 0.493770 -0.638259
O8    O     O_R   0.678510 0.593830 0.493810 -0.618078
O9    O     O_R   0.321490 0.406170 0.506190 -0.619986
O10   O     O_3   0.286948 0.682682 0.024073 -0.665288
Zn1   Zn    Zn3+2 0.510060 0.374730 0.508290 0.923861
Zn2   Zn    Zn3+2 0.489940 0.625270 0.491710 0.916627

loop_
_geom_bond_atom_site_label_1
_geom_bond_atom_site_label_2
_ccdc_geom_bond_type
C32   O2    S    
C4    C36   S    
C9    H1    S    
C7    O6    A    
C24   C27   S    
O1    Zn1   S    
C20   C41   A    
C28   H13   S    
O3    Zn2   S    
C37   H35   S    
C25   H46   S    
C18   C24   A    
C8    O7    A    
C39   H40   S    
C38   C42   S    
C26   H6    S    
C30   C31   S    
C11   C14   S    
C20   O10   S    
C21   O2    S    
C11   C25   S    
C10   C17   S    
C23   C40   A    
O8    Zn2   S    
C34   H42   S    
C29   H15   S    
C35   H26   S    
C30   H16   S    
C12   O3    A    
C2    H44   S    
C10   H12   S    
C8    O9    A    
C25   H3    S    
C44   N2    A    
C33   H25   S    
C4    N1    A    
C7    C15   S    
O7    Zn2   S    
C5    C43   A    
C35   H27   S    
O9    Zn1   S    
C23   H43   S    
C38   H38   S    
C31   H18   S    
C34   C41   A    
C42   C44   A    
C28   H11   S    
C27   H7    S    
C1    C19   S    
C7    O8    A    
C30   H17   S    
C31   H19   S    
C19   C22   A    
C4    C6    A    
C10   C14   S    
C26   H5    S    
C28   H10   S    
C39   C43   S    
C37   H33   S    
C3    N2    A    
C19   C23   A    
C29   C30   S    
C36   H31   S    
C18   C34   A    
C2    C43   A    
C16   H23   S    
C9    C11   S    
C12   O5    A    
O5    Zn1   S    
C36   H30   S    
C40   C41   A    
C37   H32   S    
C20   C22   A    
C35   H28   S    
C13   C15   S    
C38   H37   S    
C14   C16   S    
C13   C26   S    
C13   C16   S    
C39   H41   S    
C27   H8    S    
C32   H22   S    
C15   C17   S    
C11   C17   S    
C8    C14   S    
C31   H20   S    
C9    C16   S    
N1    Zn1   S    
C3    C5    A    
C10   C13   S    
C27   H9    S    
C26   H4    S    
C32   C33   S    
O4    Zn2   S    
C9    C15   S    
C39   H39   S    
C5    C6    A    
C21   C40   A    
C38   H36   S    
C1    O4    A    
C17   H34   S    
C33   C35   S    
C29   O10   S    
C2    N1    A    
C36   H29   S    
N2    Zn2   S    
C29   H14   S    
C3    C37   S    
C1    O1    A    
C6    C42   A    
C21   C24   A    
C12   C18   S    
C22   C28   S    
C25   H2    S    
C44   H45   S    
O6    Zn1   S    
C33   H24   S    
C32   H21   S    
