data_mof_unit_33775.cif
_audit_creation_date              2012-12-10T17:31:06-0500
_audit_creation_method            fapswitch 2.2
_symmetry_space_group_name_H-M    P1
_symmetry_Int_Tables_number       1
_space_group_crystal_system       triclinic
_cell_length_a                    12.04194
_cell_length_b                    12.783019
_cell_length_c                    15.42877
_cell_angle_alpha                 86.972294
_cell_angle_beta                  114.997652
_cell_angle_gamma                 93.856474
_cell_volume                      2146.85434986

loop_
_atom_site_label
_atom_site_type_symbol
_atom_type_description
_atom_site_fract_x
_atom_site_fract_y
_atom_site_fract_z
_atom_type_partial_charge
C1    C     C_R   0.474588 0.300046 0.493870 0.947884
C2    C     C_R   0.645848 0.966275 0.602086 -0.196197
C3    C     C_R   0.356166 0.141699 0.407191 0.400739
C4    C     C_R   0.643980 0.858673 0.592015 0.366283
C5    C     C_R   0.549848 0.130222 0.550123 -0.226335
C6    C     C_R   0.449889 0.869929 0.449447 -0.208703
C7    C     C_R   0.549152 0.024266 0.538177 0.123409
C8    C     C_R   0.450649 0.975949 0.461263 0.088919
C9    C     C_R   0.044182 0.635651 0.471496 0.357891
C10   C     C_R   0.953712 0.363734 0.525128 0.282189
C11   C     C_R   0.155668 0.617239 0.467467 -0.036718
C12   C     C_R   0.525321 0.700033 0.505876 0.944495
C13   C     C_R   0.843419 0.382511 0.530920 -0.005995
C14   C     C_R   0.134648 0.435919 0.498479 0.145711
C15   C     C_R   0.863563 0.563640 0.498689 0.153345
C16   C     C_R   0.574172 0.484539 0.679926 0.975977
C17   C     C_R   0.425770 0.514843 0.320029 0.987334
C18   C     C_R   0.021738 0.448773 0.504858 -0.153027
C19   C     C_R   0.976263 0.550686 0.491980 -0.100876
C20   C     C_R   0.615087 0.453844 0.782464 -0.295884
C21   C     C_R   0.382730 0.537691 0.216219 -0.277842
C22   C     C_R   0.762366 0.402563 0.942577 -0.154341
C23   C     C_R   0.607458 0.418123 0.105399 -0.167114
C24   C     C_R   0.228163 0.571578 0.054379 -0.135214
C25   C     C_R   0.737707 0.431499 0.847152 0.325182
C26   C     C_R   0.259393 0.559379 0.152969 0.408595
C27   C     C_R   0.524494 0.441944 0.817309 0.311276
C28   C     C_R   0.470426 0.538471 0.178423 0.232425
C29   C     C_R   0.560172 0.452294 0.914769 -0.024785
C30   C     C_R   0.429844 0.520247 0.081337 -0.018345
C31   C     C_R   0.674341 0.414637 0.978293 -0.061006
C32   C     C_R   0.314057 0.555923 0.017446 -0.093671
C33   C     C_R   0.480652 0.491187 0.949334 0.040773
C34   C     C_R   0.379815 0.549369 0.890021 -0.179709
C35   C     C_R   0.507583 0.478121 0.046459 0.065292
C36   C     C_R   0.693389 0.388541 0.073470 0.418222
C37   C     C_R   0.293168 0.578326 0.920969 0.449806
C38   C     C_R   0.544161 0.811265 0.514717 -0.158494
C39   C     C_R   0.455723 0.188924 0.484777 -0.162796
C40   C     C_R   0.354053 0.034028 0.397255 -0.177802
H1    H     H_    0.790987 0.317322 0.544404 0.196023
H2    H     H_    0.720383 0.004670 0.661152 0.175751
H3    H     H_    0.823771 0.639159 0.485445 0.222789
H4    H     H_    0.173848 0.360192 0.510944 0.230981
H5    H     H_    0.856793 0.353641 0.293133 0.365248
H6    H     H_    0.165490 0.776376 0.733388 0.417662
H7    H     H_    0.064769 0.918559 0.424028 0.424595
H8    H     H_    0.913943 0.159848 0.628502 0.360923
H9    H     H_    0.706725 0.480194 0.317561 0.336808
H10   H     H_    0.203020 0.417175 0.716888 0.404359
H11   H     H_    0.056920 0.513917 0.275118 0.379387
H12   H     H_    0.207660 0.682292 0.453157 0.217259
H13   H     H_    0.810022 0.275582 0.756687 0.342969
H14   H     H_    0.914165 0.897191 0.740854 0.380051
H15   H     H_    0.088672 0.182190 0.180399 0.431986
H16   H     H_    0.852119 0.376828 0.989118 0.243667
H17   H     H_    0.135420 0.588819 0.007146 0.252973
H18   H     H_    0.616676 0.392414 0.175768 0.179704
H19   H     H_    0.369206 0.574278 0.819041 0.221810
H20   H     H_    0.373713 0.831913 0.390867 0.203742
H21   H     H_    0.625933 0.168198 0.608836 0.163832
H22   H     H_    0.279406 0.995676 0.338226 0.223004
N1    N     N_R   0.799120 0.480200 0.517090 -0.139687
N2    N     N_R   0.200880 0.519800 0.482910 -0.136524
O1    O     O_R   0.580150 0.341050 0.504560 -0.651450
O2    O     O_2   0.933800 0.348828 0.159458 -0.261327
O3    O     O_3   0.810056 0.290892 0.257988 -0.482149
O4    O     O_2   0.089786 0.581767 0.758782 -0.239114
O5    O     O_2   0.100011 0.705160 0.879202 -0.205606
O6    O     O_3   0.235809 0.746442 0.788090 -0.515581
O7    O     O_2   0.873678 0.770562 0.367617 -0.170233
O8    O     O_2   0.983445 0.800420 0.539598 -0.266392
O9    O     O_3   0.097988 0.848105 0.432031 -0.538534
O10   O     O_2   0.008423 0.200056 0.451579 -0.178114
O11   O     O_2   0.123132 0.224440 0.623393 -0.224008
O12   O     O_R   0.419850 0.658950 0.495440 -0.642922
O13   O     O_3   0.897760 0.149851 0.560881 -0.514185
O14   O     O_2   0.630946 0.682375 0.157746 -0.169896
O15   O     O_2   0.607911 0.684843 0.307057 -0.252415
O16   O     O_3   0.733256 0.538766 0.285112 -0.557834
O17   O     O_2   0.399082 0.298578 0.682798 -0.260924
O18   O     O_2   0.358391 0.294941 0.825104 -0.236598
O19   O     O_3   0.269203 0.444634 0.698552 -0.566906
O20   O     O_2   0.198707 0.681236 0.260192 -0.307591
O21   O     O_2   0.031657 0.622464 0.110660 -0.225688
O22   O     O_3   0.114926 0.488008 0.251877 -0.445211
O23   O     O_R   0.388090 0.353760 0.493600 -0.561013
O24   O     O_2   0.876002 0.538273 0.773125 -0.109274
O25   O     O_2   0.978724 0.406425 0.896787 -0.275559
O26   O     O_3   0.829204 0.342010 0.728643 -0.561165
O27   O     O_2   0.698883 0.708263 0.728281 -0.265766
O28   O     O_2   0.828276 0.727907 0.641151 -0.226323
O29   O     O_3   0.858241 0.865151 0.768087 -0.461151
O30   O     O_2   0.170146 0.269997 0.357719 -0.216524
O31   O     O_2   0.301849 0.293920 0.272286 -0.322519
O32   O     O_3   0.144500 0.134777 0.230364 -0.485866
O33   O     O_R   0.611910 0.646240 0.506400 -0.566298
O34   O     O_R   0.650890 0.490020 0.640860 -0.525989
O35   O     O_R   0.349110 0.509980 0.359140 -0.527885
O36   O     O_R   0.458830 0.502730 0.629890 -0.565092
O37   O     O_R   0.541170 0.497270 0.370110 -0.629657
O38   O     O_2   0.786778 0.199790 0.104665 -0.195324
S1    S     S_3+6 0.810043 0.305525 0.148945 0.088872
S2    S     S_3+6 0.241593 0.214527 0.316075 0.101118
S3    S     S_3+6 0.172983 0.652971 0.836815 0.102233
S4    S     S_3+6 0.995803 0.766145 0.452539 0.086096
S5    S     S_3+6 0.999590 0.232479 0.540535 0.081761
S6    S     S_3+6 0.612089 0.614549 0.233497 0.092614
S7    S     S_3+6 0.386043 0.365581 0.754787 0.068118
S8    S     S_3+6 0.147953 0.591162 0.193400 0.098859
S9    S     S_3+6 0.860640 0.431449 0.812920 0.102224
S10   S     S_3+6 0.758853 0.785977 0.682938 0.115530
Zn1   Zn    Zn3+2 0.628240 0.491510 0.507320 1.078412
Zn2   Zn    Zn3+2 0.371760 0.508490 0.492680 1.102039

loop_
_geom_bond_atom_site_label_1
_geom_bond_atom_site_label_2
_ccdc_geom_bond_type
C3    S2    S    
C1    O23   A    
C23   H18   S    
C21   C26   A    
O11   S5    D    
C27   C29   A    
C34   C37   A    
O37   Zn1   S    
C14   C18   A    
C2    C7    A    
O35   Zn2   S    
C13   H1    S    
C25   S9    S    
O3    S1    S    
C7    C8    A    
C15   C19   A    
C30   C35   A    
C36   S1    S    
O22   S8    S    
C24   C26   A    
C20   C25   A    
C29   C33   A    
C40   H22   S    
O27   S10   D    
O14   S6    D    
C18   C19   A    
C17   O37   A    
O23   Zn2   S    
C11   H12   S    
O10   S5    D    
O24   S9    D    
C9    C19   A    
C24   H17   S    
H14   O29   S    
C22   C25   A    
H5    O3    S    
O12   Zn2   S    
O19   S7    S    
C26   S8    S    
C4    S10   S    
O30   S2    D    
C10   S5    S    
O26   S9    S    
H11   O22   S    
H10   O19   S    
C10   C18   A    
N2    Zn2   S    
C22   C31   A    
O18   S7    D    
C6    H20   S    
O13   S5    S    
O36   Zn2   S    
H7    O9    S    
C11   N2    A    
C5    C7    A    
O5    S3    D    
C16   O36   A    
O34   Zn1   S    
C6    C8    A    
C9    S4    S    
O6    S3    S    
O20   S8    D    
H8    O13   S    
C2    C4    A    
C24   C32   A    
C37   S3    S    
C17   O35   A    
C1    O1    A    
C13   N1    A    
C16   C20   S    
C14   N2    A    
C6    C38   A    
C33   C34   A    
C5    H21   S    
C32   C37   A    
C9    C11   A    
C12   O33   A    
C21   C28   A    
O8    S4    D    
C3    C40   A    
O21   S8    D    
C23   C35   A    
C5    C39   A    
C12   O12   A    
C34   H19   S    
O4    S3    D    
O33   Zn1   S    
O31   S2    D    
C14   H4    S    
O16   S6    S    
O1    Zn1   S    
O2    S1    D    
O28   S10   D    
O17   S7    D    
H15   O32   S    
C10   C13   A    
C22   H16   S    
C20   C27   A    
O25   S9    D    
H9    O16   S    
O32   S2    S    
C15   H3    S    
C29   C31   A    
C30   C32   A    
C16   O34   A    
O9    S4    S    
C2    H2    S    
C28   C30   A    
C33   C35   A    
O15   S6    D    
C12   C38   S    
O38   S1    D    
C28   S6    S    
C17   C21   S    
H6    O6    S    
C1    C39   S    
O29   S10   S    
C3    C39   A    
N1    Zn1   S    
C27   S7    S    
C23   C36   A    
O7    S4    D    
H13   O26   S    
C15   N1    A    
C31   C36   A    
C8    C40   A    
C4    C38   A    
