data_mof_unit_65723.cif
_audit_creation_date              2012-10-26T19:58:50-0400
_audit_creation_method            fapswitch 2.2
_symmetry_space_group_name_H-M    P1
_symmetry_Int_Tables_number       1
_space_group_crystal_system       triclinic
_cell_length_a                    14.339758
_cell_length_b                    11.051901
_cell_length_c                    9.900613
_cell_angle_alpha                 111.405956
_cell_angle_beta                  97.899327
_cell_angle_gamma                 91.104543
_cell_volume                      1442.85822005

loop_
_atom_site_label
_atom_site_type_symbol
_atom_type_description
_atom_site_fract_x
_atom_site_fract_y
_atom_site_fract_z
_atom_type_partial_charge
C1    C     C_R   0.493691 0.254129 0.440534 0.561752
C2    C     C_1   0.957234 0.499975 0.499507 0.011163
C3    C     C_2   0.490134 0.114473 0.407278 -0.117501
C4    C     C_2   0.509866 0.885527 0.592722 -0.117501
C5    C     C_2   0.501795 0.069637 0.516190 -0.143352
C6    C     C_2   0.498204 0.930363 0.483810 -0.143352
C7    C     C_2   0.509947 0.510881 0.080483 0.059014
C8    C     C_2   0.490053 0.489119 0.919517 0.059014
C9    C     C_1   0.415552 0.393107 0.826375 0.261433
C10   C     C_1   0.584448 0.606893 0.173625 0.261433
C11   C     C_R   0.506309 0.745871 0.559466 0.561751
C12   C     C_R   0.331246 0.499913 0.500606 0.550622
C13   C     C_R   0.668754 0.500087 0.499394 0.550622
C14   C     C_1   0.228992 0.500061 0.501662 -0.019602
C15   C     C_1   0.771008 0.499939 0.498338 -0.019602
C16   C     C_1   0.143535 0.500070 0.501453 -0.026038
C17   C     C_1   0.856465 0.499930 0.498547 -0.026038
C18   C     C_1   0.042766 0.500025 0.500492 0.011163
Cu1   Cu    Cu3+1 0.515060 0.521810 0.644910 0.967420
Cu2   Cu    Cu3+1 0.484940 0.478190 0.355090 0.967420
H1    H     H_    0.590605 0.622835 0.929606 0.210940
H2    H     H_    0.409395 0.377165 0.070393 0.210940
H3    H     H_    0.485845 0.864086 0.369509 0.166698
H4    H     H_    0.514155 0.135914 0.630491 0.166698
H5    H     H_    0.522085 0.952129 0.706828 0.107981
H6    H     H_    0.477915 0.047871 0.293172 0.107981
N1    N     N_2   0.462290 0.445430 0.137370 -0.362407
N2    N     N_2   0.537710 0.554570 0.862630 -0.362407
N3    N     N_1   0.355666 0.316030 0.752831 -0.312641
N4    N     N_1   0.644334 0.683970 0.247168 -0.312641
O1    O     O_R   0.508040 0.332330 0.577400 -0.482559
O2    O     O_R   0.491960 0.667670 0.422600 -0.482559
O3    O     O_R   0.482600 0.295500 0.332650 -0.490052
O4    O     O_R   0.517400 0.704500 0.667350 -0.490052
O5    O     O_R   0.388780 0.518420 0.622400 -0.464068
O6    O     O_R   0.611220 0.481580 0.377600 -0.464068
O7    O     O_R   0.363340 0.481590 0.377660 -0.478802
O8    O     O_R   0.636660 0.518410 0.622340 -0.478802

loop_
_geom_bond_atom_site_label_1
_geom_bond_atom_site_label_2
_ccdc_geom_bond_type
C7    C10   S    
C2    C17   S    
Cu1   N2    S    
Cu1   O8    S    
C2    C18   T    
C10   N4    T    
Cu1   Cu2   S    
C11   O4    A    
C9    N3    T    
Cu1   O1    S    
C4    H5    S    
C1    O3    A    
C7    C8    S    
Cu1   O5    S    
C4    C11   S    
Cu2   O7    S    
C13   O8    A    
C5    H4    S    
C6    H3    S    
C4    C6    D    
Cu2   N1    S    
H1    N2    S    
C12   C14   S    
C11   O2    A    
H2    N1    S    
C13   C15   S    
C5    C6    S    
C8    N2    D    
C14   C16   T    
Cu2   O3    S    
Cu2   O6    S    
C3    C5    D    
C1    O1    A    
C7    N1    D    
C13   O6    A    
C16   C18   S    
Cu2   O2    S    
C12   O7    A    
C15   C17   T    
C1    C3    S    
C3    H6    S    
C8    C9    S    
C12   O5    A    
Cu1   O4    S    
