data_mof_unit_46207.cif
_audit_creation_date              2013-03-05T15:50:09-0500
_audit_creation_method            fapswitch 2.2
_symmetry_space_group_name_H-M    P1
_symmetry_Int_Tables_number       1
_space_group_crystal_system       triclinic
_cell_length_a                    18.311109
_cell_length_b                    25.835518
_cell_length_c                    18.298113
_cell_angle_alpha                 89.911482
_cell_angle_beta                  90.000049
_cell_angle_gamma                 90.013091
_cell_volume                      8656.40559407

loop_
_atom_site_label
_atom_site_type_symbol
_atom_site_description
_atom_site_fract_x
_atom_site_fract_y
_atom_site_fract_z
_atom_type_partial_charge
Zn1   Zn    Zn3+2 0.249990 0.293780 0.913250 0.974560
Zn2   Zn    Zn3+2 0.249990 0.706220 0.086750 1.018817
Zn3   Zn    Zn3+2 0.249990 0.706220 0.913250 1.013918
Zn4   Zn    Zn3+2 0.249990 0.293780 0.086750 1.024263
Zn5   Zn    Zn3+2 0.749990 0.793780 0.413250 0.981957
Zn6   Zn    Zn3+2 0.749990 0.206220 0.586750 0.997891
Zn7   Zn    Zn3+2 0.749990 0.206220 0.413250 0.996181
Zn8   Zn    Zn3+2 0.749990 0.793780 0.586750 1.042306
Zn9   Zn    Zn3+2 0.336760 0.206240 0.000000 1.016881
Zn10  Zn    Zn3+2 0.336760 0.793760 0.000000 1.029719
Zn11  Zn    Zn3+2 0.836760 0.706240 0.500000 1.020458
Zn12  Zn    Zn3+2 0.836760 0.293760 0.500000 1.043227
Zn13  Zn    Zn3+2 0.163250 0.206230 0.000000 1.051699
Zn14  Zn    Zn3+2 0.163250 0.793770 0.000000 1.016033
Zn15  Zn    Zn3+2 0.663250 0.706230 0.500000 1.035488
Zn16  Zn    Zn3+2 0.663250 0.293770 0.500000 1.028635
O1    O     O_3   0.249990 0.250010 0.000000 -0.506946
O2    O     O_3   0.249990 0.749990 0.000000 -0.508629
O3    O     O_3   0.749990 0.750010 0.500000 -0.507999
O4    O     O_3   0.749990 0.249990 0.500000 -0.507513
O5    O     O_R   0.335430 0.280650 0.146160 -0.610198
O6    O     O_R   0.335430 0.719350 0.853840 -0.635973
O7    O     O_R   0.335430 0.719350 0.146160 -0.636524
O8    O     O_R   0.335430 0.280650 0.853840 -0.639989
O9    O     O_R   0.835430 0.780650 0.646160 -0.610964
O10   O     O_R   0.835430 0.219350 0.353840 -0.636919
O11   O     O_R   0.835430 0.219350 0.646160 -0.634298
O12   O     O_R   0.835430 0.780650 0.353840 -0.636134
O13   O     O_R   0.164550 0.280640 0.853840 -0.646811
O14   O     O_R   0.164550 0.719360 0.146160 -0.626546
O15   O     O_R   0.164550 0.719360 0.853840 -0.628331
O16   O     O_R   0.164550 0.280640 0.146160 -0.639516
O17   O     O_R   0.664550 0.780640 0.353840 -0.661710
O18   O     O_R   0.664550 0.219360 0.646160 -0.638550
O19   O     O_R   0.664550 0.219360 0.353840 -0.626957
O20   O     O_R   0.664550 0.780640 0.646160 -0.641846
O21   O     O_R   0.396160 0.219380 0.914560 -0.623858
O22   O     O_R   0.396160 0.780620 0.085440 -0.622859
O23   O     O_R   0.396160 0.780620 0.914560 -0.586711
O24   O     O_R   0.396160 0.219380 0.085440 -0.642560
O25   O     O_R   0.896160 0.719380 0.414560 -0.623562
O26   O     O_R   0.896160 0.280620 0.585440 -0.613885
O27   O     O_R   0.896160 0.280620 0.414560 -0.585932
O28   O     O_R   0.896160 0.719380 0.585440 -0.623893
O29   O     O_R   0.103840 0.219370 0.085450 -0.586168
O30   O     O_R   0.103840 0.780630 0.914550 -0.619966
O31   O     O_R   0.103840 0.780630 0.085450 -0.640072
O32   O     O_R   0.103840 0.219370 0.914550 -0.611223
O33   O     O_R   0.603840 0.719370 0.585450 -0.584157
O34   O     O_R   0.603840 0.280630 0.414550 -0.633350
O35   O     O_R   0.603840 0.280630 0.585450 -0.621688
O36   O     O_R   0.603840 0.719370 0.414550 -0.607939
O37   O     O_R   0.310730 0.133160 0.000000 -0.624023
O38   O     O_R   0.310730 0.866840 0.000000 -0.628544
O39   O     O_R   0.810730 0.633160 0.500000 -0.643183
O40   O     O_R   0.810730 0.366840 0.500000 -0.631221
O41   O     O_R   0.249970 0.366860 0.060720 -0.637353
O42   O     O_R   0.249970 0.633140 0.939280 -0.684257
O43   O     O_R   0.249970 0.633140 0.060720 -0.610731
O44   O     O_R   0.249970 0.366860 0.939280 -0.680291
O45   O     O_R   0.749970 0.866860 0.560720 -0.641653
O46   O     O_R   0.749970 0.133140 0.439280 -0.678883
O47   O     O_R   0.749970 0.133140 0.560720 -0.637751
O48   O     O_R   0.749970 0.866860 0.439280 -0.662870
O49   O     O_R   0.189290 0.133150 0.000000 -0.626030
O50   O     O_R   0.189290 0.866850 0.000000 -0.636689
O51   O     O_R   0.689290 0.633150 0.500000 -0.623400
O52   O     O_R   0.689290 0.366850 0.500000 -0.615933
C1    C     C_R   0.389384 0.249503 0.140241 0.925183
C2    C     C_R   0.389112 0.750848 0.859425 0.940301
C3    C     C_R   0.390190 0.749612 0.139459 0.914648
C4    C     C_R   0.389551 0.249700 0.859871 0.921346
C5    C     C_R   0.889210 0.749385 0.640455 0.938645
C6    C     C_R   0.889279 0.250649 0.359578 0.937867
C7    C     C_R   0.890278 0.249558 0.639405 0.916550
C8    C     C_R   0.889855 0.749975 0.360118 0.924323
C9    C     C_R   0.109915 0.250346 0.860427 0.921193
C10   C     C_R   0.109512 0.749233 0.139080 0.919905
C11   C     C_R   0.110536 0.750320 0.859880 0.929264
C12   C     C_R   0.110707 0.249396 0.140292 0.940316
C13   C     C_R   0.609745 0.750445 0.360565 0.907776
C14   C     C_R   0.610416 0.250234 0.640057 0.920144
C15   C     C_R   0.610682 0.250507 0.359683 0.922882
C16   C     C_R   0.610711 0.749394 0.640298 0.937952
C17   C     C_R   0.250032 0.109359 0.000223 0.812365
C18   C     C_R   0.249983 0.890639 0.000064 0.792219
C19   C     C_R   0.750061 0.609360 0.500222 0.793953
C20   C     C_R   0.749988 0.390638 0.500031 0.810390
C21   C     C_R   0.248051 0.391323 0.000036 0.876691
C22   C     C_R   0.248182 0.608669 0.000146 0.900995
C23   C     C_R   0.749239 0.891402 0.499980 0.906274
C24   C     C_R   0.748009 0.108731 0.500235 0.860693
C25   C     C_3   0.192739 0.469814 0.940963 0.279398
C26   C     C_3   0.325465 0.530278 0.986188 0.276877
C27   C     C_3   0.194250 0.530266 0.939756 0.283324
C28   C     C_3   0.325083 0.469921 0.983292 0.285894
C29   C     C_3   0.685756 0.969927 0.449497 0.267669
C30   C     C_3   0.825769 0.030784 0.482623 0.257939
C31   C     C_3   0.691718 0.030125 0.443276 0.297815
C32   C     C_3   0.822477 0.970980 0.470543 0.296753
H1    H     H_    0.213121 0.456309 0.886517 0.022725
H2    H     H_    0.342569 0.544999 0.931162 0.002156
H3    H     H_    0.217790 0.542447 0.885907 0.019108
H4    H     H_    0.338638 0.458593 0.925786 0.001972
H5    H     H_    0.694558 0.954092 0.393243 0.030756
H6    H     H_    0.844826 0.048424 0.430061 0.015623
H7    H     H_    0.714929 0.039531 0.388182 0.011031
H8    H     H_    0.823118 0.963209 0.410369 0.003414
H9    H     H_    0.208539 0.904547 0.869160 0.194288
H10   H     H_    0.211032 0.095847 0.869117 0.144158
H11   H     H_    0.711270 0.404570 0.368338 0.192562
H12   H     H_    0.717226 0.595873 0.367473 0.130057
H13   H     H_    0.167407 0.454699 0.090604 0.210360
H14   H     H_    0.254615 0.544423 0.120831 0.231889
H15   H     H_    0.163266 0.543006 0.086607 0.224337
H16   H     H_    0.260620 0.457039 0.119565 0.234576
H17   H     H_    0.685845 0.952330 0.603652 0.209418
H18   H     H_    0.758771 0.046724 0.621652 0.227821
H19   H     H_    0.667316 0.039397 0.589170 0.220377
H20   H     H_    0.782449 0.960384 0.614251 0.236756
C33   C     C_3   0.222292 0.470128 0.076092 -0.347805
C34   C     C_3   0.219940 0.529613 0.075505 -0.340292
C35   C     C_3   0.735134 0.970377 0.578736 -0.346147
C36   C     C_3   0.725226 0.029462 0.577228 -0.341316
C37   C     C_3   0.246937 0.449150 0.000196 -0.114276
C38   C     C_3   0.246798 0.550821 0.000452 -0.126379
C39   C     C_3   0.748283 0.949328 0.499959 -0.124832
C40   C     C_3   0.747530 0.051034 0.500822 -0.109461
C41   C     C_R   0.138089 0.203818 0.723812 -0.184159
C42   C     C_R   0.117973 0.820110 0.255616 -0.153045
C43   C     C_R   0.980615 0.693721 0.882023 -0.189368
C44   C     C_R   0.014723 0.334376 0.151534 -0.155273
C45   C     C_R   0.637934 0.703879 0.223894 -0.175211
C46   C     C_R   0.493385 0.179324 0.631730 -0.156611
C47   C     C_R   0.479482 0.195749 0.383162 -0.177961
C48   C     C_R   0.514122 0.834122 0.650726 -0.159378
C49   C     C_R   0.154484 0.180762 0.657494 -0.163159
C50   C     C_R   0.125523 0.854433 0.313249 -0.175523
C51   C     C_R   0.918422 0.664441 0.894444 -0.185196
C52   C     C_R   0.969499 0.377224 0.155528 -0.142530
C53   C     C_R   0.653955 0.680375 0.157781 -0.165229
C54   C     C_R   0.437045 0.143736 0.625682 -0.175290
C55   C     C_R   0.416657 0.167309 0.396268 -0.190718
C56   C     C_R   0.468520 0.876794 0.654256 -0.145116
C57   C     C_R   0.601731 0.678177 0.103318 -0.214394
C58   C     C_R   0.382484 0.142109 0.677946 -0.238248
C59   C     C_R   0.362757 0.164427 0.343505 -0.233879
C60   C     C_R   0.415518 0.879638 0.707857 -0.192367
C61   C     C_R   0.102947 0.179703 0.602311 -0.210472
C62   C     C_R   0.075791 0.853787 0.370125 -0.247569
C63   C     C_R   0.864536 0.661611 0.841672 -0.237605
C64   C     C_R   0.916480 0.379981 0.209101 -0.191199
C65   C     C_R   0.532171 0.700025 0.113710 0.457998
C66   C     C_R   0.383210 0.176274 0.737731 0.461014
C67   C     C_R   0.370427 0.190494 0.276367 0.448170
C68   C     C_R   0.406656 0.839390 0.758954 0.464031
C69   C     C_R   0.033571 0.201932 0.612390 0.444673
C70   C     C_R   0.016425 0.819188 0.369733 0.449417
C71   C     C_R   0.871536 0.688642 0.775238 0.446121
C72   C     C_R   0.907210 0.339469 0.259705 0.463550
C73   C     C_R   0.515209 0.725611 0.181266 0.036409
C74   C     C_R   0.441149 0.213403 0.744785 0.036557
C75   C     C_R   0.434423 0.221009 0.262509 0.037329
C76   C     C_R   0.452701 0.794403 0.755367 0.031538
C77   C     C_R   0.015873 0.226371 0.680633 0.041299
C78   C     C_R   0.006544 0.784576 0.309479 0.040746
C79   C     C_R   0.934924 0.719926 0.762073 0.042001
C80   C     C_R   0.953075 0.294388 0.255844 0.031568
C81   C     C_R   0.069254 0.227263 0.736587 -0.010646
C82   C     C_R   0.059089 0.784460 0.252821 -0.015525
C83   C     C_R   0.990278 0.721699 0.816027 -0.015072
C84   C     C_R   0.007983 0.292539 0.201450 -0.014395
C85   C     C_R   0.568917 0.727063 0.236888 -0.007989
C86   C     C_R   0.496736 0.214556 0.690990 -0.019357
C87   C     C_R   0.489756 0.222859 0.316474 -0.013888
C88   C     C_R   0.507610 0.792470 0.700968 -0.013330
C89   C     C_R   0.446604 0.749398 0.195327 -0.111992
C90   C     C_R   0.445586 0.249209 0.803546 -0.112115
C91   C     C_R   0.445587 0.248897 0.196376 -0.114183
C92   C     C_R   0.445519 0.751246 0.803382 -0.125550
C93   C     C_R   0.946825 0.249403 0.695199 -0.118374
C94   C     C_R   0.946516 0.749881 0.304309 -0.114165
C95   C     C_R   0.945240 0.749011 0.696885 -0.123022
C96   C     C_R   0.945516 0.250983 0.303382 -0.124190
C97   C     C_R   0.431308 0.774110 0.262791 -0.015264
C98   C     C_R   0.503965 0.285060 0.809406 -0.011687
C99   C     C_R   0.511254 0.276285 0.182568 -0.009931
C100  C     C_R   0.492562 0.707707 0.798615 -0.001226
C101  C     C_R   0.931376 0.273649 0.763012 -0.017255
C102  C     C_R   0.940546 0.713869 0.246236 -0.013517
C103  C     C_R   0.009729 0.778089 0.684501 -0.021655
C104  C     C_R   0.991688 0.207002 0.297632 -0.001589
C105  C     C_R   0.985146 0.275428 0.818491 -0.036029
C106  C     C_R   0.994655 0.712142 0.191017 -0.036504
C107  C     C_R   0.065928 0.778902 0.737461 -0.044593
C108  C     C_R   0.047161 0.205387 0.243854 -0.034860
C109  C     C_R   0.484497 0.774984 0.318887 -0.036257
C110  C     C_R   0.558959 0.286862 0.755138 -0.035551
C111  C     C_R   0.566840 0.277952 0.236221 -0.047355
C112  C     C_R   0.547797 0.705874 0.744653 -0.034309
C113  C     C_R   0.053531 0.251116 0.804562 -0.113164
C114  C     C_R   0.053026 0.748548 0.194742 -0.101899
C115  C     C_R   0.054801 0.750680 0.803414 -0.111150
C116  C     C_R   0.054648 0.248879 0.196428 -0.115143
C117  C     C_R   0.553173 0.750983 0.304833 -0.103067
C118  C     C_R   0.554664 0.250782 0.696528 -0.102788
C119  C     C_R   0.554890 0.250976 0.303160 -0.107813
C120  C     C_R   0.554605 0.748953 0.696390 -0.114450
C121  C     C_R   0.363308 0.798744 0.274531 -0.216753
C122  C     C_R   0.508193 0.319215 0.869517 -0.217714
C123  C     C_R   0.522035 0.302273 0.115307 -0.211339
C124  C     C_R   0.485813 0.666047 0.848402 -0.229300
C125  C     C_R   0.862763 0.297121 0.775630 -0.221948
C126  C     C_R   0.881084 0.679013 0.243092 -0.218559
C127  C     C_R   0.018568 0.806710 0.619323 -0.193330
C128  C     C_R   0.983753 0.164591 0.346052 -0.229743
C129  C     C_R   0.347370 0.823165 0.339851 -0.298575
C130  C     C_R   0.563514 0.355498 0.875237 -0.309664
C131  C     C_R   0.586202 0.328522 0.100373 -0.313233
C132  C     C_R   0.531588 0.623500 0.845319 -0.318676
C133  C     C_R   0.846993 0.321567 0.840985 -0.297283
C134  C     C_R   0.875545 0.642447 0.188182 -0.303160
C135  C     C_R   0.082035 0.833922 0.604750 -0.294519
C136  C     C_R   0.028296 0.121464 0.341381 -0.317787
C137  C     C_R   0.899289 0.324634 0.896300 0.405455
C138  C     C_R   0.928779 0.639123 0.133723 0.411416
C139  C     C_R   0.139061 0.834621 0.655277 0.460052
C140  C     C_R   0.083391 0.118760 0.289023 0.415546
C141  C     C_R   0.398486 0.824376 0.396394 0.408764
C142  C     C_R   0.617462 0.359153 0.821592 0.413355
C143  C     C_R   0.641835 0.331104 0.152351 0.460622
C144  C     C_R   0.586123 0.620385 0.792389 0.417628
C145  C     C_R   0.969031 0.302204 0.885488 0.404517
C146  C     C_R   0.988498 0.674033 0.134130 0.422456
C147  C     C_R   0.130981 0.808301 0.722788 0.441560
C148  C     C_R   0.093409 0.160393 0.239756 0.420459
C149  C     C_R   0.467422 0.800470 0.386653 0.408029
C150  C     C_R   0.616387 0.324616 0.761527 0.429280
C151  C     C_R   0.632184 0.306899 0.221232 0.443875
C152  C     C_R   0.594518 0.661108 0.741302 0.420237
H21   H     H_    0.180404 0.202840 0.764964 0.150895
H22   H     H_    0.159279 0.821931 0.213401 0.108664
H23   H     H_    0.021204 0.693809 0.924944 0.150901
H24   H     H_    0.054729 0.334577 0.108097 0.137532
H25   H     H_    0.680717 0.703409 0.264645 0.115525
H26   H     H_    0.534276 0.178749 0.589044 0.118879
H27   H     H_    0.520032 0.195825 0.426164 0.121843
H28   H     H_    0.554303 0.834332 0.607448 0.135378
H29   H     H_    0.207549 0.163289 0.649000 0.158888
H30   H     H_    0.170766 0.881415 0.314150 0.143910
H31   H     H_    0.912281 0.643354 0.945178 0.207427
H32   H     H_    0.975672 0.408578 0.116666 0.182662
H33   H     H_    0.707166 0.663222 0.148989 0.158984
H34   H     H_    0.435760 0.117111 0.580065 0.156419
H35   H     H_    0.410060 0.146883 0.447537 0.153624
H36   H     H_    0.474480 0.907985 0.615097 0.176736
H37   H     H_    0.615477 0.658896 0.052625 0.133969
H38   H     H_    0.339187 0.113872 0.671791 0.143696
H39   H     H_    0.314658 0.141376 0.354924 0.144131
H40   H     H_    0.380780 0.913551 0.709458 0.153515
H41   H     H_    0.117135 0.161119 0.551224 0.134601
H42   H     H_    0.083772 0.880439 0.415017 0.113154
H43   H     H_    0.816915 0.637947 0.852594 0.150059
H44   H     H_    0.881927 0.413984 0.210955 0.156118
H45   H     H_    0.321180 0.799852 0.233103 0.135404
H46   H     H_    0.468621 0.318321 0.913310 0.124263
H47   H     H_    0.481158 0.302385 0.072614 0.135387
H48   H     H_    0.445320 0.665893 0.891280 0.147651
H49   H     H_    0.819966 0.297127 0.734942 0.171339
H50   H     H_    0.837976 0.679155 0.283555 0.129123
H51   H     H_    0.976274 0.808151 0.578373 0.168735
H52   H     H_    0.943142 0.164045 0.388890 0.146975
H53   H     H_    0.793514 0.338627 0.848232 0.197576
H54   H     H_    0.829381 0.616213 0.188514 0.162968
H55   H     H_    0.086789 0.854612 0.553483 0.136653
H56   H     H_    0.020089 0.089875 0.379258 0.134745
H57   H     H_    0.294580 0.841477 0.346230 0.148158
H58   H     H_    0.564127 0.381153 0.921944 0.132513
H59   H     H_    0.592411 0.347149 0.047700 0.144386
H60   H     H_    0.524698 0.592735 0.884873 0.134423
C153  C     C_R   0.289655 0.053668 0.129431 -0.150842
C154  C     C_R   0.287935 0.945916 0.129893 -0.150888
C155  C     C_R   0.786929 0.553642 0.630194 -0.155820
C156  C     C_R   0.785820 0.445904 0.630413 -0.139519
C157  C     C_R   0.307664 0.026621 0.192865 -0.094018
C158  C     C_R   0.306705 0.972829 0.193128 -0.136559
C159  C     C_R   0.803688 0.526586 0.693971 -0.096175
C160  C     C_R   0.803065 0.472789 0.694101 -0.102307
C161  C     C_R   0.269703 0.972681 0.064662 0.075310
C162  C     C_R   0.270201 0.027099 0.064540 0.059715
C163  C     C_R   0.768505 0.472678 0.564963 0.070135
C164  C     C_R   0.768841 0.527089 0.564915 0.061742
C165  C     C_R   0.249778 0.946287 0.000157 -0.099315
C166  C     C_R   0.250118 0.053706 0.000122 -0.106715
C167  C     C_R   0.749852 0.446288 0.500086 -0.104229
C168  C     C_R   0.750336 0.553707 0.500043 -0.095632
C169  C     C_R   0.229294 0.972949 0.935863 -0.016445
C170  C     C_R   0.229619 0.027247 0.935781 0.037582
C171  C     C_R   0.731261 0.472962 0.435233 -0.017363
C172  C     C_R   0.732094 0.527260 0.435033 0.035945
C173  C     C_R   0.209203 0.946392 0.871312 -0.266338
C174  C     C_R   0.210352 0.053999 0.870979 -0.317757
C175  C     C_R   0.712770 0.446412 0.370214 -0.268650
C176  C     C_R   0.715759 0.554020 0.369447 -0.317930
C177  C     C_R   0.189495 0.972847 0.807756 0.480809
C178  C     C_R   0.190100 0.027330 0.807198 0.380010
C179  C     C_R   0.696048 0.472863 0.305793 0.477982
C180  C     C_R   0.697842 0.527346 0.304960 0.387611
H61   H     H_    0.290768 0.095470 0.132035 0.154376
H62   H     H_    0.287351 0.904084 0.132988 0.111165
H63   H     H_    0.788081 0.595438 0.632744 0.156921
H64   H     H_    0.785908 0.404080 0.633210 0.122900
H65   H     H_    0.322123 0.047520 0.242034 0.140210
H66   H     H_    0.320360 0.951835 0.242531 0.131955
H67   H     H_    0.817090 0.547475 0.743446 0.144997
H68   H     H_    0.815930 0.451771 0.743696 0.153370
O53   O     O_3   0.121059 0.451570 0.956985 -0.552693
C181  C     C_3   0.089367 0.427148 0.895774 -0.215577
H69   H     H_    0.118288 0.390466 0.882949 0.187776
H70   H     H_    0.089042 0.453019 0.847193 0.136592
H71   H     H_    0.031816 0.417485 0.908903 0.201217
O54   O     O_3   0.372008 0.547878 0.043343 -0.532785
C182  C     C_3   0.438878 0.566016 0.015244 -0.191995
H72   H     H_    0.429956 0.601695 0.982672 0.125087
H73   H     H_    0.466591 0.535931 0.981869 0.138816
H74   H     H_    0.475335 0.575939 0.061566 0.201250
O55   O     O_3   0.122906 0.550511 0.951733 -0.544654
C183  C     C_3   0.094002 0.572502 0.887315 -0.237966
H75   H     H_    0.095600 0.544832 0.840883 0.143358
H76   H     H_    0.123641 0.608622 0.872848 0.170690
H77   H     H_    0.036033 0.582680 0.897217 0.192411
O56   O     O_3   0.375326 0.449680 0.035464 -0.529106
C184  C     C_3   0.428650 0.418564 0.001564 -0.278111
H78   H     H_    0.460169 0.441010 0.960346 0.145682
H79   H     H_    0.403120 0.384050 0.976004 0.130647
H80   H     H_    0.467514 0.404853 0.043822 0.192275
O57   O     O_3   0.616905 0.955710 0.479708 -0.559690
C185  C     C_3   0.576363 0.925053 0.430574 -0.248828
H81   H     H_    0.604967 0.888022 0.419024 0.182382
H82   H     H_    0.565336 0.946278 0.378866 0.151837
H83   H     H_    0.522987 0.915688 0.456005 0.206813
O58   O     O_3   0.873215 0.041834 0.542373 -0.540013
C186  C     C_3   0.922100 0.082379 0.525969 -0.215980
H84   H     H_    0.893869 0.117003 0.503649 0.138466
H85   H     H_    0.964681 0.068951 0.487537 0.126660
H86   H     H_    0.949869 0.094152 0.577175 0.212290
O59   O     O_3   0.622332 0.053549 0.454916 -0.558913
C187  C     C_3   0.590601 0.069036 0.388121 -0.263854
H87   H     H_    0.588330 0.036552 0.348370 0.148527
H88   H     H_    0.620964 0.102326 0.364382 0.174927
H89   H     H_    0.533782 0.081825 0.398708 0.184336
O60   O     O_3   0.881951 0.945937 0.505712 -0.543100
C188  C     C_3   0.944174 0.946675 0.460094 -0.238941
H90   H     H_    0.956931 0.986114 0.439591 0.145661
H91   H     H_    0.936405 0.920331 0.412807 0.167534
H92   H     H_    0.991972 0.933326 0.492186 0.168345
O61   O     O_3   0.022058 0.306859 0.939021 -0.809479
H93   H     H_    0.003961 0.327384 0.980833 0.369269
O62   O     O_3   0.041166 0.671210 0.079966 -0.803581
H94   H     H_    0.030995 0.642366 0.045959 0.374890
O63   O     O_3   0.185831 0.810965 0.774593 -0.771300
H95   H     H_    0.224348 0.835285 0.758827 0.398963
O64   O     O_3   0.148628 0.157824 0.188372 -0.787357
H96   H     H_    0.168313 0.122262 0.184906 0.366724
O65   O     O_3   0.518570 0.802139 0.442275 -0.814383
H97   H     H_    0.498107 0.818640 0.486464 0.365201
O66   O     O_3   0.670461 0.327459 0.708777 -0.808443
H98   H     H_    0.706407 0.354724 0.720738 0.357631
O67   O     O_3   0.685579 0.311461 0.274288 -0.771015
H99   H     H_    0.724721 0.335018 0.257758 0.400721
O68   O     O_3   0.648570 0.657843 0.688797 -0.785703
H100  H     H_    0.667658 0.622108 0.685537 0.367147
O69   O     O_3   0.170948 0.053601 0.744240 -0.792433
H101  H     H_    0.173530 0.091339 0.753464 0.330723
O70   O     O_3   0.170017 0.943814 0.747542 -0.745259
H102  H     H_    0.157324 0.967017 0.706366 0.383729
O71   O     O_3   0.682190 0.553621 0.241046 -0.794134
H103  H     H_    0.686370 0.591337 0.249897 0.331007
O72   O     O_3   0.678539 0.443827 0.244961 -0.745398
H104  H     H_    0.667829 0.467038 0.203231 0.383323
O73   O     O_3   0.883600 0.349498 0.961316 -0.782312
H105  H     H_    0.832811 0.362815 0.959858 0.343173
O74   O     O_3   0.923697 0.601985 0.079642 -0.801284
H106  H     H_    0.878897 0.581071 0.087266 0.341689
O75   O     O_3   0.203282 0.860636 0.639883 -0.756034
H107  H     H_    0.199841 0.876738 0.590756 0.333280
O76   O     O_3   0.128977 0.076146 0.285595 -0.804021
H108  H     H_    0.114722 0.050803 0.323797 0.331753
O77   O     O_3   0.382555 0.849062 0.461488 -0.794766
H109  H     H_    0.332452 0.863565 0.459198 0.338211
O78   O     O_3   0.671743 0.396201 0.826641 -0.816348
H110  H     H_    0.664353 0.417034 0.871537 0.331636
O79   O     O_3   0.706265 0.356876 0.137018 -0.754749
H111  H     H_    0.703986 0.371439 0.086878 0.334729
O80   O     O_3   0.632767 0.578311 0.790148 -0.796076
H112  H     H_    0.619584 0.553586 0.829525 0.337967
O81   O     O_3   0.480899 0.695891 0.058597 -0.803847
H113  H     H_    0.503159 0.679208 0.015234 0.309645
O82   O     O_3   0.327905 0.173332 0.789009 -0.812951
H114  H     H_    0.293739 0.145009 0.776084 0.308422
O83   O     O_3   0.316427 0.185458 0.224157 -0.790819
H115  H     H_    0.277886 0.161896 0.242543 0.345348
O84   O     O_3   0.353446 0.844102 0.812000 -0.784595
H116  H     H_    0.330846 0.878934 0.809315 0.326275
O85   O     O_3   0.983396 0.199614 0.556075 -0.818296
H117  H     H_    0.005853 0.183107 0.512651 0.311680
O86   O     O_3   0.968998 0.818418 0.428339 -0.805590
H118  H     H_    0.985809 0.843247 0.465742 0.313907
O87   O     O_3   0.817304 0.684042 0.723190 -0.793705
H119  H     H_    0.779030 0.660120 0.741205 0.345981
O88   O     O_3   0.853560 0.343931 0.312338 -0.784426
H120  H     H_    0.831088 0.378804 0.309860 0.326657

loop_
_geom_bond_atom_site_label_1
_geom_bond_atom_site_label_2
_geom_bond_distance
_ccdc_geom_bond_type
C60   H40   1.083269 S    
O61   H93   0.988787 S    
C25   O53   1.424829 S    
C110  C118  1.424177 A    
C32   C39   1.564314 S    
C54   C58   1.383600 A    
C163  C164  1.405755 A    
C87   C119  1.417227 A    
O57   C185  1.410191 S    
C56   C60   1.381857 A    
C21   C37   1.494150 S    
C184  H78   1.112099 S    
C43   C83   1.417510 A    
O26   C7    1.276002 A    
C23   C39   1.496646 S    
C166  C170  1.413010 A    
O30   C11   1.277269 A    
C107  C115  1.423644 A    
C133  C137  1.395690 A    
C105  C113  1.424203 A    
C170  C174  1.416241 A    
Zn12  O26   1.934167 S    
C161  C165  1.411965 A    
C126  C134  1.383885 A    
C109  C149  1.439277 A    
C132  H60   1.081526 S    
C133  H53   1.082223 S    
C108  C116  1.425247 A    
C59   C67   1.407082 A    
C52   C64   1.381597 A    
C53   C57   1.382387 A    
C29   H5    1.119925 S    
H17   C35   1.113082 S    
C112  C120  1.425151 A    
C29   O57   1.424474 S    
C106  C146  1.438303 A    
O11   C7    1.277650 A    
C136  C140  1.393118 A    
C61   H41   1.083198 S    
C188  H91   1.110820 S    
C31   O59   1.423591 S    
O34   C15   1.277403 A    
C77   C81   1.415737 A    
H16   C33   1.113088 S    
C57   H37   1.083235 S    
C182  H72   1.109050 S    
Zn1   O44   1.947925 S    
C25   H1    1.120148 S    
O58   C186  1.409685 S    
C167  C171  1.413005 A    
C124  C132  1.383702 A    
C65   O81   1.382071 S    
Zn5   O48   1.947925 S    
C65   C73   1.436708 A    
Zn6   O47   1.947924 S    
C134  H54   1.083366 S    
Zn15  O3    1.949674 S    
C128  C136  1.383727 A    
Zn7   O46   1.946497 S    
O16   C12   1.278699 A    
C180  O71   1.381424 S    
C49   H29   1.082827 S    
C58   C66   1.406773 A    
C173  C177  1.395524 A    
Zn16  O4    1.950095 S    
O60   C188  1.412527 S    
Zn12  O4    1.949974 S    
Zn1   O13   1.935347 S    
C22   C38   1.494752 S    
H18   C36   1.112643 S    
C26   C28   1.560364 S    
C70   O86   1.380043 S    
Zn4   O16   1.934760 S    
C99   C123  1.414887 A    
C28   O56   1.424753 S    
C28   H4    1.120477 S    
O77   H109  0.991964 S    
C97   C121  1.415063 A    
C141  C149  1.416799 A    
O76   H108  0.991944 S    
C42   C50   1.385788 A    
Zn6   O4    1.947542 S    
C27   O55   1.424384 S    
C184  H80   1.108632 S    
C46   C86   1.418152 A    
C181  H71   1.109190 S    
Zn16  O34   1.935180 S    
O70   H102  0.989810 S    
C31   C40   1.564125 S    
C149  O65   1.383847 S    
C155  C164  1.417583 A    
O79   H111  0.991963 S    
C174  C178  1.405939 A    
C30   H6    1.119396 S    
Zn10  O22   1.934167 S    
C121  C129  1.383552 A    
C88   C120  1.418536 A    
C140  O76   1.383273 S    
C53   H33   1.082600 S    
O65   H97   0.988469 S    
O25   C8    1.275974 A    
Zn13  O29   1.935267 S    
C100  C124  1.414414 A    
Zn10  O2    1.949974 S    
C158  H66   1.082788 S    
C138  O74   1.382556 S    
H12   C176  1.082179 S    
C71   C79   1.434394 A    
O29   C12   1.275517 A    
C72   C80   1.437866 A    
C82   C114  1.416176 A    
C90   C98   1.418446 A    
C41   C49   1.385570 A    
C26   H2    1.120403 S    
O62   H94   0.989260 S    
C86   C118  1.418181 A    
C154  H62   1.082179 S    
O37   C17   1.270089 A    
C94   C102  1.417658 A    
O48   C23   1.279862 A    
C97   C109  1.415192 A    
O87   H119  0.990442 S    
O85   H117  0.991672 S    
C45   C85   1.418876 A    
C46   H26   1.082120 S    
C48   C88   1.419261 A    
C78   C94   1.421410 A    
Zn16  O35   1.934332 S    
C4    C90   1.454392 S    
C75   C87   1.415651 A    
O83   H115  0.990429 S    
C35   C36   1.537472 S    
C177  O70   1.380666 S    
Zn15  O33   1.935267 S    
Zn7   O10   1.934716 S    
O33   C16   1.275589 A    
C5    C95   1.455632 S    
C135  C139  1.394829 A    
O40   C20   1.270998 A    
C6    C96   1.455277 S    
C100  C112  1.414336 A    
O82   H114  0.991526 S    
C126  H50   1.082271 S    
C159  H67   1.082803 S    
C187  H87   1.112183 S    
C15   C119  1.453792 S    
C44   H24   1.080925 S    
Zn5   O17   1.935347 S    
C110  C150  1.439009 A    
C47   C55   1.385587 A    
C25   C27   1.562172 S    
C55   H35   1.082413 S    
C83   C115  1.417332 A    
C93   C101  1.419370 A    
C111  C119  1.425187 A    
C27   H3    1.120153 S    
C32   H8    1.119592 S    
Zn8   O3    1.950388 S    
C32   O60   1.420496 S    
C47   H27   1.081892 S    
C164  C168  1.412208 A    
O56   C184  1.409369 S    
C69   C77   1.437187 A    
O38   C18   1.271088 A    
C67   C75   1.434575 A    
C26   O54   1.424121 S    
C187  H89   1.108840 S    
O5    C1    1.279036 A    
C182  H73   1.111849 S    
C63   C71   1.406835 A    
O32   C9    1.277160 A    
C33   C37   1.558343 S    
C16   C120  1.452237 S    
C35   C39   1.560136 S    
C168  C172  1.412764 A    
Zn15  O51   1.947444 S    
C123  H47   1.081920 S    
C161  C162  1.405935 A    
Zn11  O28   1.934927 S    
C124  H48   1.079513 S    
C101  C125  1.414334 A    
Zn2   O43   1.947924 S    
C78   C82   1.414410 A    
C185  H82   1.111371 S    
C186  H85   1.106226 S    
C75   C91   1.422151 A    
C58   H38   1.083227 S    
C69   O85   1.381928 S    
C14   C118  1.452641 S    
O8    C4    1.278173 A    
C137  O73   1.383079 S    
C162  C166  1.412368 A    
C66   C74   1.436064 A    
C131  C143  1.395348 A    
C183  H75   1.111598 S    
C50   H30   1.082732 S    
C9    C113  1.453008 S    
O50   C18   1.269861 A    
C111  C151  1.437072 A    
C185  H83   1.109006 S    
C123  C131  1.383538 A    
Zn1   O1    1.947543 S    
C19   C168  1.437845 S    
C138  C146  1.417330 A    
C67   O83   1.381180 S    
Zn2   O14   1.935474 S    
C20   C167  1.437756 S    
O81   H113  0.991282 S    
C42   H22   1.082054 S    
C27   C38   1.562997 S    
C171  C175  1.415278 A    
C51   C63   1.382603 A    
O9    C5    1.278173 A    
C143  O79   1.383106 S    
C59   H39   1.083245 S    
O36   C13   1.276528 A    
C73   C89   1.422250 A    
C103  C107  1.413712 A    
C74   C90   1.421793 A    
C43   C51   1.385582 A    
C101  C105  1.414978 A    
C176  C180  1.406174 A    
O13   C9    1.275650 A    
Zn1   O8    1.935431 S    
C122  H46   1.080589 S    
Zn2   O7    1.935304 S    
C169  C173  1.415496 A    
Zn3   O6    1.934716 S    
O18   C14   1.277266 A    
O31   C10   1.276456 A    
O6    C2    1.280143 A    
Zn4   O41   1.946498 S    
C45   H25   1.081604 S    
C178  O69   1.381477 S    
C179  O72   1.380941 S    
C109  C117  1.425786 A    
C52   H32   1.082969 S    
C188  H90   1.110052 S    
C30   O58   1.425654 S    
C95   C103  1.417480 A    
O72   H104  0.989809 S    
Zn14  O30   1.935180 S    
C121  H45   1.081891 S    
C56   H36   1.083007 S    
Zn11  O3    1.950395 S    
O41   C21   1.277307 A    
C104  C108  1.414939 A    
C71   O87   1.381144 S    
C153  H61   1.081294 S    
C155  H63   1.081091 S    
C91   C99   1.417535 A    
O68   H100  0.989126 S    
C106  C114  1.425297 A    
C89   C97   1.418614 A    
C146  O62   1.384893 S    
C48   H28   1.080952 S    
Zn8   O20   1.934760 S    
C84   C116  1.418337 A    
C130  C142  1.395702 A    
C92   C100  1.419762 A    
C103  C127  1.411576 A    
C125  C133  1.383768 A    
O66   H98   0.988732 S    
O64   H96   0.989140 S    
C96   C104  1.420485 A    
C72   O88   1.380702 S    
C76   C92   1.424523 A    
H20   C35   1.113187 S    
C63   H43   1.083267 S    
C153  C162  1.417856 A    
C36   C40   1.558697 S    
C64   H44   1.083304 S    
C30   C40   1.561397 S    
O54   C182  1.407932 S    
Zn8   O9    1.934840 S    
C107  C147  1.437655 A    
C183  H77   1.108582 S    
C105  C145  1.439173 A    
C184  H79   1.110622 S    
C153  C157  1.393519 A    
C136  H56   1.080380 S    
H9    C173  1.081930 S    
C155  C159  1.393640 A    
C179  C180  1.408029 A    
O7    C3    1.277135 A    
C156  C160  1.393787 A    
O59   C187  1.410720 S    
O19   C15   1.277712 A    
C68   O84   1.380850 S    
C108  C148  1.440412 A    
H19   C36   1.112829 S    
Zn9   O24   1.934927 S    
Zn6   O18   1.935474 S    
C99   C111  1.414843 A    
Zn10  O23   1.935017 S    
C145  O61   1.384591 S    
C171  C172  1.402906 A    
C112  C152  1.440095 A    
C157  C158  1.389867 A    
C141  O77   1.383117 S    
C46   C54   1.386289 A    
C73   C85   1.415812 A    
C159  C160  1.389911 A    
O14   C10   1.275990 A    
C187  H88   1.111818 S    
Zn15  O36   1.934419 S    
O15   C11   1.277057 A    
C18   C165  1.437702 S    
C33   C34   1.537465 S    
C62   H42   1.082579 S    
Zn4   O1    1.950388 S    
C30   C32   1.562294 S    
C98   C122  1.413296 A    
Zn9   O37   1.947191 S    
O12   C8    1.278478 A    
C188  H92   1.108743 S    
Zn11  O39   1.947191 S    
C70   C78   1.432104 A    
O75   H107  0.991942 S    
C62   C70   1.407250 A    
C150  O66   1.384635 S    
C54   H34   1.082684 S    
C79   C83   1.415719 A    
O80   H112  0.991955 S    
Zn5   O3    1.947543 S    
Zn13  O1    1.949674 S    
C44   C52   1.384623 A    
C31   H7    1.120357 S    
C45   C53   1.385863 A    
C137  C145  1.416509 A    
O55   C183  1.410823 S    
C48   C56   1.384739 A    
C1    C91   1.454089 S    
C2    C92   1.455506 S    
C12   C116  1.452224 S    
C41   H21   1.080724 S    
C42   C82   1.418887 A    
C76   C88   1.415775 A    
C165  C169  1.413112 A    
O28   C5    1.277876 A    
C25   C37   1.563033 S    
C129  H57   1.082712 S    
C81   C113  1.418524 A    
Zn3   O42   1.946497 S    
C80   C84   1.415627 A    
Zn7   O4    1.950389 S    
O21   C4    1.275663 A    
O88   H120  0.991534 S    
C134  C138  1.396732 A    
C142  O78   1.382912 S    
C98   C110  1.414956 A    
C85   C117  1.418868 A    
C60   C68   1.406664 A    
C61   C69   1.406521 A    
C172  C176  1.416061 A    
C186  H84   1.110555 S    
C64   C72   1.406645 A    
Zn2   O2    1.947542 S    
C169  C170  1.402824 A    
Zn14  O2    1.950095 S    
C163  C167  1.411793 A    
O84   H116  0.991730 S    
C29   C39   1.563793 S    
C156  H64   1.081671 S    
O78   H110  0.992122 S    
Zn13  O49   1.947444 S    
O44   C21   1.280147 A    
C50   C62   1.382949 A    
C55   C59   1.382729 A    
C177  C178  1.407664 A    
C41   C81   1.418116 A    
Zn12  O27   1.935017 S    
C139  O75   1.383126 S    
Zn3   O2    1.950389 S    
C143  C151  1.417174 A    
C129  C141  1.395554 A    
C152  O68   1.382044 S    
C79   C95   1.421397 A    
C156  C163  1.418039 A    
C80   C96   1.424856 A    
O46   C24   1.280943 A    
O47   C24   1.275166 A    
C181  H70   1.111392 S    
O86   H118  0.987897 S    
Zn16  O52   1.947233 S    
C130  H58   1.082424 S    
Zn8   O45   1.946498 S    
C57   C65   1.406350 A    
O27   C6    1.276711 A    
H15   C34   1.112809 S    
C131  H59   1.082575 S    
C49   C61   1.382384 A    
C8    C94   1.455802 S    
C24   C40   1.490665 S    
C29   C31   1.563048 S    
C26   C38   1.557412 S    
O24   C1    1.276349 A    
C132  C144  1.393537 A    
C66   O82   1.382566 S    
C183  H76   1.111052 S    
C175  C179  1.395666 A    
O43   C22   1.277275 A    
C47   C87   1.418561 A    
C34   C38   1.557452 S    
Zn3   O15   1.934883 S    
C181  H69   1.111106 S    
Zn5   O12   1.935431 S    
O42   C22   1.280238 A    
C154  C161  1.418409 A    
Zn6   O11   1.935304 S    
C144  O80   1.383215 S    
Zn9   O21   1.934082 S    
Zn14  O50   1.947233 S    
H13   C33   1.113066 S    
C102  C126  1.414025 A    
O35   C14   1.275618 A    
O71   H103  0.990979 S    
Zn12  O40   1.947402 S    
O39   C19   1.269610 A    
Zn9   O1    1.950395 S    
C157  H65   1.082820 S    
C154  C158  1.393835 A    
C11   C115  1.452306 S    
H10   C174  1.081730 S    
O52   C20   1.269937 A    
C142  C150  1.416869 A    
C160  H68   1.082806 S    
C7    C93   1.454107 S    
C13   C117  1.453695 S    
O67   H99   0.987338 S    
O22   C3    1.276034 A    
Zn7   O19   1.934883 S    
C51   H31   1.081512 S    
C10   C114  1.451713 S    
C127  C135  1.383840 A    
Zn13  O32   1.934419 S    
O49   C17   1.270905 A    
Zn14  O31   1.934332 S    
C74   C86   1.416231 A    
C139  C147  1.416912 A    
O63   H95   0.987272 S    
O51   C19   1.271361 A    
C122  C130  1.384064 A    
C182  H74   1.109237 S    
C77   C93   1.422845 A    
C3    C89   1.453340 S    
C147  O63   1.382842 S    
C148  O64   1.382404 S    
C151  O67   1.382980 S    
C43   H23   1.081307 S    
O69   H101  0.990858 S    
Zn4   O5    1.934840 S    
O73   H105  0.992015 S    
O20   C16   1.278672 A    
H11   C175  1.081940 S    
C17   C166  1.437855 S    
O10   C6    1.279469 A    
O23   C2    1.276118 A    
C104  C128  1.415499 A    
C28   C37   1.558969 S    
Zn11  O25   1.934082 S    
O53   C181  1.411159 S    
Zn10  O38   1.947402 S    
C140  C148  1.414274 A    
C102  C106  1.415898 A    
C44   C84   1.419396 A    
H14   C34   1.112785 S    
O45   C23   1.278791 A    
C135  H55   1.082477 S    
C68   C76   1.437609 A    
C185  H81   1.111378 S    
C186  H86   1.108969 S    
C125  H49   1.080926 S    
C144  C152  1.414692 A    
C127  H51   1.078219 S    
O17   C13   1.276778 A    
C128  H52   1.080544 S    
O74   H106  0.991920 S    
