data_mof_unit_39704.cif
_audit_creation_date              2013-03-05T15:58:22-0500
_audit_creation_method            fapswitch 2.2
_symmetry_space_group_name_H-M    P1
_symmetry_Int_Tables_number       1
_space_group_crystal_system       triclinic
_cell_length_a                    15.045546
_cell_length_b                    13.830956
_cell_length_c                    15.868163
_cell_angle_alpha                 91.225181
_cell_angle_beta                  87.576417
_cell_angle_gamma                 90.398833
_cell_volume                      3298.30548477

loop_
_atom_site_label
_atom_site_type_symbol
_atom_site_description
_atom_site_fract_x
_atom_site_fract_y
_atom_site_fract_z
_atom_type_partial_charge
O1    O     O_R   0.370250 0.582280 0.500020 -0.573850
O2    O     O_R   0.370250 0.417720 0.500020 -0.588703
C1    C     C_R   0.328920 0.499847 0.503772 0.812949
O3    O     O_R   0.499990 0.582310 0.379440 -0.577314
O4    O     O_R   0.499990 0.417690 0.379440 -0.588717
C2    C     C_R   0.500267 0.499119 0.340405 0.813501
Cu1   Cu    Cu3+1 0.499990 0.597420 0.500010 0.927736
Cu2   Cu    Cu3+1 0.499990 0.402580 0.500010 0.933873
O5    O     O_R   0.629730 0.582260 0.499990 -0.589800
O6    O     O_R   0.629730 0.417740 0.499990 -0.583561
O7    O     O_R   0.499980 0.582240 0.620570 -0.585525
O8    O     O_R   0.499980 0.417760 0.620570 -0.571256
C3    C     C_R   0.671092 0.500381 0.499560 0.798215
C4    C     C_R   0.499363 0.500892 0.659684 0.815692
C5    C     C_3   0.435788 0.587045 0.056447 0.224057
C6    C     C_3   0.453852 0.403062 0.048992 0.224269
C7    C     C_3   0.455882 0.400569 0.948911 0.541465
C8    C     C_3   0.428114 0.586120 0.955207 0.551855
H1    H     H_    0.494700 0.341846 0.069824 0.045054
H2    H     H_    0.472720 0.654020 0.073050 0.058769
C9    C     C_1   0.497376 0.502772 0.749284 -0.186771
C10   C     C_3   0.495774 0.500492 0.083284 0.040797
C11   C     C_3   0.492439 0.502696 0.917627 0.052248
C12   C     C_3   0.589524 0.519590 0.947052 -0.570479
C13   C     C_3   0.594439 0.514696 0.044932 0.285274
C14   C     C_1   0.495240 0.503299 0.824849 0.083746
C15   C     C_1   0.497836 0.497842 0.175620 0.019531
C16   C     C_1   0.499445 0.497387 0.251020 -0.232396
H3    H     H_    0.615622 0.589521 0.923319 0.196628
H4    H     H_    0.636717 0.468402 0.914752 0.201383
C17   C     C_R   0.816326 0.432260 0.453579 -0.244266
C18   C     C_R   0.767620 0.501671 0.500139 -0.072876
C19   C     C_R   0.810510 0.572473 0.547483 -0.247438
C20   C     C_R   0.903329 0.573406 0.551108 0.108809
C21   C     C_R   0.953016 0.502407 0.503979 -0.015474
C22   C     C_R   0.909297 0.431679 0.453997 0.110130
C23   C     C_R   0.947528 0.643155 0.600879 0.168404
C24   C     C_R   0.040105 0.640145 0.604406 -0.210916
C25   C     C_R   0.090491 0.569713 0.558859 0.064666
C26   C     C_R   0.046334 0.501826 0.506961 0.009090
C27   C     C_R   0.095437 0.432599 0.458432 0.072468
C28   C     C_R   0.052264 0.364166 0.408349 -0.204558
C29   C     C_R   0.959551 0.362180 0.405933 0.177983
C30   C     C_R   0.184071 0.565390 0.564062 0.131778
C31   C     C_R   0.232079 0.499558 0.510155 -0.061486
C32   C     C_R   0.187666 0.433094 0.459408 -0.293207
H5    H     H_    0.780832 0.380180 0.415973 0.149144
H6    H     H_    0.770280 0.625124 0.582844 0.159057
H7    H     H_    0.072442 0.694643 0.642455 0.164998
H8    H     H_    0.225511 0.382141 0.419452 0.153537
H9    H     H_    0.091218 0.311579 0.371282 0.141381
C33   C     C_R   0.439878 0.793936 0.551437 0.014064
C34   C     C_R   0.442017 0.207218 0.552679 0.013509
N1    N     N_R   0.499930 0.743810 0.499960 -0.191380
N2    N     N_R   0.499930 0.256190 0.499960 -0.192915
C35   C     C_R   0.556789 0.794095 0.446040 0.317055
C36   C     C_R   0.559205 0.204548 0.446439 0.342399
C37   C     C_R   0.545652 0.895051 0.435949 -0.002281
C38   C     C_R   0.558869 0.100542 0.444123 -0.022404
C39   C     C_R   0.492948 0.947853 0.495525 -0.056082
C40   C     C_R   0.495835 0.051232 0.496710 -0.058828
C41   C     C_R   0.437208 0.897089 0.552779 -0.136930
C42   C     C_R   0.438695 0.104340 0.552751 -0.138730
C43   C     C_R   0.591047 0.946160 0.371761 0.164057
C44   C     C_R   0.614695 0.042608 0.387342 0.179223
C45   C     C_R   0.378948 0.053328 0.607391 0.334762
C46   C     C_R   0.380256 0.950493 0.609317 0.339861
H10   H     H_    0.395981 0.753582 0.593588 0.169925
H11   H     H_    0.397749 0.248784 0.594729 0.174440
O9    O     O_3   0.344531 0.571353 0.915354 -0.550483
C47   C     C_3   0.262695 0.566625 0.961844 0.273072
H12   H     H_    0.261972 0.516283 0.014797 0.228218
H13   H     H_    0.214817 0.531402 0.919351 0.131357
C48   C     C_3   0.225020 0.666865 0.982587 -0.867845
H14   H     H_    0.207542 0.702448 0.923516 0.236842
H15   H     H_    0.163960 0.660130 0.023861 0.207089
H16   H     H_    0.273493 0.713429 0.014715 0.255520
O10   O     O_3   0.367561 0.390336 0.918856 -0.529594
C49   C     C_3   0.331682 0.295301 0.918129 0.154153
H17   H     H_    0.348466 0.254146 0.974387 0.139590
H18   H     H_    0.356174 0.255378 0.860287 0.160994
C50   C     C_3   0.230945 0.300987 0.915891 -0.821206
H19   H     H_    0.211787 0.339808 0.858909 0.246139
H20   H     H_    0.202002 0.226938 0.913979 0.199878
H21   H     H_    0.203765 0.340096 0.973026 0.243740
C51   C     C_3   0.230718 0.626126 0.630023 -0.861518
H22   H     H_    0.195324 0.619009 0.692447 0.224258
H23   H     H_    0.299555 0.602495 0.640079 0.234883
H24   H     H_    0.231907 0.703210 0.611859 0.252463
C52   C     C_3   0.916265 0.285613 0.351845 -0.902804
H25   H     H_    0.966124 0.237817 0.318772 0.233167
H26   H     H_    0.871836 0.239455 0.391837 0.232299
H27   H     H_    0.877092 0.320302 0.303150 0.231405
C53   C     C_3   0.642612 0.747981 0.412627 -0.772441
H28   H     H_    0.687608 0.796433 0.376463 0.197903
H29   H     H_    0.683554 0.731614 0.466775 0.231562
H30   H     H_    0.630504 0.683980 0.371751 0.246143
C54   C     C_3   0.621490 0.255267 0.384053 -0.780672
H31   H     H_    0.609152 0.228595 0.319139 0.193411
H32   H     H_    0.618956 0.332485 0.379736 0.262580
H33   H     H_    0.690830 0.245383 0.401459 0.196934
C55   C     C_3   0.603006 0.904649 0.282749 -0.898313
H34   H     H_    0.573412 0.954777 0.238084 0.233989
H35   H     H_    0.674187 0.894979 0.263693 0.232916
H36   H     H_    0.568097 0.834095 0.275766 0.233990
C56   C     C_3   0.708825 0.069388 0.358071 -0.878006
H37   H     H_    0.749321 0.004345 0.341693 0.231492
H38   H     H_    0.710230 0.113791 0.300759 0.236660
H39   H     H_    0.744474 0.103939 0.410643 0.226339
O11   O     O_3   0.323261 0.103922 0.663841 -0.590660
C57   C     C_3   0.240710 0.116911 0.626722 0.083593
H40   H     H_    0.205422 0.046360 0.619624 0.178483
H41   H     H_    0.249158 0.151030 0.563796 0.126432
C58   C     C_3   0.183333 0.183398 0.683539 -0.794359
H42   H     H_    0.216696 0.254830 0.690870 0.248486
H43   H     H_    0.117916 0.194011 0.655299 0.204339
H44   H     H_    0.172424 0.151094 0.746664 0.249430
O12   O     O_3   0.320870 0.902301 0.662671 -0.588775
C59   C     C_3   0.357730 0.896492 0.742683 0.084686
H45   H     H_    0.367150 0.969862 0.771332 0.177456
H46   H     H_    0.422776 0.858188 0.738411 0.127454
C60   C     C_3   0.294310 0.840025 0.800587 -0.803687
H47   H     H_    0.288778 0.764040 0.777209 0.257964
H48   H     H_    0.319489 0.840464 0.865282 0.202225
H49   H     H_    0.227422 0.873691 0.802956 0.252398
O13   O     O_3   0.353366 0.586712 0.103807 -0.549414
C61   C     C_3   0.348367 0.660457 0.167353 0.071721
H50   H     H_    0.343701 0.732658 0.138527 0.121145
H51   H     H_    0.407347 0.660894 0.207229 0.150557
C62   C     C_3   0.266183 0.643773 0.224367 -0.759124
H52   H     H_    0.271446 0.573482 0.256292 0.244396
H53   H     H_    0.260366 0.702469 0.273097 0.200230
H54   H     H_    0.205649 0.643118 0.186675 0.240323
O14   O     O_3   0.364445 0.394488 0.081668 -0.528823
C63   C     C_3   0.355179 0.323581 0.144547 0.093813
H55   H     H_    0.401172 0.337383 0.196434 0.150432
H56   H     H_    0.368639 0.250240 0.117131 0.108434
C64   C     C_3   0.260526 0.325524 0.182085 -0.787316
H57   H     H_    0.212702 0.309220 0.132231 0.238159
H58   H     H_    0.252537 0.270582 0.231905 0.188868
H59   H     H_    0.245708 0.398004 0.210477 0.254283
C65   C     C_3   0.516376 0.316221 0.911914 -0.998930
H60   H     H_    0.509922 0.308661 0.842628 0.257458
H61   H     H_    0.587552 0.325223 0.923143 0.226222
H62   H     H_    0.497547 0.246078 0.940491 0.203696
C66   C     C_3   0.458830 0.687154 0.923439 -0.910416
H63   H     H_    0.412344 0.743218 0.949244 0.223450
H64   H     H_    0.525553 0.709144 0.943457 0.189007
H65   H     H_    0.458496 0.690294 0.853565 0.255178
C67   C     C_3   0.640209 0.608792 0.078592 -0.836853
H66   H     H_    0.611555 0.676014 0.055277 0.200356
H67   H     H_    0.637743 0.612573 0.148609 0.228659
H68   H     H_    0.711454 0.610897 0.057010 0.237133
C68   C     C_3   0.657094 0.431281 0.069142 -0.834064
H69   H     H_    0.724956 0.442128 0.040291 0.232955
H70   H     H_    0.663366 0.429308 0.138591 0.229345
H71   H     H_    0.635299 0.358935 0.048010 0.205285
C69   C     C_3   0.897728 0.721135 0.651063 -0.894689
H72   H     H_    0.860070 0.766261 0.608010 0.233514
H73   H     H_    0.851046 0.687704 0.698221 0.231104
H74   H     H_    0.943200 0.769799 0.685765 0.232698

loop_
_geom_bond_atom_site_label_1
_geom_bond_atom_site_label_2
_geom_bond_distance
_ccdc_geom_bond_type
C8    O9    1.442643 S    
C5    C8    1.615270 S    
C9    C14   1.198025 T    
C13   C67   1.562735 S    
O13   C61   1.418959 S    
C63   C64   1.520440 S    
C20   C23   1.414037 A    
C27   C28   1.397253 A    
C3    C18   1.452719 S    
C21   C22   1.421493 A    
C34   H11   1.081972 S    
C58   H42   1.111171 S    
C63   H55   1.110317 S    
C24   H7    1.081511 S    
C31   C32   1.394740 A    
Cu1   O7    1.929003 S    
C7    C11   1.593814 S    
C48   H15   1.110025 S    
C41   C46   1.414277 A    
C4    C9    1.420516 S    
O2    C1    1.297807 A    
C24   C25   1.407063 A    
C55   H35   1.108672 S    
O7    C4    1.296325 A    
C51   H23   1.107181 S    
C36   C38   1.438169 A    
C56   H37   1.110098 S    
C37   C39   1.403910 A    
C10   C13   1.592882 S    
C55   H36   1.110652 S    
C39   C41   1.405810 A    
C20   C21   1.419135 A    
C43   C55   1.517334 S    
C11   C14   1.471236 S    
C40   C42   1.409127 A    
O5    C3    1.295731 A    
O11   C57   1.411137 S    
C69   H74   1.110818 S    
O1    Cu1   1.961751 S    
C12   H3    1.108740 S    
C5    C10   1.580618 S    
C2    C16   1.418645 S    
C57   H40   1.113501 S    
C6    C7    1.586751 S    
C5    O13   1.422612 S    
C48   H16   1.103364 S    
C27   C32   1.388337 A    
O9    C47   1.410196 S    
C47   C48   1.525599 S    
C68   H70   1.110974 S    
C33   H10   1.080988 S    
C28   H9    1.084867 S    
C34   N2    1.368278 A    
C45   C46   1.423577 A    
C42   C45   1.417398 A    
C6    O14   1.426136 S    
C17   H5    1.078588 S    
O12   C59   1.410873 S    
C69   H73   1.110361 S    
C65   H62   1.109602 S    
C35   C53   1.514709 S    
O3    Cu1   1.920156 S    
C30   C51   1.519903 S    
Cu2   N2    2.024691 S    
C33   N1    1.373431 A    
C66   H64   1.104439 S    
C59   H46   1.114947 S    
C37   C43   1.403151 A    
C5    H2    1.109528 S    
N1    C35   1.379442 A    
C38   C40   1.417478 A    
C29   C52   1.510306 S    
C48   H14   1.110108 S    
C8    C11   1.600284 S    
Cu1   Cu2   2.694822 S    
C12   C13   1.561002 S    
C68   H71   1.100713 S    
O3    C2    1.294972 A    
C25   C26   1.416232 A    
C47   H13   1.110423 S    
O10   C49   1.417480 S    
C53   H30   1.104832 S    
C1    C31   1.456245 S    
C51   H24   1.110177 S    
C39   C40   1.429939 A    
O1    C1    1.296152 A    
C23   C69   1.510922 S    
C62   H53   1.110442 S    
C61   H51   1.111370 S    
C23   C24   1.397295 A    
O4    Cu2   1.929040 S    
C66   H65   1.110762 S    
C52   H26   1.110230 S    
C17   C18   1.392182 A    
Cu2   O8    1.920078 S    
C19   C20   1.400083 A    
C53   H28   1.101808 S    
C57   H41   1.115566 S    
C45   O11   1.382728 S    
C53   H29   1.106339 S    
C67   H68   1.111793 S    
C68   H69   1.111688 S    
O14   C63   1.415968 S    
C64   H58   1.110505 S    
C26   C27   1.409180 A    
O8    C4    1.294792 A    
C54   H31   1.109302 S    
C54   H32   1.072689 S    
C10   C15   1.468074 S    
N2    C36   1.394872 A    
C69   H72   1.110477 S    
C67   H67   1.110215 S    
C62   H54   1.110424 S    
C28   C29   1.397122 A    
C60   H48   1.109066 S    
C61   H50   1.111117 S    
C64   H59   1.110372 S    
C44   C56   1.517582 S    
C30   C31   1.416361 A    
C52   H27   1.110375 S    
C49   H18   1.111612 S    
C66   H63   1.108098 S    
C59   C60   1.520145 S    
C63   H56   1.111647 S    
C6    C10   1.579766 S    
C13   C68   1.559476 S    
C51   H22   1.110539 S    
O2    Cu2   1.964649 S    
C8    C66   1.556217 S    
O6    C3    1.297632 A    
C49   C50   1.520184 S    
C58   H43   1.110501 S    
C59   H45   1.113662 S    
C25   C30   1.415611 A    
C50   H21   1.110210 S    
C32   H8    1.085728 S    
C50   H20   1.110431 S    
C67   H66   1.104961 S    
C54   H33   1.100614 S    
C18   C19   1.393029 A    
C60   H49   1.110671 S    
C62   H52   1.110661 S    
C61   C62   1.520208 S    
C47   H12   1.102317 S    
C33   C41   1.427227 A    
C43   C44   1.397832 A    
C34   C42   1.423467 A    
C52   H25   1.110838 S    
O4    C2    1.296793 A    
C56   H38   1.107587 S    
C6    H1    1.113644 S    
C36   C54   1.514049 S    
C7    O10   1.435750 S    
C35   C37   1.420750 A    
C21   C26   1.406903 A    
C57   C58   1.521022 S    
C65   H61   1.098800 S    
C55   H34   1.110527 S    
C46   O12   1.382472 S    
C12   H4    1.108509 S    
C58   H44   1.110908 S    
C64   H57   1.110257 S    
C11   C12   1.566677 S    
C49   H17   1.107929 S    
Cu1   O5    1.964676 S    
Cu2   O6    1.961775 S    
C50   H19   1.110808 S    
C15   C16   1.197880 T    
C65   H60   1.110454 S    
C19   H6    1.082332 S    
C17   C22   1.399176 A    
C7    C65   1.572997 S    
C22   C29   1.416814 A    
Cu1   N1    2.024737 S    
C60   H47   1.110740 S    
C38   C44   1.440090 A    
C56   H39   1.108693 S    
