data_mof_unit_41100.cif
_audit_creation_date              2012-12-10T17:17:56-0500
_audit_creation_method            fapswitch 2.2
_symmetry_space_group_name_H-M    P1
_symmetry_Int_Tables_number       1
_space_group_crystal_system       triclinic
_cell_length_a                    14.818791
_cell_length_b                    15.661336
_cell_length_c                    9.648766
_cell_angle_alpha                 89.315995
_cell_angle_beta                  90.306089
_cell_angle_gamma                 89.966136
_cell_volume                      2239.11353517

loop_
_atom_site_label
_atom_site_type_symbol
_atom_type_description
_atom_site_fract_x
_atom_site_fract_y
_atom_site_fract_z
_atom_type_partial_charge
C1    C     C_R   0.379101 0.883657 0.500262 0.754785
C2    C     C_R   0.378180 0.115521 0.499302 0.753512
C3    C     C_R   0.879100 0.383658 0.500262 0.754785
C4    C     C_R   0.878180 0.615521 0.499302 0.753512
C5    C     C_R   0.312853 0.246955 0.408108 -0.204274
C6    C     C_R   0.321914 0.746164 0.577515 -0.212775
C7    C     C_R   0.812850 0.746952 0.408105 -0.204277
C8    C     C_R   0.821910 0.246168 0.577524 -0.212776
C9    C     C_R   0.749117 0.810948 0.409395 -0.218127
C10   C     C_R   0.758615 0.181779 0.575857 -0.206947
C11   C     C_R   0.249119 0.310950 0.409398 -0.218128
C12   C     C_R   0.258620 0.681775 0.575848 -0.206949
C13   C     C_R   0.676388 0.806221 0.500561 -0.116854
C14   C     C_R   0.679444 0.191199 0.498388 -0.107615
C15   C     C_R   0.176388 0.306222 0.500561 -0.116853
C16   C     C_R   0.179445 0.691198 0.498388 -0.107611
C17   C     C_R   0.662088 0.022282 0.149715 -0.136599
C18   C     C_R   0.162088 0.522282 0.149715 -0.136598
C19   C     C_R   0.736230 0.058793 0.087126 -0.293832
C20   C     C_R   0.236230 0.558793 0.087126 -0.293834
C21   C     C_R   0.737671 0.066127 0.945461 -0.268874
C22   C     C_R   0.237670 0.566127 0.945460 -0.268872
C23   C     C_R   0.669664 0.026721 0.867110 0.532062
C24   C     C_R   0.169664 0.526721 0.867109 0.532066
C25   C     C_R   0.581753 0.012094 0.927463 0.097275
C26   C     C_R   0.081753 0.512094 0.927463 0.097273
C27   C     C_R   0.580246 0.011203 0.076792 0.156296
C28   C     C_R   0.080246 0.511203 0.076792 0.156296
C29   C     C_R   0.423320 0.989646 0.073049 -0.045412
C30   C     C_R   0.923320 0.489645 0.073049 -0.045411
C31   C     C_R   0.616696 0.120337 0.499487 0.812983
C32   C     C_R   0.614962 0.878268 0.500551 0.814700
C33   C     C_R   0.116696 0.620337 0.499487 0.812982
C34   C     C_R   0.114962 0.378268 0.500551 0.814699
C35   C     C_R   0.423360 0.989408 0.925627 -0.057902
C36   C     C_R   0.923360 0.489407 0.925627 -0.057902
C37   C     C_R   0.213183 0.091493 0.662147 -0.180262
C38   C     C_R   0.207048 0.912207 0.356876 -0.190498
C39   C     C_R   0.713185 0.591495 0.662153 -0.180260
C40   C     C_R   0.707052 0.412204 0.356858 -0.190496
C41   C     C_R   0.137105 0.083369 0.745528 -0.136977
C42   C     C_R   0.125914 0.923735 0.285289 -0.134008
C43   C     C_R   0.637109 0.583372 0.745538 -0.136980
C44   C     C_R   0.625922 0.423728 0.285260 -0.134012
C45   C     C_R   0.574292 0.649201 0.750632 -0.144339
C46   C     C_R   0.562372 0.358433 0.282283 -0.142287
C47   C     C_R   0.074289 0.149198 0.750622 -0.144337
C48   C     C_R   0.062365 0.858440 0.282313 -0.142288
C49   C     C_R   0.586789 0.723231 0.671440 -0.190090
C50   C     C_R   0.579425 0.281353 0.351375 -0.175535
C51   C     C_R   0.086787 0.223229 0.671433 -0.190088
C52   C     C_R   0.079420 0.781357 0.351394 -0.175534
C53   C     C_R   0.663659 0.733292 0.586595 0.090090
C54   C     C_R   0.661426 0.267850 0.423829 0.098783
C55   C     C_R   0.163658 0.233291 0.586592 0.090090
C56   C     C_R   0.161424 0.767852 0.423838 0.098784
C57   C     C_R   0.228460 0.166911 0.583472 0.100214
C58   C     C_R   0.226399 0.834035 0.425784 0.098077
C59   C     C_R   0.728461 0.666912 0.583475 0.100216
C60   C     C_R   0.726401 0.334033 0.425775 0.098079
C61   C     C_R   0.304997 0.176772 0.497516 -0.096782
C62   C     C_R   0.307605 0.820954 0.500776 -0.085248
C63   C     C_R   0.804996 0.676771 0.497516 -0.096783
C64   C     C_R   0.807604 0.320955 0.500776 -0.085251
Cu1   Cu    Cu3+1 0.499990 0.000000 0.640660 0.968690
Cu2   Cu    Cu3+1 0.999990 0.500000 0.640660 0.968690
Cu3   Cu    Cu3+1 0.500010 0.000000 0.359340 0.934215
Cu4   Cu    Cu3+1 0.000010 0.500000 0.359340 0.934216
H1    H     H_    0.369863 0.253486 0.339184 0.145848
H2    H     H_    0.383390 0.736589 0.636589 0.140872
H3    H     H_    0.869859 0.753483 0.339177 0.145850
H4    H     H_    0.883383 0.236595 0.636606 0.140874
H5    H     H_    0.799228 0.087958 0.896446 0.151975
H6    H     H_    0.299227 0.587959 0.896445 0.151977
H7    H     H_    0.360282 0.980882 0.870609 0.131323
H8    H     H_    0.860282 0.480881 0.870609 0.131322
H9    H     H_    0.258142 0.037263 0.657574 0.138946
H10   H     H_    0.253223 0.965593 0.359726 0.136321
H11   H     H_    0.758144 0.537264 0.657579 0.138946
H12   H     H_    0.753226 0.465590 0.359709 0.136324
H13   H     H_    0.126327 0.025313 0.805169 0.130668
H14   H     H_    0.111932 0.983898 0.233063 0.133139
H15   H     H_    0.626331 0.525316 0.805182 0.130667
H16   H     H_    0.611942 0.483889 0.233027 0.133137
H17   H     H_    0.514818 0.642343 0.814495 0.127288
H18   H     H_    0.499107 0.367880 0.227576 0.127113
H19   H     H_    0.014813 0.142339 0.814481 0.127286
H20   H     H_    0.999097 0.867889 0.227614 0.127113
H21   H     H_    0.534730 0.771174 0.675861 0.149968
H22   H     H_    0.527311 0.233361 0.348982 0.146493
H23   H     H_    0.034728 0.271172 0.675853 0.149966
H24   H     H_    0.027306 0.733364 0.349002 0.146487
H25   H     H_    0.758277 0.865995 0.341753 0.145510
H26   H     H_    0.772806 0.123439 0.632809 0.184542
H27   H     H_    0.258281 0.365997 0.341758 0.145508
H28   H     H_    0.272812 0.623433 0.632793 0.184540
H29   H     H_    0.360144 0.981353 0.127205 0.133449
H30   H     H_    0.860144 0.481353 0.127205 0.133447
H31   H     H_    0.672139 0.004107 0.255072 0.205162
H32   H     H_    0.172140 0.504107 0.255072 0.205161
H33   H     H_    0.795429 0.075043 0.147599 0.173276
H34   H     H_    0.295428 0.575044 0.147599 0.173277
N1    N     N_R   0.501200 0.000000 0.147910 -0.187720
N2    N     N_R   0.001200 0.500000 0.147910 -0.187719
N3    N     N_R   0.501270 0.000000 0.852040 -0.189369
N4    N     N_R   0.001270 0.500000 0.852040 -0.189368
O1    O     O_R   0.409820 0.909830 0.618810 -0.599021
O2    O     O_R   0.409820 0.090170 0.618810 -0.581692
O3    O     O_R   0.909820 0.409830 0.618810 -0.599022
O4    O     O_R   0.909820 0.590170 0.618810 -0.581692
O5    O     O_R   0.409840 0.909830 0.381240 -0.579511
O6    O     O_R   0.409840 0.090170 0.381240 -0.588610
O7    O     O_R   0.909840 0.409830 0.381240 -0.579512
O8    O     O_R   0.909840 0.590170 0.381240 -0.588609
O9    O     O_R   0.590170 0.090170 0.618760 -0.526576
O10   O     O_R   0.590170 0.909830 0.618760 -0.524716
O11   O     O_R   0.090170 0.590170 0.618760 -0.526576
O12   O     O_R   0.090170 0.409830 0.618760 -0.524716
O13   O     O_R   0.590190 0.090180 0.381190 -0.605880
O14   O     O_R   0.590190 0.909820 0.381190 -0.600718
O15   O     O_R   0.090190 0.590180 0.381190 -0.605877
O16   O     O_R   0.090190 0.409820 0.381190 -0.600717
O17   O     O_3   0.695508 0.995686 0.740633 -0.556800
C65   C     C_3   0.761538 0.930784 0.758872 -0.338748
H35   H     H_    0.733515 0.875408 0.817767 0.178929
H36   H     H_    0.824310 0.954046 0.809188 0.145144
H37   H     H_    0.782587 0.908418 0.655668 0.186951
O18   O     O_3   0.195508 0.495686 0.740633 -0.556800
C66   C     C_3   0.261537 0.430784 0.758874 -0.338753
H38   H     H_    0.233512 0.375407 0.817766 0.178930
H39   H     H_    0.324309 0.454045 0.809193 0.145145
H40   H     H_    0.282587 0.408418 0.655670 0.186951

loop_
_geom_bond_atom_site_label_1
_geom_bond_atom_site_label_2
_ccdc_geom_bond_type
C34   O12   A    
Cu2   Cu4   S    
C58   C62   A    
C40   C60   A    
C43   H15   S    
C13   C32   S    
C42   H14   S    
C14   C31   S    
C1    C62   S    
C26   N4    A    
C30   N2    A    
C53   C59   A    
Cu3   N1    S    
O17   C65   S    
C54   C60   A    
C3    C64   S    
C33   O11   A    
C4    C63   S    
C2    O6    A    
C50   C54   A    
C4    O8    A    
C19   C21   A    
C24   C26   A    
C38   C42   A    
C20   C22   A    
C6    C12   A    
C20   H34   S    
C10   H26   S    
C21   H5    S    
C29   N1    A    
C6    H2    S    
C31   O9    A    
C9    C13   A    
C5    H1    S    
C36   H8    S    
C51   H23   S    
C38   C58   A    
C11   C15   A    
C50   H22   S    
C12   C16   A    
Cu1   Cu3   S    
Cu2   O11   S    
C48   H20   S    
Cu3   O14   S    
C15   C34   S    
C18   C20   A    
C2    C61   S    
Cu4   O7    S    
C66   H40   S    
C39   C59   A    
C34   O16   A    
O18   C66   S    
C33   O15   A    
Cu1   O9    S    
C18   H32   S    
Cu2   N4    S    
Cu1   N3    S    
C44   C46   A    
C46   C50   A    
C13   C53   A    
C39   C43   A    
C8    H4    S    
C36   N4    A    
C17   C27   A    
Cu4   N2    S    
C18   C28   A    
C10   C14   A    
Cu4   O16   S    
C23   O17   S    
C38   H10   S    
C37   H9    S    
C32   O10   A    
C47   H19   S    
C45   H17   S    
C16   C56   A    
C35   N3    A    
C16   C33   S    
C43   C45   A    
C28   N2    A    
C45   C49   A    
C41   H13   S    
C40   H12   S    
C41   C47   A    
C5    C61   A    
C42   C48   A    
Cu2   O4    S    
C57   C61   A    
C17   H31   S    
C7    C63   A    
C39   H11   S    
C8    C64   A    
C65   H37   S    
Cu3   O5    S    
C14   C54   A    
C1    O1    A    
C21   C23   A    
C3    O7    A    
Cu1   O10   S    
C22   C24   A    
C52   H24   S    
C22   H6    S    
C40   C44   A    
C9    H25   S    
C65   H36   S    
C66   H38   S    
C11   H27   S    
C7    C9    A    
C4    O4    A    
Cu1   O2    S    
C59   C63   A    
C35   H7    S    
C49   H21   S    
C44   H16   S    
Cu4   O15   S    
C47   C51   A    
C5    C11   A    
C29   H29   S    
C25   C27   A    
C29   C35   A    
C30   H30   S    
C26   C28   A    
C30   C36   A    
C60   C64   A    
C6    C62   A    
C55   C57   A    
C1    O5    A    
C7    H3    S    
C19   H33   S    
C3    O3    A    
C49   C53   A    
C2    O2    A    
C17   C19   A    
C56   C58   A    
C51   C55   A    
C23   C25   A    
Cu2   O3    S    
C37   C41   A    
C25   N3    A    
Cu3   O6    S    
C48   C52   A    
C32   O14   A    
C8    C10   A    
Cu2   O12   S    
Cu4   O8    S    
C24   O18   S    
C12   H28   S    
C46   H18   S    
C31   O13   A    
Cu3   O13   S    
C27   N1    A    
Cu1   O1    S    
C37   C57   A    
C52   C56   A    
C15   C55   A    
C65   H35   S    
C66   H39   S    
