data_mof_unit_42095.cif
_audit_creation_date              2012-10-26T20:16:52-0400
_audit_creation_method            fapswitch 2.2
_symmetry_space_group_name_H-M    P1
_symmetry_Int_Tables_number       1
_space_group_crystal_system       triclinic
_cell_length_a                    10.858093
_cell_length_b                    10.864722
_cell_length_c                    10.42791
_cell_angle_alpha                 90.524202
_cell_angle_beta                  90.328701
_cell_angle_gamma                 90.109547
_cell_volume                      1230.10812812

loop_
_atom_site_label
_atom_site_type_symbol
_atom_type_description
_atom_site_fract_x
_atom_site_fract_y
_atom_site_fract_z
_atom_type_partial_charge
C1    C     C_R   0.496104 0.261508 0.499101 0.544123
C2    C     C_R   0.691055 0.832582 0.746448 -0.128918
C3    C     C_R   0.426952 0.115373 0.262754 0.056837
C4    C     C_R   0.573072 0.884631 0.737231 0.056841
C5    C     C_R   0.503422 0.113096 0.154335 0.386390
C6    C     C_R   0.496602 0.886840 0.845646 0.386430
C7    C     C_R   0.462258 0.163353 0.038743 -0.044820
C8    C     C_R   0.537790 0.836582 0.961225 -0.044789
C9    C     C_R   0.344785 0.215049 0.030293 -0.121201
C10   C     C_R   0.655284 0.784950 0.969666 -0.121173
C11   C     C_R   0.475871 0.932256 0.388496 -0.115248
C12   C     C_R   0.503896 0.738492 0.500899 0.544132
C13   C     C_R   0.524120 0.067745 0.611503 -0.115280
C14   C     C_R   0.505932 0.872085 0.502473 -0.007477
C15   C     C_R   0.494062 0.127916 0.497526 -0.007493
C16   C     C_R   0.261550 0.503852 0.499400 0.545938
C17   C     C_R   0.738449 0.496149 0.500599 0.545952
C18   C     C_R   0.531922 0.940627 0.615332 0.012223
C19   C     C_R   0.468074 0.059374 0.384664 0.012204
C20   C     C_1   0.500021 0.500010 0.071946 0.086916
C21   C     C_1   0.499979 0.499988 0.928054 0.086910
C22   C     C_R   0.230143 0.757924 0.166495 -0.098499
C23   C     C_R   0.872013 0.494063 0.501708 -0.002586
C24   C     C_R   0.769914 0.241980 0.833448 -0.098527
C25   C     C_R   0.178389 0.709250 0.277689 -0.059750
C26   C     C_R   0.821661 0.290684 0.722266 -0.059800
C27   C     C_R   0.117554 0.595020 0.272994 0.056331
C28   C     C_R   0.882441 0.404939 0.726985 0.056332
C29   C     C_R   0.108711 0.530795 0.155816 -0.093349
C30   C     C_R   0.891226 0.469165 0.844171 -0.093295
C31   C     C_R   0.162371 0.578796 0.045404 -0.122087
C32   C     C_R   0.837573 0.421133 0.954570 -0.122077
C33   C     C_R   0.222807 0.692413 0.050672 -0.097048
C34   C     C_R   0.127986 0.505937 0.498290 -0.002587
C35   C     C_R   0.777200 0.307488 0.949281 -0.097059
C36   C     C_R   0.932689 0.536203 0.392460 -0.150005
C37   C     C_R   0.067309 0.463796 0.607538 -0.150003
C38   C     C_R   0.939905 0.456156 0.610415 -0.033186
C39   C     C_R   0.060094 0.543836 0.389580 -0.033182
C40   C     C_R   0.268217 0.216937 0.137528 -0.117464
C41   C     C_R   0.731853 0.783134 0.862435 -0.117495
C42   C     C_R   0.308993 0.167492 0.253529 -0.128832
Cu1   Cu    Cu3+1 0.500000 0.500000 0.625300 0.992516
Cu2   Cu    Cu3+1 0.500000 0.500000 0.374700 0.992494
F1    F     F_    0.617672 0.062980 0.160900 -0.662217
F2    F     F_    0.382330 0.936893 0.839088 -0.662217
H1    H     H_    0.263493 0.729846 0.964896 0.161931
H2    H     H_    0.815126 0.239315 0.632957 0.103514
H3    H     H_    0.060733 0.443488 0.150382 0.098795
H4    H     H_    0.939156 0.556495 0.849620 0.098797
H5    H     H_    0.156691 0.528170 0.955674 0.107734
H6    H     H_    0.843212 0.471758 0.044308 0.107729
H7    H     H_    0.880549 0.567041 0.309737 0.133112
H8    H     H_    0.119447 0.432955 0.690262 0.133107
H9    H     H_    0.313061 0.253523 0.940609 0.134214
H10   H     H_    0.687023 0.746474 0.059339 0.134220
H11   H     H_    0.176921 0.255884 0.130512 0.122162
H12   H     H_    0.736524 0.270031 0.035048 0.161912
H13   H     H_    0.823164 0.744240 0.869445 0.122174
H14   H     H_    0.248612 0.169054 0.335861 0.114845
H15   H     H_    0.751437 0.831078 0.664120 0.114852
H16   H     H_    0.521097 0.161760 0.955378 0.127289
H17   H     H_    0.478952 0.838125 0.044586 0.127294
H18   H     H_    0.455251 0.879991 0.302000 0.135210
H19   H     H_    0.544740 0.120009 0.697998 0.135192
H20   H     H_    0.275376 0.846692 0.169863 0.111294
H21   H     H_    0.724723 0.153196 0.830061 0.111304
H22   H     H_    0.184965 0.760623 0.366990 0.103511
N1    N     N_1   0.500010 0.499990 0.186410 -0.191666
N2    N     N_1   0.499990 0.500010 0.813590 -0.191669
O1    O     O_R   0.499990 0.319650 0.605810 -0.509375
O2    O     O_R   0.500010 0.680350 0.394190 -0.509383
O3    O     O_R   0.499990 0.319640 0.394190 -0.483632
O4    O     O_R   0.500010 0.680360 0.605810 -0.483615
O5    O     O_R   0.319640 0.500010 0.605810 -0.506119
O6    O     O_R   0.680360 0.499990 0.394190 -0.506125
O7    O     O_R   0.319650 0.500010 0.394190 -0.486765
O8    O     O_R   0.680350 0.499990 0.605810 -0.486751

loop_
_geom_bond_atom_site_label_1
_geom_bond_atom_site_label_2
_ccdc_geom_bond_type
C3    C42   A    
C12   O4    A    
C27   C29   A    
C34   C37   A    
C14   C18   A    
C29   H3    S    
Cu1   O8    S    
C15   C19   A    
C11   C19   A    
C17   C23   S    
C13   C18   A    
C35   H12   S    
Cu2   O7    S    
C24   C26   A    
C11   C14   A    
C2    C41   A    
C16   O5    A    
C16   O7    A    
Cu2   O6    S    
C22   H20   S    
C36   H7    S    
C24   H21   S    
C16   C34   S    
C32   H6    S    
C27   C39   S    
C22   C25   A    
C17   O6    A    
C31   C33   A    
C3    C19   S    
C1    C15   S    
C10   H10   S    
C2    H15   S    
C26   H2    S    
C4    C18   S    
Cu1   O4    S    
C40   C42   A    
C12   O2    A    
C10   C41   A    
C25   H22   S    
Cu1   O5    S    
C24   C35   A    
C34   C39   A    
C32   C35   A    
C41   H13   S    
C4    C6    A    
C11   H18   S    
C42   H14   S    
C5    C7    A    
C13   H19   S    
C5    F1    S    
C9    C40   A    
C2    C4    A    
Cu1   Cu2   S    
C7    H16   S    
C37   C38   A    
C28   C38   S    
Cu2   N1    S    
C1    O1    A    
C9    H9    S    
C37   H8    S    
C12   C14   S    
Cu1   N2    S    
C13   C15   A    
C33   H1    S    
C20   N1    T    
C7    C9    A    
C22   C33   A    
Cu1   O1    S    
C40   H11   S    
C6    F2    S    
C36   C39   A    
C31   H5    S    
C3    C5    A    
C6    C8    A    
C25   C27   A    
C23   C38   A    
C26   C28   A    
C21   N2    T    
C1    O3    A    
C28   C30   A    
C29   C31   A    
C30   C32   A    
C17   O8    A    
Cu2   O2    S    
C30   H4    S    
Cu2   O3    S    
C8    H17   S    
C20   C21   S    
C8    C10   A    
C23   C36   A    
