data_mof_unit_59676.cif
_audit_creation_date              2012-12-11T20:21:43-0500
_audit_creation_method            fapswitch 2.2
_symmetry_space_group_name_H-M    P1
_symmetry_Int_Tables_number       1
_space_group_crystal_system       triclinic
_cell_length_a                    8.341847
_cell_length_b                    17.489728
_cell_length_c                    26.841628
_cell_angle_alpha                 100.031592
_cell_angle_beta                  92.569722
_cell_angle_gamma                 82.02251
_cell_volume                      3818.05807163

loop_
_atom_site_label
_atom_site_type_symbol
_atom_type_description
_atom_site_fract_x
_atom_site_fract_y
_atom_site_fract_z
_atom_type_partial_charge
Ba1   Ba    Ba6+2 0.860160 0.462360 0.521850 1.635069
Ba2   Ba    Ba6+2 0.329680 0.537570 0.478140 1.606747
C1    C     C_3   0.566566 0.244873 0.710052 -0.183404
C2    C     C_R   0.028579 0.553175 0.194212 0.585121
C3    C     C_2   0.725697 0.516190 0.269000 -0.085279
C4    C     C_3   0.156519 0.211088 0.639645 0.348764
C5    C     C_3   0.670742 0.505938 0.320203 -0.014067
C6    C     C_1   0.963484 0.476480 0.342935 0.041952
C7    C     C_2   0.008114 0.484104 0.297175 -0.103247
C8    C     C_2   0.884204 0.501810 0.256890 0.217813
C9    C     C_R   0.013668 0.500347 0.103790 -0.079245
C10   C     C_R   0.918186 0.445394 0.114984 -0.033179
C11   C     C_R   0.867368 0.390224 0.075091 -0.066230
C12   C     C_3   0.598940 0.282494 0.664206 0.393950
C13   C     C_R   0.069645 0.554430 0.143692 -0.027567
C14   C     C_2   0.808721 0.494242 0.357686 -0.232300
C15   C     C_2   0.347248 0.483043 0.641241 -0.248298
C16   C     C_3   0.093817 0.262142 0.688755 -0.262518
C17   C     C_R   0.005818 0.460846 0.961055 0.019249
C18   C     C_R   0.221056 0.543027 0.991611 0.023597
C19   C     C_R   0.133543 0.502130 0.950884 0.015361
C20   C     C_R   0.905550 0.431504 0.919325 0.049368
C21   C     C_R   0.951780 0.430375 0.869568 -0.053085
C22   C     C_R   0.085721 0.464680 0.859061 -0.045898
C23   C     C_3   0.425054 0.702160 0.639503 0.333014
C24   C     C_R   0.174117 0.502439 0.899653 -0.083926
C25   C     C_R   0.302929 0.540645 0.888917 -0.049157
C26   C     C_R   0.339536 0.542063 0.837971 0.583867
C27   C     C_R   0.129019 0.464145 0.808455 0.583709
C28   C     C_3   0.218722 0.302513 0.416724 0.315614
C29   C     C_2   0.452457 0.485816 0.729822 -0.126898
C30   C     C_3   0.493473 0.490345 0.675833 -0.052006
C31   C     C_1   0.205778 0.518172 0.658430 0.038436
C32   C     C_2   0.167066 0.520825 0.706380 -0.112447
C33   C     C_2   0.296245 0.502614 0.745355 0.196908
C34   C     C_3   0.453403 0.736546 0.695676 -0.064352
C35   C     C_R   0.984158 0.451683 0.012301 0.017004
C36   C     C_R   0.053692 0.501047 0.052552 0.048976
C37   C     C_R   0.163085 0.550998 0.042040 0.021335
C38   C     C_R   0.901918 0.392594 0.024974 -0.114026
C39   C     C_R   0.161611 0.610034 0.131960 -0.070516
C40   C     C_3   0.263132 0.213347 0.403216 -0.231237
C41   C     C_R   0.363693 0.572769 0.979725 0.050167
C42   C     C_R   0.396757 0.574592 0.929177 -0.068254
C43   C     C_R   0.204882 0.609106 0.082145 -0.111101
C44   C     C_2   0.455621 0.281853 0.520476 -0.256044
C45   C     C_3   0.905285 0.737270 0.361310 0.333537
C46   C     C_3   0.372078 0.228471 0.546899 -0.053877
C47   C     C_2   0.414001 0.143193 0.525392 -0.116793
C48   C     C_2   0.551366 0.117867 0.499794 0.006480
C49   C     C_2   0.644478 0.177844 0.484758 -0.125314
C50   C     C_1   0.581792 0.253463 0.491115 0.106028
C51   C     C_R   0.816513 0.865207 0.482343 -0.145483
C52   C     C_3   0.933305 0.695775 0.665333 0.289597
C53   C     C_R   0.881754 0.787568 0.482657 0.027321
C54   C     C_R   0.635791 0.762160 0.518421 0.053895
C55   C     C_R   0.570443 0.841165 0.518871 -0.137102
C56   C     C_3   0.881445 0.760492 0.308905 -0.186297
C57   C     C_R   0.663817 0.893985 0.502757 0.023744
C58   C     C_2   0.599281 0.031458 0.483487 0.075867
C59   C     C_2   0.619821 0.980437 0.517612 0.078824
C60   C     C_R   0.798779 0.738950 0.505442 -0.214598
C61   C     C_3   0.919934 0.785192 0.679886 -0.199194
C62   C     C_3   0.631672 0.314422 0.351658 0.336229
C63   C     C_3   0.514020 0.280784 0.310960 -0.354433
C64   C     C_3   0.673422 0.217763 0.623025 -0.324261
C65   C     C_3   0.123103 0.172605 0.377618 -0.354108
C66   C     C_3   0.878844 0.827436 0.634825 -0.394516
C67   C     C_3   0.406592 0.731527 0.340958 0.409175
C68   C     C_3   0.794601 0.307124 0.326658 -0.360300
C69   C     C_3   0.420308 0.826372 0.704454 -0.394880
C70   C     C_3   0.353984 0.703218 0.731118 -0.431750
C71   C     C_3   0.492052 0.304344 0.754045 -0.405110
C72   C     C_3   0.868406 0.849086 0.311073 -0.424974
C73   C     C_3   0.450874 0.808170 0.371338 -0.367996
C74   C     C_3   0.444033 0.755241 0.250223 -0.396093
C75   C     C_3   0.737244 0.411400 0.924680 -0.428285
C76   C     C_3   0.497636 0.592164 0.017801 -0.426881
C77   C     C_3   0.167556 0.124395 0.643811 -0.369683
C78   C     C_3   0.326613 0.743286 0.289460 -0.185920
C79   C     C_3   0.755824 0.482284 0.408092 -0.228581
C80   C     C_3   0.622686 0.009994 0.574045 -0.424882
C81   C     C_3   0.610803 0.002233 0.427317 -0.428179
C82   C     C_3   0.893434 0.669633 0.523967 -0.228812
C83   C     C_R   0.878563 0.445737 0.165845 0.585382
H1    H     H_    0.368690 0.198818 0.378015 0.112598
H2    H     H_    0.481890 0.311127 0.650212 -0.062590
H3    H     H_    0.483374 0.200242 0.698541 0.063094
H4    H     H_    0.307274 0.730348 0.626019 0.066221
H5    H     H_    0.425268 0.637783 0.634723 -0.021010
H6    H     H_    0.796471 0.763197 0.383766 -0.002797
H7    H     H_    0.983958 0.731455 0.284781 0.148850
H8    H     H_    0.770066 0.739375 0.290945 0.110866
H9    H     H_    0.316040 0.713784 0.363970 0.126764
H10   H     H_    0.269317 0.690566 0.273746 0.167734
H11   H     H_    0.280875 0.223990 0.635299 -0.039756
H12   H     H_    0.299408 0.189268 0.438007 0.085658
H13   H     H_    0.134707 0.471327 0.287081 0.108551
H14   H     H_    0.800473 0.344665 0.082455 0.119487
H15   H     H_    0.550518 0.473697 0.756410 0.122040
H16   H     H_    0.876589 0.405514 0.838577 0.121721
H17   H     H_    0.867498 0.345843 0.996500 0.083030
H18   H     H_    0.502802 0.599612 0.921223 0.124373
H19   H     H_    0.042866 0.538800 0.718069 0.119644
H20   H     H_    0.266688 0.656387 0.075449 0.079553
H21   H     H_    0.452854 0.862730 0.535102 0.078310
H22   H     H_    0.423614 0.344576 0.531352 0.075565
H23   H     H_    0.971774 0.669766 0.699567 -0.046298
H24   H     H_    0.973525 0.248525 0.697622 0.139576
H25   H     H_    0.328507 0.328903 0.430846 -0.010625
H26   H     H_    0.128319 0.316165 0.446956 0.105818
H27   H     H_    0.587708 0.174804 0.611842 0.044940
H28   H     H_    0.702930 0.242632 0.589893 0.142789
H29   H     H_    0.786390 0.186370 0.637060 0.119969
H30   H     H_    0.098313 0.187586 0.339259 0.134773
H31   H     H_    0.156098 0.108139 0.373658 0.104517
H32   H     H_    0.012001 0.190054 0.400345 0.167943
H33   H     H_    0.973376 0.809344 0.605698 0.138495
H34   H     H_    0.812259 0.679987 0.653085 0.083165
H35   H     H_    0.759776 0.815074 0.617911 0.137707
H36   H     H_    0.872624 0.891584 0.647814 0.105406
H37   H     H_    0.833333 0.245669 0.308368 0.118997
H38   H     H_    0.789246 0.345400 0.297574 0.086900
H39   H     H_    0.885081 0.322902 0.355938 0.120748
H40   H     H_    0.681771 0.214355 0.723750 0.106290
H41   H     H_    0.510311 0.310921 0.277637 0.088533
H42   H     H_    0.499473 0.850087 0.680358 0.131157
H43   H     H_    0.292154 0.846591 0.695194 0.110348
H44   H     H_    0.446705 0.850670 0.744572 0.118991
H45   H     H_    0.035310 0.802162 0.697366 0.097826
H46   H     H_    0.224657 0.709658 0.720222 0.111503
H47   H     H_    0.398051 0.640487 0.729648 0.131285
H48   H     H_    0.368337 0.732923 0.770840 0.159522
H49   H     H_    0.582681 0.719969 0.705898 0.106916
H50   H     H_    0.580708 0.343948 0.770645 0.146031
H51   H     H_    0.381048 0.338712 0.741151 0.133835
H52   H     H_    0.458737 0.273246 0.783975 0.117740
H53   H     H_    0.177953 0.251571 0.720778 0.064222
H54   H     H_    0.916897 0.672260 0.356762 0.023664
H55   H     H_    0.982467 0.871085 0.326259 0.153739
H56   H     H_    0.824478 0.805557 0.708587 0.072580
H57   H     H_    0.845272 0.862984 0.272371 0.119553
H58   H     H_    0.767884 0.880125 0.335491 0.120777
H59   H     H_    0.506023 0.797568 0.408345 0.111922
H60   H     H_    0.538203 0.832613 0.350878 0.099169
H61   H     H_    0.340736 0.851822 0.378614 0.097161
H62   H     H_    0.229876 0.794175 0.294843 0.079526
H63   H     H_    0.536314 0.702854 0.241448 0.149856
H64   H     H_    0.375787 0.763641 0.214678 0.110627
H65   H     H_    0.504211 0.808008 0.263627 0.125022
H66   H     H_    0.739056 0.346852 0.918123 0.113854
H67   H     H_    0.579944 0.375081 0.365074 0.020259
H68   H     H_    0.684584 0.438170 0.961815 0.128973
H69   H     H_    0.653132 0.435250 0.896123 0.123750
H70   H     H_    0.634388 0.528722 0.240358 0.085180
H71   H     H_    0.200010 0.655000 0.161335 0.105739
H72   H     H_    0.488024 0.656440 0.030626 0.116571
H73   H     H_    0.497830 0.560741 0.050317 0.129723
H74   H     H_    0.618190 0.572927 0.000470 0.118349
H75   H     H_    0.047591 0.109580 0.652291 0.106617
H76   H     H_    0.208773 0.087455 0.607627 0.097519
H77   H     H_    0.255583 0.110241 0.674247 0.073861
H78   H     H_    0.550287 0.216935 0.298506 0.116183
H79   H     H_    0.807341 0.424536 0.415938 0.099065
H80   H     H_    0.784233 0.531084 0.437557 0.125624
H81   H     H_    0.626160 0.479377 0.409215 0.135586
H82   H     H_    0.358295 0.450253 0.603043 0.060927
H83   H     H_    0.656528 0.961206 0.595583 0.110831
H84   H     H_    0.715519 0.050198 0.583331 0.123216
H85   H     H_    0.502555 0.039417 0.587444 0.105661
H86   H     H_    0.759219 0.158235 0.465999 0.102569
H87   H     H_    0.888993 0.903735 0.468772 0.073058
H88   H     H_    0.571840 0.050422 0.405584 0.119428
H89   H     H_    0.390576 0.289792 0.325278 0.140482
H90   H     H_    0.737225 0.978221 0.417110 0.113141
H91   H     H_    0.530357 0.956613 0.415765 0.119095
H92   H     H_    0.337082 0.101821 0.533381 0.066703
H93   H     H_    0.083952 0.324894 0.685057 0.161448
H94   H     H_    0.847120 0.662505 0.560247 0.115633
H95   H     H_    0.886140 0.615567 0.496437 0.123797
H96   H     H_    0.021448 0.678748 0.532174 0.148347
N1    N     N_R   0.932073 0.499990 0.204880 -0.424482
N2    N     N_R   0.254694 0.502890 0.798028 -0.420651
O1    O     O_2   0.906370 0.542040 0.619810 -0.471023
O2    O     O_2   0.219345 0.775559 0.468386 -0.487009
O3    O     O_3   0.045851 0.764313 0.384530 -0.626325
O4    O     O_3   0.138370 0.541980 0.559630 -0.467932
O5    O     O_3   0.572820 0.404940 0.471170 -0.516252
O6    O     O_2   0.345130 0.693150 0.532000 -0.468482
O7    O     O_3   0.553761 0.717985 0.613028 -0.683269
O8    O     O_2   0.339137 0.572898 0.328347 -0.492470
O9    O     O_3   0.546521 0.675828 0.333720 -0.640872
O10   O     O_2   0.797018 0.397399 0.175392 -0.599407
O11   O     O_2   0.055236 0.428378 0.773703 -0.601044
O12   O     O_3   0.650068 0.269160 0.390401 -0.644709
O13   O     O_2   0.077751 0.599913 0.228665 -0.627039
O14   O     O_2   0.445914 0.579174 0.829328 -0.609219
O15   O     O_3   0.686580 0.398330 0.583860 -0.470815
O16   O     O_2   0.823318 0.456540 0.670577 -0.435179
O17   O     O_3   0.044379 0.668503 0.626107 -0.659146
O18   O     O_3   0.712468 0.334763 0.678666 -0.578569
O19   O     O_2   0.844570 0.306830 0.467970 -0.466276
O20   O     O_3   0.101900 0.357890 0.557750 -0.468586
O21   O     O_2   0.065261 0.220560 0.502205 -0.493294
O22   O     O_3   0.048533 0.226730 0.599448 -0.566334
O23   O     O_2   0.283330 0.457940 0.380160 -0.480518
O24   O     O_3   0.051340 0.457960 0.440360 -0.503224
O25   O     O_3   0.503130 0.601610 0.416130 -0.477587
O26   O     O_3   0.156304 0.332132 0.373651 -0.656176
O27   O     O_3   0.616890 0.595000 0.528820 -0.474104
O28   O     O_3   0.087820 0.642040 0.442240 -0.482211
P1    P     P_3+3 0.071770 0.565500 0.613330 0.972252
P2    P     P_3+3 0.664870 0.318630 0.453960 0.947124
P3    P     P_3+3 0.148509 0.256781 0.551505 0.956804
P4    P     P_3+3 0.117940 0.434440 0.386660 0.964551
P5    P     P_3+3 0.062289 0.743945 0.446122 0.944263
P6    P     P_3+3 0.671304 0.419088 0.650697 1.000858
P7    P     P_3+3 0.530170 0.694041 0.547359 0.948080
P8    P     P_3+3 0.511373 0.586256 0.349326 0.937050

loop_
_geom_bond_atom_site_label_1
_geom_bond_atom_site_label_2
_ccdc_geom_bond_type
O23   P4    D    
C19   C24   A    
C80   H85   S    
C83   N1    Am   
C64   H28   S    
C81   H90   S    
C63   H89   S    
C82   H94   S    
O20   P3    S    
Ba1   O15   S    
O16   P6    D    
Ba2   O6    S    
C65   H31   S    
C6    P4    S    
C75   H66   S    
C28   O26   S    
C54   P7    S    
C51   C57   A    
C80   H83   S    
C73   H60   S    
C41   C76   S    
C23   H5    S    
O26   P4    S    
C10   C83   A    
C28   H25   S    
C82   H96   S    
C17   C19   A    
C56   H8    S    
C22   C24   A    
C12   H2    S    
C32   C33   S    
C35   C38   A    
C23   O7    S    
C36   C37   A    
C58   C81   S    
C81   H91   S    
C55   C57   A    
C45   C56   S    
C52   C61   S    
C33   N2    S    
C27   O11   D    
C62   O12   S    
O21   P3    D    
C52   O17   S    
C54   C55   A    
C16   H53   S    
Ba1   Ba2   S    
C61   H45   S    
C82   H95   S    
C65   H30   S    
Ba2   O4    S    
C50   P2    S    
C4    O22   S    
C17   C35   A    
C51   H87   S    
C75   H68   S    
C22   C27   A    
C9    C13   A    
C68   H38   S    
C76   H73   S    
C78   H62   S    
C71   H50   S    
C6    C7    D    
C11   C38   A    
O3    P5    S    
C21   C22   A    
C16   H24   S    
O1    P1    D    
Ba2   O23   S    
C62   C68   S    
C64   H29   S    
C7    C8    S    
C30   P6    S    
C34   C69   S    
C37   C43   A    
C39   H71   S    
C66   H33   S    
O25   P8    S    
Ba1   O4    S    
C55   H21   S    
C72   H57   S    
C80   H84   S    
Ba2   P4    S    
C6    C14   D    
C52   H34   S    
Ba1   P1    S    
C69   H42   S    
C15   C31   D    
C77   H76   S    
C1    C71   S    
Ba1   O19   S    
O7    P7    S    
C67   O9    S    
C42   H18   S    
C43   H20   S    
C70   H47   S    
C47   H92   S    
C51   C53   A    
C73   H61   S    
C12   C64   S    
C4    C16   S    
C46   P3    S    
C57   C59   S    
Ba2   O27   S    
C49   C50   D    
C17   C20   A    
O28   P5    S    
C13   C39   A    
C67   H9    S    
C15   H82   S    
C40   H12   S    
O8    P8    D    
C77   H75   S    
C3    C5    S    
C18   C37   A    
C63   H41   S    
C38   H17   S    
C48   C49   S    
C3    H70   S    
C72   H55   S    
C32   H19   S    
C34   H49   S    
C58   C59   D    
C78   H10   S    
C11   H14   S    
C9    C36   A    
C41   C42   A    
C7    H13   S    
C35   C36   A    
C75   H69   S    
C69   H44   S    
C68   H37   S    
C76   H72   S    
C29   C30   S    
C71   H51   S    
C74   H65   S    
C79   H81   S    
C44   H22   S    
C63   H78   S    
O24   P4    S    
C31   C32   D    
Ba2   O28   S    
O17   P1    S    
C29   H15   S    
C18   C19   A    
C45   O3    S    
C65   H32   S    
C74   H63   S    
C1    C12   S    
C40   H1    S    
C53   C60   A    
C46   C47   S    
C62   H67   S    
O22   P3    S    
C4    H11   S    
C81   H88   S    
C24   C25   A    
C40   C65   S    
C8    N1    S    
C79   H79   S    
C54   C60   A    
C69   H43   S    
C72   H58   S    
Ba2   O25   S    
C77   H77   S    
Ba1   O20   S    
C53   P5    S    
C18   C41   A    
O6    P7    D    
C56   C72   S    
C70   H46   S    
Ba1   O5    S    
C2    O13   D    
C60   C82   S    
C61   C66   S    
C5    C14   S    
C79   H80   S    
C27   N2    Am   
C1    H3    S    
C45   H6    S    
C26   N2    Am   
C74   C78   S    
C20   C75   S    
O4    P1    S    
C61   H56   S    
C66   H36   S    
C9    C10   A    
C1    H40   S    
Ba1   O27   S    
C64   H27   S    
C23   H4    S    
C26   O14   D    
O27   P7    S    
O2    P5    D    
C52   H23   S    
C28   H26   S    
C59   C80   S    
C48   C58   S    
C12   O18   S    
C2    C13   A    
C49   H86   S    
O18   P6    S    
C3    C8    D    
C62   C63   S    
C44   C50   D    
Ba1   P2    S    
C83   O10   D    
C70   H48   S    
C21   H16   S    
O5    P2    S    
C71   H52   S    
C74   H64   S    
C14   C79   S    
C31   P1    S    
Ba1   O1    S    
C67   C73   S    
C29   C33   D    
O19   P2    D    
Ba1   O24   S    
Ba2   O5    S    
O12   P2    S    
C73   H59   S    
C23   C34   S    
C4    C77   S    
O15   P6    S    
C44   C46   S    
C68   H39   S    
C76   H74   S    
C10   C11   A    
C16   H93   S    
C47   C48   D    
C45   H54   S    
C5    P8    S    
C15   C30   S    
C39   C43   A    
C20   C21   A    
C28   C40   S    
C67   C78   S    
Ba2   O24   S    
O9    P8    S    
C2    N1    Am   
C25   C42   A    
C56   H7    S    
C66   H35   S    
C34   C70   S    
C25   C26   A    
