data_mof_unit_26306.cif
_audit_creation_date              2012-12-11T15:34:54-0500
_audit_creation_method            fapswitch 2.2
_symmetry_space_group_name_H-M    P1
_symmetry_Int_Tables_number       1
_space_group_crystal_system       triclinic
_cell_length_a                    30.508692
_cell_length_b                    7.246557
_cell_length_c                    26.009012
_cell_angle_alpha                 90.036003
_cell_angle_beta                  112.226144
_cell_angle_gamma                 90.03468
_cell_volume                      5322.89933958

loop_
_atom_site_label
_atom_site_type_symbol
_atom_type_description
_atom_site_fract_x
_atom_site_fract_y
_atom_site_fract_z
_atom_type_partial_charge
O1    O     O_R   0.295360 0.592990 0.320420 -0.528443
O2    O     O_R   0.704640 0.407010 0.679580 -0.535551
O3    O     O_R   0.204640 0.092990 0.179580 -0.528740
O4    O     O_R   0.795360 0.907010 0.820420 -0.535448
O5    O     O_R   0.294060 0.265620 0.213230 -0.529455
O6    O     O_R   0.705940 0.734380 0.786770 -0.534571
O7    O     O_R   0.205940 0.765620 0.286770 -0.529154
O8    O     O_R   0.794060 0.234380 0.713230 -0.534909
C1    C     C_R   0.305109 0.432544 0.200623 0.723721
C2    C     C_R   0.694842 0.567418 0.799281 0.722650
C3    C     C_R   0.194898 0.932528 0.299385 0.723364
C4    C     C_R   0.805163 0.067440 0.700723 0.724722
O9    O     O_R   0.300850 0.263360 0.322080 -0.536759
O10   O     O_R   0.699150 0.736640 0.677920 -0.528081
O11   O     O_R   0.199150 0.763360 0.177920 -0.535855
O12   O     O_R   0.800850 0.236640 0.822080 -0.529803
O13   O     O_R   0.211480 0.091820 0.289210 -0.538851
O14   O     O_R   0.788520 0.908180 0.710790 -0.530941
O15   O     O_R   0.288520 0.591820 0.210790 -0.538838
O16   O     O_R   0.711480 0.408180 0.789210 -0.531666
C5    C     C_R   0.313263 0.431754 0.343309 0.668072
C6    C     C_R   0.686745 0.568263 0.656704 0.667659
C7    C     C_R   0.186759 0.931511 0.156668 0.668412
C8    C     C_R   0.813205 0.068481 0.843346 0.668044
O17   O     O_3   0.220670 0.426670 0.239090 -0.371593
O18   O     O_3   0.779330 0.573330 0.760910 -0.371941
O19   O     O_3   0.279330 0.926670 0.260910 -0.372213
O20   O     O_3   0.720670 0.073330 0.739090 -0.371394
V1    V     V_3+5 0.255440 0.152290 0.252020 1.476539
V2    V     V_3+5 0.744560 0.847710 0.747980 1.484510
V3    V     V_3+5 0.244560 0.652290 0.247980 1.478772
V4    V     V_3+5 0.755440 0.347710 0.752020 1.482488
C9    C     C_R   0.849343 0.062087 0.900510 -0.172197
C10   C     C_R   0.150585 0.937816 0.099507 -0.172061
C11   C     C_R   0.650995 0.561204 0.599332 -0.173073
C12   C     C_R   0.349726 0.439481 0.400289 -0.172361
C13   C     C_R   0.872279 0.081474 0.000153 -0.106626
C14   C     C_R   0.127604 0.918053 0.999860 -0.108041
C15   C     C_R   0.629631 0.560572 0.499797 -0.096273
C16   C     C_R   0.372922 0.432112 0.500094 -0.108660
C17   C     C_R   0.837453 0.098630 0.946991 0.366846
C18   C     C_R   0.162454 0.901281 0.053009 0.370755
C19   C     C_R   0.664344 0.574516 0.553113 0.367527
C20   C     C_R   0.338109 0.407911 0.447205 0.370572
C21   C     C_R   0.896699 0.023330 0.908783 -0.145896
C22   C     C_R   0.103206 0.976129 0.091254 -0.148708
C23   C     C_R   0.602889 0.540208 0.590583 -0.147933
C24   C     C_R   0.396950 0.478899 0.408000 -0.151119
C25   C     C_R   0.933391 0.026276 0.962681 0.080995
C26   C     C_R   0.066502 0.973062 0.037358 0.081066
C27   C     C_R   0.566669 0.543078 0.536325 0.083330
C28   C     C_R   0.433701 0.483402 0.461843 0.080347
C29   C     C_R   0.919390 0.034319 0.008673 -0.102621
C30   C     C_R   0.080493 0.965025 0.991356 -0.101648
C31   C     C_R   0.581116 0.543171 0.490522 -0.101327
C32   C     C_R   0.419758 0.481653 0.507937 -0.100915
C33   C     C_R   0.983056 0.016305 0.972406 -0.091049
C34   C     C_R   0.016833 0.982943 0.027633 -0.090832
C35   C     C_R   0.516876 0.537207 0.526213 -0.090861
C36   C     C_R   0.483305 0.496173 0.471422 -0.093009
C37   C     C_R   0.999725 0.950847 0.070747 0.358182
C38   C     C_R   0.000159 0.048367 0.929287 0.357368
C39   C     C_R   0.500642 0.462774 0.428601 0.359666
C40   C     C_R   0.499571 0.576758 0.568701 0.355591
C41   C     C_R   0.952159 0.989558 0.062230 0.276537
C42   C     C_R   0.047718 0.009641 0.937797 0.275186
C43   C     C_R   0.547472 0.511063 0.436460 0.267005
C44   C     C_R   0.452224 0.535969 0.560774 0.275488
C45   C     C_R   0.093102 0.969400 0.480224 0.635927
C46   C     C_R   0.907844 0.047757 0.520410 0.636860
C47   C     C_R   0.406928 0.470451 0.019829 0.636134
C48   C     C_R   0.592271 0.546783 0.979684 0.636364
N1    N     N_R   0.073401 0.987263 0.423730 -0.558155
N2    N     N_R   0.927710 0.041949 0.577151 -0.556007
N3    N     N_R   0.426683 0.487380 0.076362 -0.557970
N4    N     N_R   0.572368 0.541782 0.922933 -0.556135
C49   C     C_R   0.025941 0.017313 0.396614 0.622108
C50   C     C_R   0.975643 0.026236 0.604555 0.616174
C51   C     C_R   0.474200 0.516449 0.103519 0.621468
C52   C     C_R   0.524408 0.526956 0.895517 0.616410
C53   C     C_R   0.996038 0.039188 0.426699 -0.180265
C54   C     C_R   0.005761 0.006114 0.574682 -0.178328
C55   C     C_R   0.504123 0.538254 0.073455 -0.179927
C56   C     C_R   0.494272 0.506988 0.925374 -0.178426
C57   C     C_R   0.015786 0.019450 0.485207 -0.099309
C58   C     C_R   0.986137 0.027399 0.516238 -0.096565
C59   C     C_R   0.484316 0.519480 0.014904 -0.099319
C60   C     C_R   0.513959 0.527363 0.983864 -0.096571
C61   C     C_R   0.065131 0.990955 0.512679 -0.188621
C62   C     C_R   0.936768 0.054611 0.488772 -0.191865
C63   C     C_R   0.434915 0.492013 0.987394 -0.188813
C64   C     C_R   0.563380 0.553601 0.011364 -0.191558
C65   C     C_R   0.947057 0.079504 0.400160 0.380888
C66   C     C_R   0.055084 0.973454 0.601541 0.379864
C67   C     C_R   0.553179 0.577553 0.100056 0.380748
C68   C     C_R   0.444886 0.475376 0.898470 0.379876
C69   C     C_R   0.917889 0.086711 0.430656 0.383188
C70   C     C_R   0.084612 0.978277 0.571504 0.379119
C71   C     C_R   0.582340 0.584727 0.069550 0.382965
C72   C     C_R   0.415385 0.480322 0.928540 0.379136
O21   O     O_2   0.139374 0.925539 0.504373 -0.478095
O22   O     O_2   0.860262 0.044325 0.495001 -0.472299
O23   O     O_2   0.360579 0.427503 0.995611 -0.478029
O24   O     O_2   0.639852 0.542611 0.005057 -0.472939
O25   O     O_2   0.007881 0.022366 0.340627 -0.489420
O26   O     O_2   0.993937 0.034961 0.660511 -0.491712
O27   O     O_2   0.492291 0.520603 0.159518 -0.490525
O28   O     O_2   0.506114 0.536393 0.839575 -0.491411
C73   C     C_R   0.893615 0.896540 0.638991 -0.081075
C74   C     C_R   0.101474 0.817234 0.360104 -0.073471
C75   C     C_R   0.606384 0.396365 0.861010 -0.081032
C76   C     C_R   0.398424 0.317112 0.139760 -0.073722
H1    H     H_    0.913411 0.772889 0.638507 0.176528
H2    H     H_    0.077224 0.706905 0.359253 0.171806
H3    H     H_    0.586547 0.272689 0.861450 0.176244
H4    H     H_    0.422546 0.206600 0.140452 0.171783
C77   C     C_R   0.866071 0.900369 0.671533 0.339166
C78   C     C_R   0.128874 0.802273 0.327488 0.345396
C79   C     C_R   0.633915 0.400209 0.828450 0.338590
C80   C     C_R   0.371010 0.302109 0.172356 0.345039
C81   C     C_R   0.838729 0.059764 0.671204 -0.239521
C82   C     C_R   0.161713 0.944281 0.329381 -0.241938
C83   C     C_R   0.661290 0.559688 0.828819 -0.238628
C84   C     C_R   0.338322 0.444328 0.170657 -0.242307
C85   C     C_R   0.842963 0.215063 0.640820 -0.179913
C86   C     C_R   0.163363 0.102360 0.361670 -0.175687
C87   C     C_R   0.657115 0.715011 0.859272 -0.181643
C88   C     C_R   0.336859 0.602661 0.138597 -0.174877
H5    H     H_    0.823087 0.339416 0.640294 0.190346
H6    H     H_    0.187521 0.214050 0.363510 0.178582
H7    H     H_    0.677019 0.839417 0.859830 0.189942
H8    H     H_    0.312835 0.714547 0.136916 0.179139
C89   C     C_R   0.872611 0.214539 0.610776 0.428817
C90   C     C_R   0.134311 0.121085 0.392058 0.428456
C91   C     C_R   0.627507 0.714422 0.889367 0.427664
C92   C     C_R   0.365941 0.621429 0.108247 0.428129
C93   C     C_R   0.897610 0.051507 0.608807 0.178556
C94   C     C_R   0.103410 0.975181 0.392070 0.173853
C95   C     C_R   0.602460 0.551345 0.891273 0.179667
C96   C     C_R   0.396672 0.475306 0.108021 0.173687
O29   O     O_3   0.938388 0.974421 0.106925 -0.623815
H9    H     H_    0.907411 0.910344 0.094326 0.311179
O30   O     O_3   0.061480 0.024669 0.893093 -0.625058
H10   H     H_    0.092422 0.089002 0.905658 0.310722
O31   O     O_3   0.559868 0.514075 0.390624 -0.624248
H11   H     H_    0.579871 0.624453 0.393666 0.313134
O32   O     O_3   0.438340 0.558586 0.605172 -0.625210
H12   H     H_    0.406858 0.618696 0.591553 0.310526
O33   O     O_3   0.876156 0.376063 0.584455 -0.615871
H13   H     H_    0.902374 0.365655 0.571041 0.299857
O34   O     O_3   0.137283 0.284042 0.420778 -0.609060
H14   H     H_    0.112121 0.287664 0.436043 0.302871
O35   O     O_3   0.624050 0.875920 0.915799 -0.616596
H15   H     H_    0.597931 0.865303 0.929374 0.300078
O36   O     O_3   0.363166 0.784645 0.079777 -0.609255
H16   H     H_    0.388375 0.788311 0.064582 0.302604
H17   H     H_    0.096309 0.014610 0.127554 0.173701
H18   H     H_    0.903589 0.984632 0.872492 0.170190
H19   H     H_    0.403549 0.513603 0.371263 0.174228
H20   H     H_    0.595040 0.512987 0.626958 0.170042
O37   O     O_3   0.207646 0.856320 0.056881 -0.620714
H21   H     H_    0.229526 0.852176 0.096216 0.285258
O38   O     O_3   0.792262 0.143879 0.943086 -0.620888
H22   H     H_    0.770417 0.149182 0.903736 0.293000
O39   O     O_3   0.293127 0.361832 0.443902 -0.620476
H23   H     H_    0.271521 0.348199 0.404664 0.285309
O40   O     O_3   0.710755 0.593711 0.557536 -0.619755
H24   H     H_    0.732240 0.602835 0.596975 0.291180
H25   H     H_    0.861719 0.105710 0.034897 0.177144
H26   H     H_    0.138156 0.893776 0.965112 0.176434
H27   H     H_    0.641777 0.557899 0.465762 0.175319
H28   H     H_    0.362542 0.412188 0.535158 0.176339
O41   O     O_3   0.028916 0.865854 0.119299 -0.649815
H29   H     H_    0.011522 0.836498 0.143563 0.348973
O42   O     O_3   0.970973 0.133363 0.880735 -0.648259
H30   H     H_    0.988375 0.162763 0.856483 0.348835
O43   O     O_3   0.472150 0.374849 0.380236 -0.649269
H31   H     H_    0.490615 0.340431 0.357528 0.350700
O44   O     O_3   0.528282 0.671067 0.615729 -0.647414
H32   H     H_    0.510733 0.704160 0.639541 0.348552
O45   O     O_3   0.926577 0.122318 0.344542 -0.557003
H33   H     H_    0.945834 0.222743 0.337794 0.333801
O46   O     O_3   0.076094 0.936846 0.657543 -0.559529
H34   H     H_    0.057147 0.838301 0.665757 0.335541
O47   O     O_3   0.573759 0.619374 0.155766 -0.557526
H35   H     H_    0.554696 0.720008 0.162739 0.333193
O48   O     O_3   0.423787 0.439744 0.842392 -0.559447
H36   H     H_    0.442528 0.340927 0.833970 0.335656
O49   O     O_3   0.871395 0.137161 0.402351 -0.555573
H37   H     H_    0.864359 0.238131 0.423799 0.336239
O50   O     O_3   0.132626 0.966920 0.601427 -0.558115
H38   H     H_    0.147463 0.070000 0.588805 0.342909
O51   O     O_3   0.628929 0.634144 0.097939 -0.555795
H39   H     H_    0.636117 0.735397 0.076724 0.336062
O52   O     O_3   0.367344 0.470098 0.898615 -0.558073
H40   H     H_    0.352704 0.573205 0.911478 0.342832
O53   O     O_3   0.867930 0.747549 0.703799 -0.620955
H41   H     H_    0.866525 0.790472 0.739295 0.298253
O54   O     O_3   0.121411 0.649652 0.293589 -0.616394
H42   H     H_    0.124788 0.688047 0.258749 0.302457
O55   O     O_3   0.632003 0.247330 0.796127 -0.621002
H43   H     H_    0.633454 0.290167 0.760662 0.298240
O56   O     O_3   0.378304 0.149206 0.206041 -0.616885
H44   H     H_    0.375099 0.187534 0.240994 0.302098

loop_
_geom_bond_atom_site_label_1
_geom_bond_atom_site_label_2
_ccdc_geom_bond_type
O17   V3    S    
C55   C59   A    
O56   H44   S    
C25   C29   A    
O1    C5    A    
O39   H23   S    
C54   C66   A    
C59   C63   A    
O19   V1    S    
O13   V1    S    
O55   H43   S    
C76   C96   A    
O3    C7    A    
O38   H22   S    
C79   O55   S    
C76   H4    S    
C48   N4    A    
C11   C23   A    
C74   C78   A    
O37   H21   S    
O47   H35   S    
C18   O37   S    
C73   C77   A    
C33   C38   A    
C5    C12   S    
O45   H33   S    
C89   O33   S    
C89   C93   A    
C6    C11   S    
C35   C40   A    
C26   C30   A    
C36   C39   A    
C40   C44   A    
O2    V4    S    
C87   C91   A    
C53   C65   A    
C14   C18   A    
N3    C96   S    
C88   C92   A    
C13   H25   S    
C48   C64   A    
C67   C71   A    
C72   O52   S    
N1    C94   S    
C86   H6    S    
O30   H10   S    
O1    V3    S    
C1    C84   S    
C9    C21   A    
C31   C43   A    
C73   C93   A    
C78   C82   A    
C32   C44   A    
O3    V1    S    
C77   C81   A    
C15   H27   S    
C28   C36   A    
C81   C85   A    
C28   C32   A    
C65   O45   S    
C92   C96   A    
C1    O15   A    
C15   C31   A    
C4    C81   S    
O32   H12   S    
C2    O16   A    
C69   O49   S    
C16   C32   A    
C10   C18   A    
O2    C6    A    
O34   H14   S    
C45   N1    A    
C10   C22   A    
C21   C25   A    
C63   C72   A    
C11   C19   A    
C74   H2    S    
C62   C69   A    
C52   C56   A    
C84   C88   A    
C13   C29   A    
C34   C37   A    
O11   C7    A    
O15   V3    S    
C35   C36   A    
O12   C8    A    
C68   O48   S    
C46   C62   A    
O10   V2    S    
C45   C61   A    
C78   O54   S    
C88   H8    S    
C24   H19   S    
C14   H26   S    
O5    V1    S    
C23   H20   S    
N2    C93   S    
C39   C43   A    
O7    V3    S    
C38   C42   A    
C75   C95   A    
O50   H38   S    
C26   C34   A    
C60   C64   A    
C74   C94   A    
C37   O41   S    
C2    C83   S    
C58   C62   A    
O40   H24   S    
C76   C80   A    
C92   O36   S    
C57   C61   A    
O18   V4    S    
C15   C19   A    
C42   O30   S    
C48   O24   S    
O41   H29   S    
C22   H17   S    
O4    V2    S    
C43   O31   S    
O44   H32   S    
O8    V4    S    
C82   C86   A    
O7    C3    A    
O46   H34   S    
C46   N2    A    
C37   C41   A    
C41   O29   S    
C50   C54   A    
C83   C87   A    
O42   H30   S    
C14   C30   A    
C49   C53   A    
O8    C4    A    
C7    C10   S    
C55   C67   A    
C52   O28   S    
C51   O27   S    
C77   O53   S    
C73   H1    S    
C57   C58   A    
C44   O32   S    
O14   V2    S    
C75   C79   A    
O6    V2    S    
C16   C20   A    
O43   H31   S    
C19   O40   S    
C17   O38   S    
C12   C20   A    
C3    C82   S    
C27   C35   A    
C66   O46   S    
O9    V1    S    
C4    O14   A    
C65   C69   A    
O31   H11   S    
C16   H28   S    
C29   C41   A    
C67   O47   S    
O16   V4    S    
N4    C95   S    
C85   C89   A    
O49   H37   S    
C40   O44   S    
C47   O23   S    
C3    O13   A    
N1    C49   A    
C21   H18   S    
C56   C60   A    
O5    C1    A    
C70   O50   S    
C91   O35   S    
C90   C94   A    
C25   C33   A    
C23   C27   A    
N4    C52   A    
C46   O22   S    
O11   V3    S    
C30   C42   A    
C79   C83   A    
O12   V4    S    
C22   C26   A    
C8    C9    S    
C39   O43   S    
C61   C70   A    
C50   O26   S    
C91   C95   A    
C9    C17   A    
O10   C6    A    
O20   V2    S    
O48   H36   S    
C54   C58   A    
O29   H9    S    
O9    C5    A    
C47   N3    A    
C33   C34   A    
C71   O51   S    
O4    C8    A    
C90   O34   S    
C68   C72   A    
C49   O25   S    
C12   C24   A    
C27   C31   A    
C20   O39   S    
C13   C17   A    
O53   H41   S    
C87   H7    S    
O6    C2    A    
O54   H42   S    
O52   H40   S    
C51   C55   A    
C85   H5    S    
C24   C28   A    
C47   C63   A    
C86   C90   A    
C59   C60   A    
O51   H39   S    
N2    C50   A    
C38   O42   S    
O36   H16   S    
C80   O56   S    
C66   C70   A    
C75   H3    S    
C56   C68   A    
O35   H15   S    
O33   H13   S    
N3    C51   A    
C53   C57   A    
C80   C84   A    
C64   C71   A    
C45   O21   S    
