data_mof_unit_53571.cif
_audit_creation_date              2012-12-11T16:51:07-0500
_audit_creation_method            fapswitch 2.2
_symmetry_space_group_name_H-M    P1
_symmetry_Int_Tables_number       1
_space_group_crystal_system       triclinic
_cell_length_a                    24.552337
_cell_length_b                    17.192177
_cell_length_c                    15.626272
_cell_angle_alpha                 90.000036
_cell_angle_beta                  129.388919
_cell_angle_gamma                 89.99933
_cell_volume                      5097.74198153

loop_
_atom_site_label
_atom_site_type_symbol
_atom_type_description
_atom_site_fract_x
_atom_site_fract_y
_atom_site_fract_z
_atom_type_partial_charge
C1    C     C_R   0.843560 0.866154 0.225516 0.536724
C2    C     C_R   0.137878 0.188959 0.502206 0.060957
C3    C     C_R   0.362125 0.688963 0.497793 0.060948
C4    C     C_R   0.637873 0.688963 0.502205 0.060952
C5    C     C_R   0.851607 0.125277 0.135096 0.149832
C6    C     C_R   0.148398 0.125256 0.864916 0.149842
C7    C     C_R   0.351604 0.625262 0.135087 0.149834
C8    C     C_R   0.648407 0.625226 0.864936 0.149927
C9    C     C_R   0.791503 0.810729 0.604560 -0.060885
C10   C     C_R   0.208502 0.810751 0.395432 -0.060861
C11   C     C_R   0.291504 0.310736 0.604564 -0.060862
C12   C     C_R   0.156444 0.866159 0.774492 0.536747
C13   C     C_R   0.708497 0.310728 0.395444 -0.060873
C14   C     C_R   0.766714 0.854483 0.511410 -0.027193
C15   C     C_R   0.233290 0.854497 0.488589 -0.027197
C16   C     C_R   0.266714 0.354487 0.511411 -0.027204
C17   C     C_R   0.733286 0.354485 0.488590 -0.027196
C18   C     C_R   0.694598 0.855020 0.420336 -0.264599
C19   C     C_R   0.305406 0.855027 0.579665 -0.264606
C20   C     C_R   0.194599 0.355020 0.420336 -0.264603
C21   C     C_R   0.805402 0.355023 0.579661 -0.264606
C22   C     C_R   0.148353 0.308563 0.421385 0.557434
C23   C     C_R   0.343555 0.366161 0.225505 0.536743
C24   C     C_R   0.851650 0.308568 0.578611 0.557440
C25   C     C_R   0.648351 0.808566 0.421387 0.557433
C26   C     C_R   0.351652 0.808570 0.578615 0.557430
C27   C     C_R   0.175665 0.257677 0.511426 -0.125474
C28   C     C_R   0.824339 0.257681 0.488572 -0.125466
C29   C     C_R   0.675661 0.757680 0.511428 -0.125463
C30   C     C_R   0.324341 0.757686 0.488572 -0.125480
C31   C     C_R   0.247248 0.261462 0.604418 -0.029907
C32   C     C_R   0.752754 0.261458 0.395588 -0.029927
C33   C     C_R   0.747245 0.761460 0.604416 -0.029920
C34   C     C_R   0.656451 0.366169 0.774507 0.536743
C35   C     C_R   0.252758 0.761476 0.395578 -0.029906
C36   C     C_3   0.778888 0.783457 0.720879 0.267832
C37   C     C_3   0.221127 0.783485 0.279123 0.267821
C38   C     C_3   0.278883 0.283462 0.720876 0.267840
C39   C     C_3   0.721108 0.283446 0.279123 0.267840
C40   C     C_R   0.113186 0.899133 0.406666 -0.052430
C41   C     C_R   0.886816 0.899128 0.593335 -0.052454
C42   C     C_R   0.613184 0.399129 0.406665 -0.052450
C43   C     C_R   0.386817 0.399127 0.593335 -0.052450
C44   C     C_3   0.825288 0.840126 0.718934 0.264032
C45   C     C_R   0.908661 0.142674 0.590520 0.545614
C46   C     C_3   0.174733 0.840164 0.281069 0.263992
C47   C     C_3   0.325278 0.340139 0.718931 0.263997
C48   C     C_3   0.674708 0.340117 0.281068 0.264021
C49   C     C_2   0.160595 0.759829 0.890024 0.430940
C50   C     C_2   0.839422 0.759822 0.109993 0.430857
C51   C     C_2   0.660609 0.259845 0.890052 0.430998
C52   C     C_2   0.339405 0.259833 0.109971 0.430932
C53   C     C_2   0.188188 0.701452 0.870609 0.521269
C54   C     C_2   0.811816 0.701446 0.129387 0.521355
C55   C     C_2   0.688185 0.201461 0.870617 0.521252
C56   C     C_R   0.091344 0.142670 0.409480 0.545616
C57   C     C_2   0.311814 0.201455 0.129386 0.521276
C58   C     C_2   0.803941 0.151834 0.019910 -0.173206
C59   C     C_2   0.196067 0.151792 0.980113 -0.173262
C60   C     C_2   0.303936 0.651804 0.019893 -0.173242
C61   C     C_2   0.696084 0.651722 0.980155 -0.173410
C62   C     C_2   0.734069 0.145519 0.959743 -0.248120
C63   C     C_2   0.265940 0.145513 0.040255 -0.248128
C64   C     C_2   0.234064 0.645510 0.959739 -0.248136
C65   C     C_2   0.765959 0.645500 0.040252 -0.248098
C66   C     C_R   0.188169 0.897325 0.589356 -0.044142
C67   C     C_R   0.408660 0.642674 0.590519 0.545620
C68   C     C_R   0.811833 0.897321 0.410644 -0.044153
C69   C     C_R   0.688167 0.397321 0.589356 -0.044161
C70   C     C_R   0.311833 0.397322 0.410644 -0.044153
C71   C     C_R   0.064358 0.864203 0.771437 0.437868
C72   C     C_R   0.935650 0.864197 0.228578 0.437866
C73   C     C_R   0.564365 0.364213 0.771454 0.437873
C74   C     C_R   0.435642 0.364204 0.228561 0.437865
C75   C     C_R   0.873055 0.825767 0.187276 -0.274348
C76   C     C_R   0.126956 0.825776 0.812743 -0.274399
C77   C     C_R   0.373044 0.325779 0.187253 -0.274388
C78   C     C_R   0.591341 0.642673 0.409480 0.545613
C79   C     C_R   0.626967 0.325792 0.812770 -0.274398
C80   C     C_R   0.181063 0.882501 0.496055 0.055311
C81   C     C_R   0.818940 0.882493 0.503946 0.055321
C82   C     C_R   0.681061 0.382495 0.496055 0.055318
C83   C     C_R   0.318940 0.382494 0.503946 0.055326
C84   C     C_R   0.841607 0.145456 0.407537 -0.199544
C85   C     C_R   0.158398 0.145453 0.592464 -0.199566
C86   C     C_R   0.341603 0.645455 0.407536 -0.199576
C87   C     C_R   0.658393 0.645456 0.592463 -0.199551
C88   C     C_R   0.921975 0.106255 0.196593 -0.055662
C89   C     C_R   0.862128 0.188964 0.497794 0.060946
C90   C     C_R   0.078028 0.106242 0.803415 -0.055627
C91   C     C_R   0.421973 0.606245 0.196588 -0.055646
C92   C     C_R   0.578035 0.606221 0.803428 -0.055608
C93   C     C_R   0.167401 0.106273 0.801485 -0.127059
C94   C     C_R   0.832601 0.106282 0.198518 -0.127059
C95   C     C_R   0.667404 0.606260 0.801492 -0.127078
C96   C     C_R   0.332599 0.606275 0.198515 -0.127053
Cl1   Cl    Cl    0.057267 0.318290 0.311546 -0.565046
Cl2   Cl    Cl    0.942736 0.318301 0.688445 -0.565032
Cl3   Cl    Cl    0.557264 0.818297 0.311549 -0.565033
Cl4   Cl    Cl    0.442739 0.818297 0.688453 -0.564996
Cl5   Cl    Cl    0.826570 0.704247 0.816088 -0.563152
Cl6   Cl    Cl    0.173434 0.704287 0.183895 -0.563137
Cl7   Cl    Cl    0.326573 0.204258 0.816093 -0.563130
Cl8   Cl    Cl    0.673427 0.204231 0.183928 -0.563154
H1    H     H_    0.740662 0.811999 0.726632 0.060258
H2    H     H_    0.288662 0.113064 0.010190 0.178122
H3    H     H_    0.211342 0.613041 0.989790 0.178103
H4    H     H_    0.788682 0.613126 0.010124 0.178205
H5    H     H_    0.825860 0.185419 0.989175 0.182582
H6    H     H_    0.174145 0.185336 0.010875 0.182570
H7    H     H_    0.325858 0.685366 0.989144 0.182583
H8    H     H_    0.674159 0.685183 0.010982 0.182515
H9    H     H_    0.093955 0.909247 0.323666 0.188625
H10   H     H_    0.906047 0.909238 0.676336 0.188626
H11   H     H_    0.593953 0.409238 0.323663 0.188626
H12   H     H_    0.259363 0.812019 0.273385 0.060261
H13   H     H_    0.406049 0.409235 0.676337 0.188630
H14   H     H_    0.237502 0.900646 0.672308 0.129064
H15   H     H_    0.762500 0.900641 0.327692 0.129065
H16   H     H_    0.737500 0.400639 0.672308 0.129067
H17   H     H_    0.262499 0.400641 0.327693 0.129062
H18   H     H_    0.806330 0.162953 0.322731 0.189513
H19   H     H_    0.193675 0.162948 0.677271 0.189515
H20   H     H_    0.306325 0.662949 0.322729 0.189524
H21   H     H_    0.693667 0.662953 0.677270 0.189515
H22   H     H_    0.949071 0.101825 0.163198 0.133526
H23   H     H_    0.240651 0.311997 0.726622 0.060255
H24   H     H_    0.050934 0.101804 0.836812 0.133505
H25   H     H_    0.449068 0.601809 0.163192 0.133507
H26   H     H_    0.550943 0.601769 0.836828 0.133460
H27   H     H_    0.220207 0.103026 0.828610 0.150782
H28   H     H_    0.779793 0.103039 0.171388 0.150814
H29   H     H_    0.720209 0.603007 0.828609 0.150743
H30   H     H_    0.279792 0.603030 0.171387 0.150793
H31   H     H_    0.674444 0.890300 0.348332 0.180414
H32   H     H_    0.325560 0.890303 0.651673 0.180414
H33   H     H_    0.174445 0.390299 0.348331 0.180410
H34   H     H_    0.759328 0.311985 0.273358 0.060263
H35   H     H_    0.825557 0.390305 0.651664 0.180412
H36   H     H_    0.761182 0.914357 0.188348 0.301785
H37   H     H_    0.238820 0.914363 0.811656 0.301782
H38   H     H_    0.261180 0.414367 0.188347 0.301779
H39   H     H_    0.738820 0.414376 0.811651 0.301787
H40   H     H_    0.909020 0.777213 0.773912 0.375994
H41   H     H_    0.090983 0.777273 0.226051 0.376008
H42   H     H_    0.409023 0.277246 0.773929 0.376011
H43   H     H_    0.590984 0.277206 0.226109 0.376001
H44   H     H_    0.204335 0.652706 0.776793 0.331486
H45   H     H_    0.813099 0.902205 0.720291 0.075131
H46   H     H_    0.795596 0.652725 0.223133 0.331450
H47   H     H_    0.704324 0.152723 0.776787 0.331507
H48   H     H_    0.295658 0.152714 0.223195 0.331492
H49   H     H_    0.155409 0.812309 0.994612 0.347592
H50   H     H_    0.844626 0.812306 0.005426 0.347603
H51   H     H_    0.655456 0.312340 0.994666 0.347521
H52   H     H_    0.344591 0.312318 0.005384 0.347579
H53   H     H_    0.036295 0.799516 0.837993 0.353928
H54   H     H_    0.963728 0.799501 0.162051 0.353915
H55   H     H_    0.536333 0.299563 0.838084 0.353948
H56   H     H_    0.186938 0.902241 0.279735 0.075144
H57   H     H_    0.463703 0.299521 0.161999 0.353931
H58   H     H_    0.934869 0.098193 0.724025 0.299755
H59   H     H_    0.065132 0.098183 0.275975 0.299752
H60   H     H_    0.434877 0.598195 0.724032 0.299754
H61   H     H_    0.565130 0.598189 0.275975 0.299748
H62   H     H_    0.313078 0.402216 0.720275 0.075140
H63   H     H_    0.686894 0.402193 0.279701 0.075133
H64   H     H_    0.711349 0.113028 0.989779 0.178070
N1    N     N_R   0.888400 0.921830 0.294620 -0.142459
N2    N     N_R   0.874350 0.922400 0.443380 -0.057836
N3    N     N_R   0.625650 0.422400 0.556620 -0.057828
N4    N     N_R   0.374350 0.422400 0.443380 -0.057831
N5    N     N_R   0.054230 0.922730 0.705400 -0.097855
N6    N     N_R   0.945770 0.922730 0.294600 -0.097853
N7    N     N_R   0.554230 0.422730 0.705400 -0.097853
N8    N     N_R   0.445770 0.422730 0.294600 -0.097851
N9    N     N_R   0.873790 0.077030 0.443380 -0.075259
N10   N     N_R   0.126210 0.077030 0.556620 -0.075262
N11   N     N_R   0.373790 0.577030 0.443380 -0.075264
N12   N     N_R   0.111600 0.921830 0.705380 -0.142451
N13   N     N_R   0.626210 0.577030 0.556620 -0.075262
N14   N     N_R   0.945200 0.076700 0.294600 -0.063833
N15   N     N_R   0.054800 0.076700 0.705400 -0.063833
N16   N     N_R   0.445200 0.576700 0.294600 -0.063833
N17   N     N_R   0.554800 0.576700 0.705400 -0.063832
N18   N     N_R   0.111030 0.077600 0.705380 -0.058320
N19   N     N_R   0.888970 0.077600 0.294620 -0.058320
N20   N     N_R   0.611030 0.577600 0.705380 -0.058321
N21   N     N_R   0.388970 0.577600 0.294620 -0.058321
N22   N     N_R   0.919490 0.077280 0.556590 -0.125506
N23   N     N_R   0.388400 0.421830 0.294620 -0.142451
N24   N     N_R   0.080510 0.077280 0.443410 -0.125507
N25   N     N_R   0.419490 0.577280 0.556590 -0.125506
N26   N     N_R   0.580510 0.577280 0.443410 -0.125507
N27   N     N_R   0.611600 0.421830 0.705380 -0.142443
N28   N     N_R   0.079940 0.922160 0.443410 -0.049820
N29   N     N_R   0.920060 0.922160 0.556590 -0.049821
N30   N     N_R   0.579940 0.422160 0.443410 -0.049818
N31   N     N_R   0.420060 0.422160 0.556590 -0.049817
N32   N     N_R   0.125650 0.922400 0.556620 -0.057833
Ni1   Ni    Ni4+2 0.882160 0.999430 0.370180 0.207963
Ni2   Ni    Ni4+2 0.117840 0.999430 0.629820 0.207958
Ni3   Ni    Ni4+2 0.382160 0.499430 0.370180 0.207958
Ni4   Ni    Ni4+2 0.617840 0.499430 0.629820 0.207965
Ni5   Ni    Ni4+2 0.012460 0.999430 0.370180 0.229326
Ni6   Ni    Ni4+2 0.987540 0.999430 0.629820 0.229326
Ni7   Ni    Ni4+2 0.512460 0.499430 0.370180 0.229328
Ni8   Ni    Ni4+2 0.487540 0.499430 0.629820 0.229327
O1    O     O_3   0.773939 0.862085 0.179394 -0.716246
O2    O     O_3   0.820657 0.699218 0.226040 -0.735125
O3    O     O_3   0.679294 0.199221 0.773922 -0.735204
O4    O     O_3   0.320682 0.199221 0.226063 -0.735170
O5    O     O_3   0.170204 0.760736 0.987372 -0.722387
O6    O     O_3   0.829831 0.760732 0.012659 -0.722439
O7    O     O_3   0.670246 0.260765 0.987423 -0.722427
O8    O     O_3   0.329795 0.260744 0.012622 -0.722406
O9    O     O_3   0.020911 0.849045 0.796322 -0.741461
O10   O     O_3   0.979102 0.849035 0.203704 -0.741501
O11   O     O_3   0.520919 0.349059 0.796344 -0.741504
O12   O     O_3   0.226064 0.862090 0.820606 -0.716286
O13   O     O_3   0.479089 0.349047 0.203676 -0.741458
O14   O     O_3   0.923134 0.150764 0.690567 -0.710877
O15   O     O_3   0.076875 0.150755 0.309436 -0.710874
O16   O     O_3   0.423139 0.650766 0.690571 -0.710857
O17   O     O_3   0.576870 0.650761 0.309435 -0.710874
O18   O     O_3   0.273935 0.362095 0.179387 -0.716282
O19   O     O_3   0.726071 0.362106 0.820623 -0.716320
O20   O     O_3   0.897983 0.823986 0.797759 -0.635672
O21   O     O_3   0.102035 0.824046 0.202225 -0.635689
O22   O     O_3   0.397974 0.324014 0.797766 -0.635698
O23   O     O_3   0.602016 0.323975 0.202255 -0.635700
O24   O     O_3   0.179318 0.699220 0.773931 -0.735167

loop_
_geom_bond_atom_site_label_1
_geom_bond_atom_site_label_2
_ccdc_geom_bond_type
C34   N27   A    
C58   C62   D    
C62   H64   S    
C56   N24   A    
C29   C33   A    
C3    C30   S    
C58   H5    S    
C43   C83   A    
N24   Ni5   S    
C14   C18   A    
C13   C32   A    
C11   C47   S    
C42   C82   A    
C15   C80   S    
C95   H29   S    
C41   H10   S    
H50   O6    S    
C59   H6    S    
C42   H11   S    
C23   N23   A    
C38   H23   S    
C39   Cl8   S    
C37   H12   S    
N21   Ni3   S    
C15   C19   A    
N26   Ni7   S    
C18   C25   A    
C74   O13   S    
C73   O11   S    
C50   C54   D    
N16   Ni7   S    
H47   O3    S    
C5    C58   S    
C2    C85   A    
C24   Cl2   S    
C45   O14   S    
H46   O2    S    
N8    Ni7   S    
C35   C37   S    
N3    N30   A    
N12   Ni2   S    
C10   C15   A    
H37   O12   S    
H42   O22   S    
C37   Cl6   S    
C53   C64   S    
C50   O6    S    
C84   H18   S    
C55   C62   S    
C49   O5    S    
C52   O8    S    
C33   C36   S    
N18   Ni2   S    
N4    N31   A    
C17   C82   S    
C69   N3    A    
C32   C39   S    
N28   Ni5   S    
C19   C26   A    
C70   N4    A    
C86   N11   A    
N2    Ni1   S    
C88   H22   S    
C69   C82   A    
C48   O23   S    
C68   N2    A    
C25   Cl3   S    
H58   O14   S    
C85   N10   A    
C74   C77   A    
H57   O13   S    
C10   C46   S    
N6    Ni5   S    
N1    N6    A    
C40   C80   A    
H38   O18   S    
C28   C89   S    
H44   O24   S    
C72   N6    A    
C45   C89   A    
C65   H4    S    
C51   C55   D    
C4    C29   S    
N28   N32   A    
C8    C61   S    
H49   O5    S    
C93   N18   A    
C78   O17   S    
H48   O4    S    
C39   H34   S    
C11   C31   A    
N25   Ni8   S    
C91   N16   A    
C3    C86   A    
C9    C33   A    
C5    C88   A    
N17   Ni8   S    
N11   N25   A    
N29   Ni6   S    
C67   O16   S    
C8    C95   A    
N23   Ni3   S    
N7    Ni8   S    
C72   C75   A    
N7    N27   A    
N22   Ni6   S    
H36   O1    S    
C57   C63   S    
C25   C29   A    
H54   O10   S    
H53   O9    S    
C1    O1    S    
C1    C75   A    
C28   C32   A    
C47   O22   S    
C94   N19   A    
C41   N29   A    
N15   N18   A    
H39   O19   S    
C54   C65   S    
C47   H62   S    
C92   N17   A    
N17   N20   A    
C96   H30   S    
N27   Ni4   S    
N5    N12   A    
C19   H32   S    
C6    C90   A    
C27   C31   A    
C55   O3    S    
N20   Ni4   S    
C16   C83   S    
C94   H28   S    
C71   N5    A    
C4    C87   A    
C36   Cl5   S    
C20   H33   S    
C73   N7    A    
N4    Ni3   S    
C92   H26   S    
C9    C14   A    
C74   N8    A    
C38   Cl7   S    
C70   C83   A    
C34   C79   A    
C13   C48   S    
N10   N24   A    
C11   C16   A    
H60   O16   S    
C88   N14   A    
C40   H9    S    
C42   N30   A    
C41   C81   A    
C16   C20   A    
C6    C93   A    
C46   H56   S    
H61   O17   S    
C73   C79   A    
C49   C76   S    
C18   H31   S    
C5    C94   A    
H52   O8    S    
C23   C77   A    
C63   H2    S    
H51   O7    S    
N13   N26   A    
C44   O20   S    
C38   C47   S    
C2    C27   S    
C43   H13   S    
C8    C92   A    
C30   C35   A    
C12   N12   A    
C96   N21   A    
C20   C22   A    
C26   C30   A    
H55   O11   S    
C22   C27   A    
N10   Ni2   S    
C78   N26   A    
N5    Ni6   S    
N9    Ni1   S    
C36   C44   S    
N13   Ni4   S    
C84   C89   A    
C21   H35   S    
C52   C77   S    
C7    C60   S    
C87   H21   S    
C23   O18   S    
C72   O10   S    
C64   H3    S    
C40   N28   A    
C51   O7    S    
H41   O21   S    
C9    C44   S    
N9    N22   A    
N30   Ni7   S    
C6    C59   S    
C3    C67   A    
C24   C28   A    
N11   Ni3   S    
N8    N23   A    
C87   N13   A    
C56   O15   S    
C91   H25   S    
H59   O15   S    
C4    C78   A    
C66   C80   A    
C36   H1    S    
N19   Ni1   S    
C69   H16   S    
C59   C63   D    
C44   H45   S    
C71   O9    S    
C31   C38   S    
C13   C17   A    
C60   C64   D    
N14   Ni5   S    
C12   C76   A    
C34   O19   S    
C68   H15   S    
C60   H7    S    
C2    C56   A    
C50   C75   S    
C7    C91   A    
C86   H20   S    
C70   H17   S    
C71   C76   A    
C48   H63   S    
C93   H27   S    
C49   C53   D    
C1    N1    A    
N31   Ni8   S    
C46   O21   S    
C85   H19   S    
H43   O23   S    
N14   N19   A    
C84   N9    A    
C51   C79   S    
C95   N20   A    
C57   O4    S    
C52   C57   D    
N3    Ni4   S    
C53   O24   S    
N1    Ni1   S    
C10   C35   A    
C61   C65   D    
C45   N22   A    
C54   O2    S    
C68   C81   A    
C90   N15   A    
N32   Ni2   S    
C66   H14   S    
C21   C24   A    
C7    C96   A    
C22   Cl1   S    
N15   Ni6   S    
C90   H24   S    
N16   N21   A    
H40   O20   S    
C43   N31   A    
C14   C81   S    
C37   C46   S    
C67   N25   A    
C61   H8    S    
C12   O12   S    
N2    N29   A    
C66   N32   A    
C26   Cl4   S    
C39   C48   S    
C17   C21   A    
