data_mof_unit_42483.cif
_audit_creation_date              2012-12-10T17:22:39-0500
_audit_creation_method            fapswitch 2.2
_symmetry_space_group_name_H-M    P1
_symmetry_Int_Tables_number       1
_space_group_crystal_system       triclinic
_cell_length_a                    10.627136
_cell_length_b                    10.783705
_cell_length_c                    9.658148
_cell_angle_alpha                 89.559004
_cell_angle_beta                  89.67735
_cell_angle_gamma                 94.544749
_cell_volume                      1103.28835889

loop_
_atom_site_label
_atom_site_type_symbol
_atom_type_description
_atom_site_fract_x
_atom_site_fract_y
_atom_site_fract_z
_atom_type_partial_charge
C1    C     C_R   0.494881 0.262644 0.500520 0.763604
C2    C     C_3   0.960020 0.501213 0.367402 -0.190880
C3    C     C_3   0.033825 0.398344 0.435060 -0.234225
C4    C     C_3   0.122746 0.499847 0.501682 -0.000829
C5    C     C_R   0.295094 0.112107 0.649442 -0.241493
C6    C     C_R   0.202271 0.039459 0.722167 -0.255171
C7    C     C_R   0.201645 0.909397 0.722053 0.467603
C8    C     C_R   0.294585 0.853329 0.647783 -0.128936
C9    C     C_R   0.391357 0.925394 0.575893 0.010531
C10   C     C_R   0.391611 0.056612 0.576875 0.097097
C11   C     C_R   0.486359 0.128193 0.501168 -0.067379
C12   C     C_R   0.259676 0.499701 0.500445 0.786669
C13   C     C_R   0.574956 0.071085 0.421926 -0.210007
C14   C     C_R   0.574820 0.943295 0.421083 -0.193313
C15   C     C_R   0.486052 0.870160 0.499280 -0.069427
C16   C     C_R   0.690567 0.662193 0.131507 0.437479
C17   C     C_R   0.783039 0.726518 0.047825 -0.269898
C18   C     C_R   0.774297 0.725446 0.907339 -0.263791
C19   C     C_R   0.676071 0.657047 0.846308 -0.128494
C20   C     C_R   0.588158 0.577682 0.921935 0.151454
C21   C     C_R   0.591044 0.578710 0.071610 0.154151
C22   C     C_R   0.415845 0.426457 0.074928 -0.048500
C23   C     C_R   0.495696 0.736875 0.499694 0.808358
C24   C     C_R   0.416139 0.426277 0.927643 -0.042668
C25   C     C_R   0.740341 0.500439 0.499643 0.816623
C26   C     C_3   0.039459 0.499943 0.632462 -0.155909
C27   C     C_3   0.948620 0.398152 0.565844 -0.162854
C28   C     C_3   0.877288 0.501209 0.498768 -0.056582
C29   C     C_3   0.965588 0.603248 0.565791 -0.210029
C30   C     C_3   0.049537 0.600439 0.436349 0.435228
Cu1   Cu    Cu3+1 0.499990 0.499990 0.640660 0.935531
Cu2   Cu    Cu3+1 0.500010 0.500010 0.359340 0.995107
H1    H     H_    0.903564 0.314428 0.619312 0.140824
H2    H     H_    0.288487 0.752906 0.645920 0.173190
H3    H     H_    0.646781 0.901869 0.361713 0.169438
H4    H     H_    0.346613 0.365824 0.130444 0.132754
H5    H     H_    0.347096 0.365403 0.874034 0.127266
H6    H     H_    0.074195 0.498889 0.740633 0.166860
H7    H     H_    0.935330 0.687923 0.616828 0.155286
H8    H     H_    0.064559 0.314472 0.382684 0.143640
H9    H     H_    0.646610 0.126055 0.362748 0.149655
H10   H     H_    0.288841 0.211673 0.649239 0.155749
H11   H     H_    0.129940 0.084806 0.777338 0.128971
N1    N     N_R   0.501210 0.501210 0.147910 -0.183253
N2    N     N_R   0.501250 0.501290 0.852040 -0.189749
O1    O     O_R   0.499990 0.319640 0.618810 -0.580507
O2    O     O_R   0.500000 0.319660 0.381240 -0.583832
O3    O     O_R   0.316850 0.499960 0.618770 -0.605816
O4    O     O_R   0.316860 0.499980 0.381190 -0.561328
O5    O     O_R   0.500000 0.680340 0.618760 -0.622424
O6    O     O_R   0.500010 0.680360 0.381190 -0.490402
O7    O     O_R   0.683140 0.500020 0.618810 -0.601850
O8    O     O_R   0.683150 0.500040 0.381230 -0.533561
O9    O     O_3   0.111029 0.834495 0.792333 -0.753590
H12   H     H_    0.054293 0.888147 0.841835 0.307315
O10   O     O_3   0.695414 0.692152 0.268333 -0.709586
H13   H     H_    0.776925 0.737857 0.293031 0.274904
H14   H     H_    0.858838 0.786131 0.092557 0.147480
H15   H     H_    0.841716 0.782093 0.844787 0.175383
H16   H     H_    0.674479 0.671186 0.738159 0.208631
O11   O     O_3   0.106840 0.705727 0.369287 -0.730530
H17   H     H_    0.036372 0.753961 0.338378 0.306297
H18   H     H_    0.925953 0.503952 0.259031 0.153731

loop_
_geom_bond_atom_site_label_1
_geom_bond_atom_site_label_2
_ccdc_geom_bond_type
C4    C26   S    
C5    H10   S    
C16   O10   S    
Cu2   O6    S    
C29   C30   S    
C19   H16   S    
C4    C12   S    
C21   N1    A    
C22   H4    S    
C9    C10   A    
Cu1   O7    S    
C23   O6    A    
C20   N2    A    
C1    C11   S    
C2    C30   S    
C17   H14   S    
C12   O3    A    
C26   H6    S    
C15   C23   S    
C29   H7    S    
C13   H9    S    
C12   O4    A    
Cu2   N1    S    
C25   O7    A    
C5    C10   A    
C8    H2    S    
C13   C14   A    
C27   H1    S    
C25   C28   S    
C11   C13   A    
Cu1   O3    S    
C26   C27   S    
C6    C7    A    
C22   N1    A    
C5    C6    A    
C24   N2    A    
C3    C27   S    
C28   C29   S    
C25   O8    A    
C3    H8    S    
C24   H5    S    
C2    C3    S    
C6    H11   S    
C9    C15   A    
O11   H17   S    
Cu2   O4    S    
Cu2   O2    S    
C22   C24   A    
C1    O1    A    
C16   C17   A    
C10   C11   A    
Cu1   O5    S    
C3    C4    S    
C18   H15   S    
C7    C8    A    
C2    H18   S    
C26   C29   S    
C17   C18   A    
C18   C19   A    
Cu1   N2    S    
C30   O11   S    
C27   C28   S    
O10   H13   S    
C14   C15   A    
C1    O2    A    
C23   O5    A    
C2    C28   S    
C7    O9    S    
Cu2   O8    S    
C20   C21   A    
O9    H12   S    
C16   C21   A    
C14   H3    S    
Cu1   Cu2   S    
C4    C30   S    
C19   C20   A    
C8    C9    A    
Cu1   O1    S    
