data_mof_unit_35336.cif
_audit_creation_date              2012-12-10T19:46:24-0500
_audit_creation_method            fapswitch 2.2
_symmetry_space_group_name_H-M    P1
_symmetry_Int_Tables_number       1
_space_group_crystal_system       triclinic
_cell_length_a                    10.911232
_cell_length_b                    10.940331
_cell_length_c                    10.450247
_cell_angle_alpha                 91.5737
_cell_angle_beta                  92.198518
_cell_angle_gamma                 90.583602
_cell_volume                      1246.00470288

loop_
_atom_site_label
_atom_site_type_symbol
_atom_type_description
_atom_site_fract_x
_atom_site_fract_y
_atom_site_fract_z
_atom_type_partial_charge
C1    C     C_R   0.500391 0.261426 0.498163 0.830533
C2    C     C_R   0.499609 0.738574 0.501837 0.830528
C3    C     C_R   0.872236 0.498635 0.506942 -0.074079
C4    C     C_R   0.127764 0.501366 0.493057 -0.074078
C5    C     C_R   0.946042 0.520460 0.619990 0.010459
C6    C     C_R   0.053958 0.479540 0.380010 0.010460
C7    C     C_R   0.377441 0.166385 0.057248 -0.196604
C8    C     C_R   0.622558 0.833615 0.942753 -0.196605
C9    C     C_R   0.375308 0.130557 0.185066 0.067991
C10   C     C_R   0.624692 0.869444 0.814934 0.067989
C11   C     C_R   0.488025 0.108349 0.251745 0.034587
C12   C     C_R   0.511975 0.891651 0.748255 0.034588
C13   C     C_R   0.598629 0.118740 0.188606 -0.209776
C14   C     C_R   0.401371 0.881259 0.811393 -0.209777
C15   C     C_R   0.599468 0.151479 0.059912 0.034642
C16   C     C_R   0.400532 0.848520 0.940087 0.034642
C17   C     C_R   0.488098 0.178023 0.995947 -0.204803
C18   C     C_R   0.511902 0.821976 0.004053 -0.204803
C19   C     C_R   0.492323 0.930271 0.386970 -0.195871
C20   C     C_R   0.507677 0.069729 0.613030 -0.195868
C21   C     C_R   0.499178 0.872141 0.504424 -0.057431
C22   C     C_R   0.500822 0.127859 0.495576 -0.057430
C23   C     C_R   0.261375 0.499659 0.497187 0.814843
C24   C     C_R   0.738625 0.500342 0.502813 0.814840
C25   C     C_R   0.506982 0.943322 0.619176 0.046409
C26   C     C_R   0.493017 0.056678 0.380824 0.046405
C27   C     C_1   0.500082 0.499977 0.072015 0.072823
C28   C     C_1   0.499918 0.500023 0.927985 0.072824
C29   C     C_R   0.192846 0.532931 0.058637 -0.103061
C30   C     C_R   0.807155 0.467069 0.941363 -0.103061
C31   C     C_R   0.162750 0.549499 0.186896 -0.076366
C32   C     C_R   0.837251 0.450501 0.813104 -0.076364
C33   C     C_R   0.099935 0.457332 0.249394 0.084721
C34   C     C_R   0.900065 0.542669 0.750606 0.084718
C35   C     C_R   0.062353 0.351147 0.179010 -0.111571
C36   C     C_R   0.937646 0.648854 0.820989 -0.111572
C37   C     C_R   0.090492 0.335978 0.050236 -0.101476
C38   C     C_R   0.909507 0.664023 0.949764 -0.101473
C39   C     C_R   0.156995 0.426213 0.990481 -0.160482
C40   C     C_R   0.843005 0.573788 0.009519 -0.160483
C41   C     C_R   0.927590 0.478080 0.389731 -0.233237
C42   C     C_R   0.072410 0.521921 0.610268 -0.233237
Cu1   Cu    Cu3+1 0.500000 0.500000 0.625300 0.992846
Cu2   Cu    Cu3+1 0.500000 0.500000 0.374700 0.992846
H1    H     H_    0.179676 0.413949 0.891097 0.138277
H2    H     H_    0.820325 0.586051 0.108903 0.138277
H3    H     H_    0.683790 0.096473 0.239116 0.170398
H4    H     H_    0.316210 0.903526 0.760883 0.170397
H5    H     H_    0.486456 0.877153 0.298335 0.182508
H6    H     H_    0.513544 0.122847 0.701665 0.182508
H7    H     H_    0.242965 0.602993 0.011275 0.142343
H8    H     H_    0.757037 0.397007 0.988726 0.142344
H9    H     H_    0.187406 0.634003 0.237756 0.148080
H10   H     H_    0.812595 0.365997 0.762244 0.148080
H11   H     H_    0.008576 0.281436 0.223378 0.164295
H12   H     H_    0.991422 0.718566 0.776621 0.164297
H13   H     H_    0.060250 0.254445 0.996579 0.190602
H14   H     H_    0.939749 0.745556 0.003420 0.190604
H15   H     H_    0.871625 0.461197 0.302914 0.159239
H16   H     H_    0.128375 0.538804 0.697086 0.159240
H17   H     H_    0.485961 0.206818 0.897926 0.171970
H18   H     H_    0.514038 0.793182 0.102073 0.171969
H19   H     H_    0.293056 0.184004 0.003561 0.175199
H20   H     H_    0.706943 0.815996 0.996439 0.175200
N1    N     N_1   0.500010 0.499990 0.186410 -0.145218
N2    N     N_1   0.499990 0.500010 0.813590 -0.145218
O1    O     O_R   0.499990 0.319650 0.605810 -0.585044
O2    O     O_R   0.500010 0.680350 0.394190 -0.585044
O3    O     O_R   0.499990 0.319640 0.394190 -0.572706
O4    O     O_R   0.500010 0.680360 0.605810 -0.572707
O5    O     O_R   0.319640 0.500010 0.605810 -0.590251
O6    O     O_R   0.680360 0.499990 0.394190 -0.590251
O7    O     O_R   0.319650 0.500010 0.394190 -0.576324
O8    O     O_R   0.680350 0.499990 0.605810 -0.576324
C43   C     C_2   0.715409 0.152137 0.990715 0.820321
O9    O     O_2   0.813520 0.137010 0.048443 -0.599483
O10   O     O_R   0.712744 0.168347 0.858482 -0.801259
H21   H     H_    0.797094 0.162477 0.821580 0.340752
C44   C     C_2   0.284591 0.847863 0.009285 0.820323
O11   O     O_2   0.186480 0.862989 0.951555 -0.599484
O12   O     O_R   0.287255 0.831654 0.141517 -0.801259
H22   H     H_    0.202904 0.837522 0.178419 0.340754
C45   C     C_2   0.254725 0.112132 0.243506 0.826133
O13   O     O_2   0.244182 0.125756 0.359050 -0.613436
O14   O     O_R   0.152271 0.078675 0.165405 -0.754322
H23   H     H_    0.076085 0.065100 0.215966 0.342829
C46   C     C_2   0.745275 0.887872 0.756496 0.826132
O15   O     O_2   0.755817 0.874255 0.640952 -0.613434
O16   O     O_R   0.847729 0.921325 0.834599 -0.754324
H24   H     H_    0.923914 0.934905 0.784039 0.342831

loop_
_geom_bond_atom_site_label_1
_geom_bond_atom_site_label_2
_ccdc_geom_bond_type
C15   C43   S    
C5    C42   A    
C43   O9    D    
O12   H22   S    
Cu2   N1    S    
O10   H21   S    
C40   H2    S    
C27   N1    T    
C19   C21   A    
C2    O2    A    
C33   C35   A    
C20   C25   A    
C7    C9    A    
C19   C26   A    
C20   H6    S    
C17   H17   S    
C38   H14   S    
C7    C17   A    
C6    C41   A    
C31   C33   A    
C39   H1    S    
Cu1   O8    S    
C1    C22   S    
C38   C40   A    
C3    C24   S    
C23   O7    A    
C32   H10   S    
C10   C46   S    
C35   H11   S    
C23   O5    A    
C41   H15   S    
C4    C6    A    
C42   H16   S    
C44   O12   S    
C4    C23   S    
C18   H18   S    
C14   H4    S    
C11   C26   S    
O14   H23   S    
C8    C18   A    
C32   C34   A    
C28   N2    T    
Cu1   Cu2   S    
Cu1   O1    S    
C36   H12   S    
C43   O10   S    
C19   H5    S    
C45   O13   D    
C5    C34   S    
C29   C39   A    
C2    C21   S    
C30   C40   A    
Cu2   O3    S    
C16   C18   A    
C31   H9    S    
C9    C11   A    
C7    H19   S    
C10   C12   A    
C8    H20   S    
C8    C10   A    
C45   O14   S    
C12   C14   A    
Cu1   O4    S    
C13   C15   A    
C14   C16   A    
Cu2   O2    S    
C24   O6    A    
C13   H3    S    
C29   H7    S    
C15   C17   A    
C21   C25   A    
C3    C41   A    
Cu1   O5    S    
C35   C37   A    
C20   C22   A    
C3    C5    A    
C9    C45   S    
C6    C33   S    
C12   C25   S    
C16   C44   S    
C36   C38   A    
C37   C39   A    
C30   C32   A    
C11   C13   A    
C24   O8    A    
C4    C42   A    
Cu1   N2    S    
C1    O1    A    
Cu2   O6    S    
C34   C36   A    
Cu2   O7    S    
C1    O3    A    
C44   O11   D    
C46   O15   D    
C29   C31   A    
C22   C26   A    
C27   C28   S    
C46   O16   S    
O16   H24   S    
C2    O4    A    
C37   H13   S    
C30   H8    S    
