data_mof_unit_46128.cif
_audit_creation_date              2012-12-10T20:55:00-0500
_audit_creation_method            fapswitch 2.2
_symmetry_space_group_name_H-M    P1
_symmetry_Int_Tables_number       1
_space_group_crystal_system       triclinic
_cell_length_a                    15.86567
_cell_length_b                    15.053975
_cell_length_c                    10.612254
_cell_angle_alpha                 92.65368
_cell_angle_beta                  90.359926
_cell_angle_gamma                 90.298919
_cell_volume                      2531.83907539

loop_
_atom_site_label
_atom_site_type_symbol
_atom_type_description
_atom_site_fract_x
_atom_site_fract_y
_atom_site_fract_z
_atom_type_partial_charge
C1    C     C_R   0.338930 0.499808 0.501962 0.873740
C2    C     C_R   0.569205 0.954884 0.557945 0.123552
C3    C     C_R   0.502588 0.905067 0.497551 -0.063847
C4    C     C_R   0.571174 0.050000 0.552131 0.115348
C5    C     C_R   0.441557 0.044225 0.423467 0.115893
C6    C     C_R   0.505198 0.094459 0.489724 -0.036704
C7    C     C_1   0.501318 0.806961 0.499031 0.048438
C8    C     C_1   0.501939 0.192866 0.495679 0.067867
C9    C     C_R   0.498505 0.497391 0.257898 0.891647
C10   C     C_R   0.486116 0.501863 0.738652 0.901678
C11   C     C_R   0.592420 0.621260 0.100325 0.177411
C12   C     C_R   0.660973 0.500297 0.500064 0.912927
C13   C     C_R   0.475107 0.670754 0.914312 0.176329
C14   C     C_R   0.595474 0.709209 0.055626 0.116797
C15   C     C_R   0.532093 0.737164 0.968267 0.067446
C16   C     C_R   0.487942 0.580993 0.945020 -0.008620
C17   C     C_R   0.526724 0.563549 0.056869 -0.069934
C18   C     C_R   0.494035 0.491176 0.121913 -0.173004
C19   C     C_R   0.463057 0.505998 0.870357 -0.173701
C20   C     C_R   0.440448 0.425870 0.058756 0.141581
C21   C     C_R   0.431160 0.429759 0.927001 0.121254
C22   C     C_R   0.955990 0.565740 0.573708 0.111943
C23   C     C_R   0.954691 0.441933 0.411249 0.098788
C24   C     C_R   0.044437 0.561131 0.580964 0.109163
C25   C     C_R   0.912748 0.504789 0.491111 0.001671
C26   C     C_R   0.086500 0.497131 0.503211 0.016047
C27   C     C_3   0.389909 0.357576 0.130284 -0.384838
C28   C     C_3   0.313974 0.400285 0.195702 -0.854534
C29   C     C_3   0.379364 0.360662 0.849221 -0.376376
C30   C     C_3   0.426184 0.272291 0.827976 -0.833195
C31   C     C_3   0.667113 0.582741 0.170915 -0.363271
C32   C     C_3   0.737317 0.555152 0.079324 -0.926019
C33   C     C_3   0.392773 0.695489 0.848478 -0.339548
C34   C     C_R   0.043166 0.435432 0.421338 0.115723
C35   C     C_3   0.318905 0.629630 0.855493 -0.917984
C36   C     C_3   0.662727 0.774327 0.109077 -0.439464
C37   C     C_3   0.635820 0.817667 0.235113 -0.860277
C38   C     C_3   0.535436 0.835654 0.933160 -0.387496
C39   C     C_3   0.470554 0.877603 0.847318 -0.950582
C40   C     C_3   0.094841 0.622324 0.672638 -0.393662
C41   C     C_3   0.126973 0.704540 0.608298 -0.878575
C42   C     C_3   0.906919 0.636300 0.650634 -0.386925
C43   C     C_3   0.876955 0.601096 0.775527 -0.873715
C44   C     C_3   0.903993 0.384132 0.315257 -0.385530
C45   C     C_1   0.823507 0.503249 0.493908 -0.021932
C46   C     C_3   0.883263 0.293242 0.365505 -0.849319
C47   C     C_3   0.092845 0.364048 0.346582 -0.385196
C48   C     C_3   0.127542 0.293313 0.431778 -0.870961
C49   C     C_3   0.381291 0.093044 0.337951 -0.386808
C50   C     C_3   0.426220 0.121307 0.219036 -0.877752
C51   C     C_3   0.643411 0.106121 0.610475 -0.394150
C52   C     C_3   0.699788 0.144375 0.509353 -0.846099
C53   C     C_3   0.362806 0.895444 0.379796 -0.390139
C54   C     C_3   0.375843 0.864901 0.242076 -0.848156
C55   C     C_3   0.634576 0.906200 0.635290 -0.391761
C56   C     C_1   0.175982 0.497842 0.503038 -0.015524
C57   C     C_3   0.717162 0.890888 0.565001 -0.874153
C58   C     C_1   0.250733 0.499006 0.502686 -0.215196
C59   C     C_1   0.748929 0.501408 0.496951 -0.209977
C60   C     C_R   0.437715 0.949664 0.432982 0.111956
H1    H     H_    0.331336 0.463258 0.247544 0.254835
H2    H     H_    0.361391 0.385611 0.756109 0.207869
H3    H     H_    0.715090 0.499674 0.014583 0.267787
H4    H     H_    0.757391 0.610991 0.021776 0.258358
H5    H     H_    0.792742 0.532166 0.133016 0.248559
H6    H     H_    0.691375 0.629952 0.245937 0.214135
H7    H     H_    0.650440 0.522005 0.219882 0.190275
H8    H     H_    0.324601 0.574391 0.783325 0.248722
H9    H     H_    0.313981 0.603274 0.951269 0.267129
H10   H     H_    0.259158 0.664440 0.835247 0.247128
H11   H     H_    0.367654 0.755152 0.898841 0.220916
H12   H     H_    0.264929 0.415146 0.124655 0.235084
H13   H     H_    0.404167 0.708452 0.748017 0.227184
H14   H     H_    0.576413 0.855069 0.225155 0.261412
H15   H     H_    0.626733 0.766639 0.305960 0.267002
H16   H     H_    0.685430 0.865249 0.269373 0.248559
H17   H     H_    0.724161 0.741525 0.121946 0.218025
H18   H     H_    0.678548 0.827234 0.044332 0.192890
H19   H     H_    0.409601 0.888563 0.895917 0.257435
H20   H     H_    0.463857 0.839973 0.756046 0.262779
H21   H     H_    0.493316 0.945011 0.825230 0.250961
H22   H     H_    0.535433 0.877930 0.021572 0.224681
H23   H     H_    0.287453 0.353492 0.263101 0.258983
H24   H     H_    0.596686 0.845481 0.886195 0.194415
H25   H     H_    0.170533 0.685275 0.530390 0.271917
H26   H     H_    0.073581 0.742280 0.569488 0.250755
H27   H     H_    0.161636 0.748523 0.677940 0.244944
H28   H     H_    0.057964 0.643168 0.757081 0.207975
H29   H     H_    0.149107 0.586157 0.711851 0.205137
H30   H     H_    0.832783 0.544296 0.758541 0.269186
H31   H     H_    0.931173 0.578889 0.832480 0.251397
H32   H     H_    0.843553 0.654693 0.830143 0.242449
H33   H     H_    0.944381 0.697919 0.668879 0.205226
H34   H     H_    0.364807 0.302109 0.069829 0.200961
H35   H     H_    0.851464 0.658866 0.596480 0.208710
H36   H     H_    0.941421 0.254782 0.381101 0.260755
H37   H     H_    0.848455 0.301294 0.455750 0.264090
H38   H     H_    0.842958 0.255011 0.296143 0.244322
H39   H     H_    0.843765 0.416288 0.290307 0.206795
H40   H     H_    0.936256 0.377417 0.223083 0.180926
H41   H     H_    0.175123 0.321567 0.499432 0.266359
H42   H     H_    0.075779 0.263224 0.485577 0.257522
H43   H     H_    0.158392 0.240038 0.373007 0.239161
H44   H     H_    0.055791 0.328469 0.271714 0.208356
H45   H     H_    0.429787 0.322071 0.196847 0.232340
H46   H     H_    0.145223 0.395882 0.296487 0.201366
H47   H     H_    0.476765 0.170587 0.242493 0.256916
H48   H     H_    0.454705 0.062859 0.168233 0.259456
H49   H     H_    0.380118 0.151790 0.155129 0.237889
H50   H     H_    0.326010 0.053148 0.306169 0.209694
H51   H     H_    0.354888 0.152431 0.389435 0.198112
H52   H     H_    0.721105 0.091056 0.441378 0.252490
H53   H     H_    0.666427 0.195482 0.456421 0.265307
H54   H     H_    0.756136 0.176314 0.554934 0.241777
H55   H     H_    0.617506 0.161292 0.671486 0.196289
H56   H     H_    0.441713 0.241445 0.917921 0.234113
H57   H     H_    0.684849 0.069157 0.673093 0.211530
H58   H     H_    0.318754 0.828814 0.206093 0.244889
H59   H     H_    0.387066 0.922313 0.182585 0.260385
H60   H     H_    0.430156 0.818895 0.233805 0.266267
H61   H     H_    0.351498 0.835717 0.435006 0.206545
H62   H     H_    0.302843 0.932151 0.391541 0.181945
H63   H     H_    0.707339 0.841846 0.485181 0.260916
H64   H     H_    0.742592 0.953415 0.529210 0.268161
H65   H     H_    0.764532 0.863339 0.629822 0.241891
H66   H     H_    0.646059 0.941834 0.727510 0.182626
H67   H     H_    0.386072 0.225083 0.770460 0.235448
H68   H     H_    0.611391 0.840166 0.662000 0.217962
H69   H     H_    0.486113 0.281710 0.777194 0.278778
H70   H     H_    0.317462 0.349492 0.894042 0.187325
N1    N     N_1   0.500000 0.270550 0.500000 -0.102144
N2    N     N_1   0.500000 0.729450 0.500000 -0.104524
O1    O     O_R   0.378020 0.573650 0.500040 -0.610240
O2    O     O_R   0.621980 0.573650 0.499960 -0.614975
O3    O     O_R   0.378020 0.426320 0.500100 -0.615389
O4    O     O_R   0.621980 0.426320 0.499900 -0.603451
O5    O     O_R   0.500000 0.573680 0.316780 -0.606881
O6    O     O_R   0.500000 0.573680 0.683220 -0.612377
O7    O     O_R   0.500000 0.426350 0.316830 -0.618028
O8    O     O_R   0.500000 0.426350 0.683170 -0.610362
Zn1   Zn    Zn3+2 0.500000 0.598370 0.500000 0.949154
Zn2   Zn    Zn3+2 0.500000 0.401630 0.500000 0.944460

loop_
_geom_bond_atom_site_label_1
_geom_bond_atom_site_label_2
_ccdc_geom_bond_type
C31   H6    S    
C37   H14   S    
C54   H60   S    
C42   H33   S    
C44   H40   S    
C36   H17   S    
C30   H56   S    
C53   C54   S    
C31   H7    S    
C41   H26   S    
C36   C37   S    
C19   C21   A    
O8    Zn2   S    
C3    C7    S    
C2    C55   S    
C57   H65   S    
C38   C39   S    
C44   H39   S    
C27   H45   S    
O4    Zn2   S    
C51   H57   S    
C29   H2    S    
C12   C59   S    
C9    O5    A    
C26   C34   A    
O3    Zn2   S    
C11   C17   A    
C47   C48   S    
C35   H10   S    
C16   C17   A    
C22   C25   A    
C22   C42   S    
C40   H29   S    
C49   H51   S    
C3    C60   A    
C47   H46   S    
C46   H38   S    
C11   C31   S    
C12   O2    A    
C54   H59   S    
C38   H22   S    
C28   H23   S    
C50   H48   S    
C5    C49   S    
C28   H12   S    
C10   O8    A    
C1    O1    A    
C53   C60   S    
C44   C46   S    
C41   H27   S    
C43   H30   S    
C4    C51   S    
C51   C52   S    
C32   H4    S    
C4    C6    A    
C11   C14   A    
C6    C8    S    
C52   H53   S    
C48   H43   S    
C21   C29   S    
C50   H49   S    
C43   H31   S    
C23   C44   S    
C42   H35   S    
O7    Zn2   S    
C39   H19   S    
C2    C4    A    
C15   C38   S    
C13   C33   S    
C29   C30   S    
C57   H63   S    
C29   H70   S    
C55   H66   S    
C10   C19   S    
C23   C34   A    
C48   H42   S    
C8    N1    T    
C17   C18   A    
C20   C21   A    
C39   H21   S    
C7    N2    T    
N1    Zn2   S    
C33   H13   S    
C40   C41   S    
C37   H16   S    
C55   C57   S    
C50   H47   S    
C22   C24   A    
C42   C43   S    
C54   H58   S    
C25   C45   S    
N2    Zn1   S    
O5    Zn1   S    
C30   H67   S    
C24   C40   S    
C47   H44   S    
C5    C60   A    
C38   H24   S    
C46   H37   S    
C31   C32   S    
C32   H3    S    
C24   C26   A    
O6    Zn1   S    
C26   C56   S    
C20   C27   S    
C52   H54   S    
C30   H69   S    
C41   H25   S    
O1    Zn1   S    
C43   H32   S    
C53   H62   S    
C39   H20   S    
C40   H28   S    
C13   C15   A    
C2    C3    A    
C53   H61   S    
C1    C58   S    
C28   H1    S    
O2    Zn1   S    
C14   C36   S    
C9    O7    A    
C5    C6    A    
C35   H8    S    
C16   C19   A    
C48   H41   S    
C33   C35   S    
C56   C58   T    
C18   C20   A    
C23   C25   A    
C37   H15   S    
C51   H55   S    
C33   H11   S    
C9    C18   S    
C46   H36   S    
C55   H68   S    
C35   H9    S    
C45   C59   T    
C49   C50   S    
C12   O4    A    
C13   C16   A    
C27   C28   S    
C52   H52   S    
C14   C15   A    
C49   H50   S    
C27   H34   S    
C36   H18   S    
C34   C47   S    
C10   O6    A    
C1    O3    A    
C32   H5    S    
C57   H64   S    
