data_mof_unit_12374.cif
_audit_creation_date              2012-12-10T20:30:15-0500
_audit_creation_method            fapswitch 2.2
_symmetry_space_group_name_H-M    P1
_symmetry_Int_Tables_number       1
_space_group_crystal_system       triclinic
_cell_length_a                    9.883371
_cell_length_b                    10.7633
_cell_length_c                    13.21918
_cell_angle_alpha                 89.39556
_cell_angle_beta                  71.607608
_cell_angle_gamma                 88.38821
_cell_volume                      1333.86281722

loop_
_atom_site_label
_atom_site_type_symbol
_atom_type_description
_atom_site_fract_x
_atom_site_fract_y
_atom_site_fract_z
_atom_type_partial_charge
C1    C     C_R   0.498009 0.740331 0.501408 0.906923
C2    C     C_R   0.437993 0.548391 0.981887 0.117383
C3    C     C_R   0.472609 0.565117 0.871080 0.093644
C4    C     C_R   0.544899 0.566894 0.029619 -0.037817
C5    C     C_R   0.688344 0.578936 0.965756 0.136001
C6    C     C_R   0.717047 0.612201 0.859385 -0.221207
C7    C     C_R   0.606229 0.616073 0.815526 -0.183688
C8    C     C_R   0.513589 0.576019 0.139147 0.364399
C9    C     C_R   0.762982 0.531300 0.119270 -0.241273
C10   C     C_R   0.375749 0.525709 0.819052 -0.118668
C11   C     C_R   0.417248 0.941465 0.448086 0.262634
C12   C     C_R   0.422202 0.508695 0.703194 0.850375
C13   C     C_R   0.500044 0.873190 0.498088 -0.123158
C14   C     C_R   0.602430 0.933645 0.531729 -0.233011
C15   C     C_R   0.609382 0.061665 0.526488 -0.211834
C16   C     C_R   0.512021 0.129329 0.489102 -0.109560
C17   C     C_R   0.423873 0.068489 0.443286 0.119550
C18   C     C_3   0.268192 0.087131 0.461362 -0.502295
C19   C     C_3   0.259434 0.947694 0.469530 -0.482317
C20   C     C_R   0.897949 0.575583 0.567856 0.225748
C21   C     C_R   0.955920 0.417683 0.439998 -0.139559
C22   C     C_R   0.099728 0.417588 0.440076 -0.047900
C23   C     C_R   0.502600 0.260471 0.498428 0.888141
C24   C     C_R   0.040333 0.574063 0.568799 0.194179
C25   C     C_3   0.043905 0.710955 0.568747 -0.516389
C26   C     C_3   0.892610 0.714188 0.566219 -0.534029
C27   C     C_R   0.577143 0.508758 0.297159 0.925758
C28   C     C_R   0.797884 0.561856 0.011260 -0.189418
C29   C     C_R   0.619511 0.537224 0.183711 -0.179544
C30   C     C_R   0.239294 0.487510 0.879452 -0.201162
C31   C     C_R   0.202960 0.477366 0.989579 -0.157221
C32   C     C_R   0.302754 0.503171 0.040184 -0.109104
H1    H     H_    0.847207 0.508768 0.153065 0.176488
H2    H     H_    0.683199 0.107393 0.558584 0.172671
H3    H     H_    0.210784 0.134799 0.537718 0.219401
H4    H     H_    0.245635 0.125477 0.389773 0.207727
H5    H     H_    0.200369 0.917329 0.551739 0.194868
H6    H     H_    0.227419 0.907620 0.403659 0.244873
H7    H     H_    0.924964 0.353167 0.389595 0.145410
H8    H     H_    0.177228 0.353579 0.389189 0.139944
H9    H     H_    0.055853 0.747707 0.643655 0.194715
H10   H     H_    0.119964 0.743253 0.493337 0.238262
H11   H     H_    0.817955 0.756097 0.639509 0.188463
H12   H     H_    0.823524 0.636986 0.811180 0.142723
H13   H     H_    0.882914 0.752412 0.490246 0.228173
H14   H     H_    0.908775 0.566857 0.962919 0.148611
H15   H     H_    0.163344 0.458637 0.841106 0.155980
H16   H     H_    0.275426 0.482036 0.124125 0.177249
H17   H     H_    0.099872 0.442637 0.035266 0.140216
H18   H     H_    0.627531 0.655076 0.737030 0.166304
H19   H     H_    0.671867 0.883046 0.567159 0.165317
N1    N     N_R   0.856940 0.500860 0.500710 -0.107188
N2    N     N_R   0.142580 0.500820 0.500710 -0.088829
O1    O     O_R   0.385310 0.683210 0.499990 -0.589424
O2    O     O_R   0.614650 0.683240 0.500000 -0.632348
O3    O     O_R   0.328390 0.499940 0.653610 -0.622626
O4    O     O_R   0.557730 0.499980 0.653620 -0.619865
O5    O     O_R   0.385350 0.316760 0.500000 -0.631582
O6    O     O_R   0.614690 0.316790 0.500010 -0.623032
O7    O     O_R   0.442270 0.500020 0.346380 -0.551156
O8    O     O_R   0.671610 0.500060 0.346390 -0.622551
Zn1   Zn    Zn3+2 0.346870 0.499980 0.499990 0.989784
Zn2   Zn    Zn3+2 0.653130 0.500020 0.500010 0.950737
S1    S     S_3+6 0.380290 0.688701 0.206016 0.003800
O9    O     O_2   0.439006 0.767249 0.274559 -0.328270
O10   O     O_2   0.342243 0.771235 0.125970 -0.305198
O11   O     O_3   0.232203 0.620188 0.282638 -0.580912
H20   H     H_    0.158100 0.687420 0.301642 0.365682

loop_
_geom_bond_atom_site_label_1
_geom_bond_atom_site_label_2
_ccdc_geom_bond_type
C25   H10   S    
O5    Zn1   S    
C23   O5    A    
C2    C4    A    
C1    O1    A    
C18   H4    S    
C6    C7    A    
C19   H6    S    
C27   C29   S    
C5    C28   A    
C11   C13   A    
C18   H3    S    
C10   C30   A    
C15   H2    S    
O6    Zn2   S    
C31   C32   A    
C21   H7    S    
C9    C29   A    
C30   C31   A    
C4    C8    A    
C20   C26   S    
C22   H8    S    
S1    O9    D    
C17   C18   S    
C1    O2    A    
C3    C7    A    
C20   N1    A    
C3    C10   A    
C6    H12   S    
C21   C22   A    
C9    H1    S    
C32   H16   S    
C28   H14   S    
C12   O3    A    
C10   C12   S    
C31   H17   S    
O11   H20   S    
C8    C29   A    
O7    Zn1   S    
C8    S1    S    
C26   H11   S    
O4    Zn2   S    
C16   C23   S    
C2    C3    A    
C27   O7    A    
C5    C6    A    
C16   C17   A    
O3    Zn1   S    
C1    C13   S    
C12   O4    A    
C15   C16   A    
S1    O11   S    
C20   C24   A    
C30   H15   S    
C24   C25   S    
C22   N2    A    
C2    C32   A    
C18   C19   S    
N2    Zn1   S    
C25   H9    S    
C7    H18   S    
O8    Zn2   S    
C14   C15   A    
C11   C19   S    
S1    O10   D    
C19   H5    S    
C23   O6    A    
C25   C26   S    
C13   C14   A    
O1    Zn1   S    
C9    C28   A    
C21   N1    A    
C11   C17   A    
C14   H19   S    
C24   N2    A    
O2    Zn2   S    
C4    C5    A    
C26   H13   S    
N1    Zn2   S    
C27   O8    A    
