data_mof_unit_61664.cif
_audit_creation_date              2012-12-10T20:26:44-0500
_audit_creation_method            fapswitch 2.2
_symmetry_space_group_name_H-M    P1
_symmetry_Int_Tables_number       1
_space_group_crystal_system       triclinic
_cell_length_a                    41.455655
_cell_length_b                    35.50419
_cell_length_c                    21.612656
_cell_angle_alpha                 89.999871
_cell_angle_beta                  121.103822
_cell_angle_gamma                 90.000019
_cell_volume                      27237.2529412

loop_
_atom_site_label
_atom_site_type_symbol
_atom_type_description
_atom_site_fract_x
_atom_site_fract_y
_atom_site_fract_z
_atom_type_partial_charge
C1    C     C_R   0.073418 0.999995 0.073897 0.870640
C2    C     C_R   0.926581 0.999995 0.926103 0.870631
C3    C     C_R   0.573419 0.499995 0.073897 0.870639
C4    C     C_R   0.426581 0.499995 0.926103 0.870632
C5    C     C_R   0.000203 0.001336 0.313786 -0.080498
C6    C     C_R   0.999797 0.001337 0.686215 -0.080502
C7    C     C_R   0.500203 0.501336 0.313786 -0.080498
C8    C     C_R   0.499797 0.501336 0.686214 -0.080501
C9    C     C_R   0.025028 0.024828 0.305357 -0.001775
C10   C     C_R   0.974970 0.024826 0.694641 -0.001772
C11   C     C_R   0.525028 0.524828 0.305357 -0.001775
C12   C     C_R   0.474971 0.524827 0.694641 -0.001772
C13   C     C_R   0.024250 0.023687 0.240611 -0.245679
C14   C     C_R   0.975747 0.023686 0.759387 -0.245683
C15   C     C_R   0.524250 0.523687 0.240611 -0.245679
C16   C     C_R   0.475748 0.523686 0.759387 -0.245682
C17   C     C_R   0.998862 0.000046 0.185141 -0.076843
C18   C     C_R   0.001138 0.000047 0.814859 -0.076838
C19   C     C_R   0.498862 0.500046 0.185141 -0.076843
C20   C     C_R   0.501138 0.500047 0.814859 -0.076840
C21   C     C_R   0.973692 0.977004 0.193164 -0.004437
C22   C     C_R   0.026310 0.977007 0.806838 -0.004441
C23   C     C_R   0.473692 0.477004 0.193164 -0.004438
C24   C     C_R   0.526309 0.477006 0.806838 -0.004441
C25   C     C_R   0.089546 0.048227 0.395124 -0.138012
C26   C     C_R   0.910450 0.048222 0.604875 -0.138018
C27   C     C_R   0.589546 0.548227 0.395124 -0.138011
C28   C     C_R   0.410451 0.548223 0.604875 -0.138016
C29   C     C_R   0.113407 0.074889 0.445831 -0.143951
C30   C     C_R   0.886587 0.074882 0.554166 -0.143951
C31   C     C_R   0.613407 0.574889 0.445831 -0.143952
C32   C     C_R   0.386589 0.574883 0.554167 -0.143951
C33   C     C_R   0.098239 0.105955 0.461754 -0.113728
C34   C     C_R   0.901753 0.105949 0.538238 -0.113733
C35   C     C_R   0.598239 0.605955 0.461754 -0.113728
C36   C     C_R   0.401755 0.605950 0.538239 -0.113733
C37   C     C_R   0.059196 0.110352 0.427123 -0.123040
C38   C     C_R   0.940795 0.110347 0.572865 -0.123040
C39   C     C_R   0.559196 0.610352 0.427123 -0.123040
C40   C     C_R   0.440797 0.610348 0.572868 -0.123040
C41   C     C_R   0.035228 0.083455 0.377256 -0.140400
C42   C     C_R   0.964765 0.083451 0.622734 -0.140385
C43   C     C_R   0.535228 0.583454 0.377256 -0.140401
C44   C     C_R   0.464767 0.583452 0.622736 -0.140388
C45   C     C_R   0.999308 0.999987 0.119529 0.884349
C46   C     C_R   0.000692 0.999987 0.880471 0.884355
C47   C     C_R   0.499308 0.499987 0.119529 0.884350
C48   C     C_R   0.500692 0.499987 0.880471 0.884354
C49   C     C_R   0.050303 0.052253 0.360880 0.132471
C50   C     C_R   0.949692 0.052249 0.639116 0.132475
C51   C     C_R   0.550303 0.552253 0.360880 0.132472
C52   C     C_R   0.449693 0.552250 0.639116 0.132474
C53   C     C_R   0.326188 0.999425 0.271433 -0.167055
C54   C     C_R   0.673812 0.999425 0.728567 -0.167055
C55   C     C_R   0.826188 0.499424 0.271433 -0.167056
C56   C     C_R   0.173812 0.499424 0.728567 -0.167056
C57   C     C_R   0.365387 0.999594 0.310059 -0.198878
C58   C     C_R   0.634613 0.999595 0.689941 -0.198878
C59   C     C_R   0.865387 0.499594 0.310059 -0.198879
C60   C     C_R   0.134613 0.499594 0.689941 -0.198878
C61   C     C_R   0.385344 0.999721 0.385978 -0.038098
C62   C     C_R   0.614656 0.999721 0.614022 -0.038099
C63   C     C_R   0.885344 0.499721 0.385978 -0.038099
C64   C     C_R   0.114656 0.499721 0.614022 -0.038099
C65   C     C_R   0.365514 0.999662 0.422605 -0.202113
C66   C     C_R   0.634486 0.999662 0.577394 -0.202113
C67   C     C_R   0.865514 0.499662 0.422605 -0.202114
C68   C     C_R   0.134486 0.499662 0.577394 -0.202115
C69   C     C_R   0.326323 0.999491 0.383827 -0.167454
C70   C     C_R   0.673677 0.999492 0.616172 -0.167455
C71   C     C_R   0.826323 0.499491 0.383827 -0.167455
C72   C     C_R   0.173677 0.499492 0.616173 -0.167455
C73   C     C_R   0.306799 0.999375 0.308421 0.162942
C74   C     C_R   0.693201 0.999375 0.691578 0.162942
C75   C     C_R   0.806799 0.499375 0.308421 0.162942
C76   C     C_R   0.193201 0.499375 0.691578 0.162942
C77   C     C_1   0.266762 0.999349 0.268898 -0.073671
C78   C     C_1   0.733238 0.999350 0.731101 -0.073670
C79   C     C_1   0.766762 0.499349 0.268898 -0.073671
C80   C     C_1   0.233238 0.499349 0.731101 -0.073671
C81   C     C_1   0.233103 0.999425 0.235603 -0.073111
C82   C     C_1   0.766897 0.999425 0.764396 -0.073111
C83   C     C_1   0.733103 0.499425 0.235603 -0.073111
C84   C     C_1   0.266897 0.499425 0.764396 -0.073111
C85   C     C_R   0.173841 0.033001 0.163639 -0.169958
C86   C     C_R   0.826159 0.033000 0.836363 -0.169954
C87   C     C_R   0.673841 0.533001 0.163639 -0.169959
C88   C     C_R   0.326159 0.533000 0.836363 -0.169956
C89   C     C_R   0.918688 0.892946 0.080552 -0.142774
C90   C     C_R   0.081317 0.892953 0.919467 -0.142777
C91   C     C_R   0.418688 0.392946 0.080551 -0.142775
C92   C     C_R   0.581316 0.392952 0.919463 -0.142777
C93   C     C_R   0.134656 0.033218 0.124074 -0.214327
C94   C     C_R   0.865344 0.033217 0.875929 -0.214324
C95   C     C_R   0.634656 0.533217 0.124073 -0.214325
C96   C     C_R   0.365344 0.533217 0.875929 -0.214323
C97   C     C_R   0.114591 0.999959 0.116398 -0.036843
C98   C     C_R   0.885409 0.999959 0.883601 -0.036847
C99   C     C_R   0.614591 0.499959 0.116398 -0.036844
C100  C     C_R   0.385409 0.499959 0.883601 -0.036847
C101  C     C_R   0.134203 0.966602 0.149413 -0.209701
C102  C     C_R   0.865798 0.966603 0.850583 -0.209713
C103  C     C_R   0.634203 0.466602 0.149413 -0.209704
C104  C     C_R   0.365797 0.466603 0.850584 -0.209712
C105  C     C_R   0.173392 0.966474 0.188977 -0.185472
C106  C     C_R   0.826608 0.966475 0.811019 -0.185467
C107  C     C_R   0.673392 0.466474 0.188977 -0.185471
C108  C     C_R   0.326609 0.466475 0.811019 -0.185468
C109  C     C_R   0.193070 0.999638 0.195813 0.161640
C110  C     C_R   0.806930 0.999638 0.804186 0.161642
C111  C     C_R   0.693070 0.499638 0.195813 0.161642
C112  C     C_R   0.306930 0.499638 0.804186 0.161642
C113  C     C_R   1.000000 0.073397 0.500000 0.867707
C114  C     C_R   0.500000 0.573397 0.500000 0.867708
C115  C     C_R   0.000107 0.000773 0.379847 0.880895
C116  C     C_R   0.999893 0.000773 0.620153 0.880892
C117  C     C_R   0.500107 0.500772 0.379847 0.880894
C118  C     C_R   0.499893 0.500773 0.620153 0.880893
C119  C     C_R   0.000000 0.926590 0.500000 0.866814
C120  C     C_R   0.500000 0.426590 0.500000 0.866814
C121  C     C_R   0.500000 0.073277 0.500000 0.932584
C122  C     C_R   0.000000 0.573277 0.500000 0.932580
C123  C     C_R   0.426608 0.999859 0.426783 0.869797
C124  C     C_R   0.573392 0.999859 0.573217 0.869797
C125  C     C_R   0.926608 0.499859 0.426783 0.869794
C126  C     C_R   0.073392 0.499859 0.573217 0.869794
C127  C     C_R   0.947101 0.914606 0.135985 -0.130129
C128  C     C_R   0.052903 0.914611 0.864030 -0.130110
C129  C     C_R   0.447101 0.414606 0.135985 -0.130129
C130  C     C_R   0.552902 0.414610 0.864027 -0.130113
C131  C     C_R   0.500000 0.926518 0.500000 0.871363
C132  C     C_R   0.000000 0.426518 0.500000 0.871362
C133  C     C_R   0.500048 0.826151 0.556174 -0.166918
C134  C     C_R   0.499952 0.826151 0.443827 -0.166919
C135  C     C_R   0.000049 0.326151 0.556175 -0.166918
C136  C     C_R   0.999951 0.326151 0.443826 -0.166918
C137  C     C_R   0.500047 0.865345 0.556252 -0.199979
C138  C     C_R   0.499953 0.865345 0.443748 -0.199979
C139  C     C_R   0.000048 0.365345 0.556253 -0.199979
C140  C     C_R   0.999952 0.365345 0.443747 -0.199980
C141  C     C_R   0.500000 0.885244 0.500000 -0.038992
C142  C     C_R   0.000000 0.385244 0.500000 -0.038992
C143  C     C_R   0.500000 0.806686 0.500000 0.162814
C144  C     C_R   0.000000 0.306686 0.500000 0.162813
C145  C     C_1   0.500000 0.766638 0.500000 -0.073887
C146  C     C_1   0.000000 0.266638 0.500000 -0.073887
C147  C     C_1   0.000000 0.232974 0.500000 -0.073334
C148  C     C_1   0.500000 0.732974 0.500000 -0.073335
C149  C     C_R   0.031707 0.173471 0.552433 -0.181875
C150  C     C_R   0.968293 0.173471 0.447567 -0.181876
C151  C     C_R   0.531707 0.673471 0.552433 -0.181876
C152  C     C_R   0.468293 0.673471 0.447567 -0.181877
C153  C     C_R   0.031748 0.134286 0.552475 -0.227639
C154  C     C_R   0.968252 0.134287 0.447525 -0.227650
C155  C     C_R   0.531748 0.634286 0.552475 -0.227640
C156  C     C_R   0.468252 0.634287 0.447525 -0.227648
C157  C     C_R   1.000000 0.114499 0.500000 -0.039817
C158  C     C_R   0.500000 0.614499 0.500000 -0.039817
C159  C     C_R   0.944436 0.954039 0.133530 0.129031
C160  C     C_R   0.055567 0.954044 0.866475 0.129022
C161  C     C_R   0.444436 0.454039 0.133529 0.129031
C162  C     C_R   0.555567 0.454043 0.866474 0.129025
C163  C     C_R   0.000000 0.192933 0.500000 0.162023
C164  C     C_R   0.500000 0.692933 0.500000 0.162023
C165  C     C_R   0.501291 0.173665 0.444902 0.441167
C166  C     C_R   0.498709 0.173665 0.555098 0.441179
C167  C     C_R   0.001318 0.673665 0.444931 0.441177
C168  C     C_R   0.998682 0.673665 0.555069 0.441184
C169  C     C_R   0.500560 0.134355 0.444401 -0.307256
C170  C     C_R   0.499441 0.134355 0.555599 -0.307285
C171  C     C_R   0.000586 0.634355 0.444428 -0.307239
C172  C     C_R   0.999414 0.634355 0.555572 -0.307254
C173  C     C_R   0.500000 0.114525 0.500000 -0.167087
C174  C     C_R   1.000000 0.614525 0.500000 -0.167110
C175  C     C_R   0.500000 0.193154 0.500000 -0.092980
C176  C     C_R   0.000000 0.693154 0.500000 -0.093013
C177  C     C_1   0.500000 0.233263 0.499999 0.074541
C178  C     C_1   0.000000 0.733263 0.499999 0.074498
C179  C     C_1   0.000000 0.766891 0.499999 -0.058081
C180  C     C_1   0.500000 0.266891 0.499999 -0.058077
C181  C     C_R   0.034180 0.826315 0.533433 -0.162827
C182  C     C_R   0.965820 0.826315 0.466566 -0.162826
C183  C     C_R   0.534180 0.326315 0.533437 -0.162825
C184  C     C_R   0.465820 0.326315 0.466561 -0.162822
C185  C     C_R   0.034229 0.865492 0.533505 -0.200742
C186  C     C_R   0.965771 0.865492 0.466495 -0.200743
C187  C     C_R   0.534229 0.365492 0.533509 -0.200743
C188  C     C_R   0.465771 0.365492 0.466490 -0.200745
C189  C     C_R   0.000000 0.885364 0.500000 -0.039505
C190  C     C_R   0.500000 0.385364 0.500000 -0.039505
C191  C     C_R   0.912927 0.971541 0.075625 -0.155420
C192  C     C_R   0.087078 0.971548 0.924372 -0.155444
C193  C     C_R   0.412926 0.471541 0.075625 -0.155423
C194  C     C_R   0.587077 0.471547 0.924373 -0.155441
C195  C     C_R   0.000000 0.806882 0.499999 0.150942
C196  C     C_R   0.500000 0.306882 0.499999 0.150930
C197  C     C_R   0.884265 0.949756 0.021050 -0.128163
C198  C     C_R   0.115741 0.949766 0.978951 -0.128162
C199  C     C_R   0.384265 0.449756 0.021050 -0.128161
C200  C     C_R   0.615739 0.449764 0.978950 -0.128161
C201  C     C_R   0.887263 0.910511 0.023167 -0.110681
C202  C     C_R   0.112743 0.910521 0.976844 -0.110676
C203  C     C_R   0.387263 0.410511 0.023167 -0.110680
C204  C     C_R   0.612742 0.410519 0.976842 -0.110676
C205  C     C_R   0.974818 0.977694 0.258203 -0.242511
C206  C     C_R   0.025184 0.977697 0.741799 -0.242508
C207  C     C_R   0.474818 0.477694 0.258203 -0.242511
C208  C     C_R   0.525183 0.477696 0.741799 -0.242509
H1    H     H_    0.865142 0.893722 0.980579 0.122851
H2    H     H_    0.134865 0.893734 0.019435 0.122851
H3    H     H_    0.365142 0.393723 0.980578 0.122850
H4    H     H_    0.634863 0.393732 0.019433 0.122850
H5    H     H_    0.116726 0.126743 0.500559 0.123142
H6    H     H_    0.883265 0.126735 0.499431 0.123142
H7    H     H_    0.616726 0.626743 0.500560 0.123142
H8    H     H_    0.383266 0.626736 0.499432 0.123142
H9    H     H_    0.047515 0.134757 0.438525 0.149356
H10   H     H_    0.952475 0.134752 0.561459 0.149354
H11   H     H_    0.547515 0.634757 0.438525 0.149356
H12   H     H_    0.452476 0.634753 0.561462 0.149355
H13   H     H_    0.005009 0.087211 0.350630 0.112707
H14   H     H_    0.994984 0.087209 0.649358 0.112701
H15   H     H_    0.505009 0.587211 0.350630 0.112708
H16   H     H_    0.494985 0.587209 0.649360 0.112702
H17   H     H_    0.311026 0.999355 0.212886 0.133262
H18   H     H_    0.688974 0.999356 0.787114 0.133262
H19   H     H_    0.811026 0.499355 0.212886 0.133262
H20   H     H_    0.188974 0.499355 0.787114 0.133262
H21   H     H_    0.379998 0.999631 0.280550 0.157348
H22   H     H_    0.620002 0.999631 0.719450 0.157348
H23   H     H_    0.879998 0.499631 0.280550 0.157349
H24   H     H_    0.120002 0.499631 0.719450 0.157349
H25   H     H_    0.380220 0.999752 0.481079 0.156426
H26   H     H_    0.619780 0.999752 0.518921 0.156427
H27   H     H_    0.880220 0.499753 0.481079 0.156428
H28   H     H_    0.119780 0.499753 0.518921 0.156428
H29   H     H_    0.311271 0.999474 0.412539 0.133020
H30   H     H_    0.688729 0.999474 0.587461 0.133020
H31   H     H_    0.811271 0.499474 0.412539 0.133021
H32   H     H_    0.188729 0.499475 0.587461 0.133020
H33   H     H_    0.189122 0.058737 0.168935 0.135154
H34   H     H_    0.810878 0.058736 0.831070 0.135154
H35   H     H_    0.689122 0.558737 0.168934 0.135153
H36   H     H_    0.310878 0.558736 0.831069 0.135153
H37   H     H_    0.120118 0.059234 0.098976 0.157184
H38   H     H_    0.879882 0.059233 0.901029 0.157182
H39   H     H_    0.620118 0.559234 0.098975 0.157183
H40   H     H_    0.379882 0.559233 0.901029 0.157182
H41   H     H_    0.119300 0.940650 0.144367 0.160074
H42   H     H_    0.880700 0.940651 0.855627 0.160075
H43   H     H_    0.619300 0.440650 0.144368 0.160074
H44   H     H_    0.380700 0.440651 0.855627 0.160075
H45   H     H_    0.920891 0.862543 0.082352 0.127838
H46   H     H_    0.079114 0.862551 0.917675 0.127835
H47   H     H_    0.420892 0.362543 0.082351 0.127836
H48   H     H_    0.579112 0.362549 0.917670 0.127834
H49   H     H_    0.188314 0.940578 0.213942 0.135705
H50   H     H_    0.811686 0.940579 0.786051 0.135706
H51   H     H_    0.688314 0.440578 0.213943 0.135706
H52   H     H_    0.311686 0.440579 0.786051 0.135706
H53   H     H_    0.500086 0.811049 0.599789 0.133076
H54   H     H_    0.499914 0.811050 0.400212 0.133076
H55   H     H_    0.000088 0.311049 0.599790 0.133077
H56   H     H_    0.999912 0.311050 0.400211 0.133076
H57   H     H_    0.500085 0.879999 0.600235 0.156698
H58   H     H_    0.499915 0.879999 0.399765 0.156698
H59   H     H_    0.000087 0.379999 0.600236 0.156698
H60   H     H_    0.999913 0.379999 0.399764 0.156698
H61   H     H_    0.056311 0.188563 0.593133 0.136725
H62   H     H_    0.943689 0.188564 0.406868 0.136726
H63   H     H_    0.556311 0.688563 0.593132 0.136725
H64   H     H_    0.443689 0.688564 0.406868 0.136726
H65   H     H_    0.056453 0.119490 0.593514 0.158696
H66   H     H_    0.943547 0.119490 0.406486 0.158697
H67   H     H_    0.556453 0.619490 0.593514 0.158696
H68   H     H_    0.443547 0.619490 0.406486 0.158697
H69   H     H_    0.500626 0.119520 0.400671 0.182804
H70   H     H_    0.499375 0.119520 0.599329 0.182794
H71   H     H_    0.000675 0.619520 0.400720 0.182812
H72   H     H_    0.999326 0.619520 0.599280 0.182807
H73   H     H_    0.060707 0.811203 0.559367 0.132936
H74   H     H_    0.939293 0.811203 0.440632 0.132937
H75   H     H_    0.560707 0.311203 0.559375 0.132944
H76   H     H_    0.439293 0.311203 0.440624 0.132946
H77   H     H_    0.060980 0.880157 0.559677 0.156742
H78   H     H_    0.939020 0.880158 0.440323 0.156742
H79   H     H_    0.560980 0.380157 0.559684 0.156742
H80   H     H_    0.439020 0.380157 0.440315 0.156744
H81   H     H_    0.971141 0.900743 0.180639 0.125296
H82   H     H_    0.028861 0.900746 0.819382 0.125294
H83   H     H_    0.471142 0.400743 0.180638 0.125294
H84   H     H_    0.528860 0.400745 0.819378 0.125293
H85   H     H_    0.910321 0.001938 0.073411 0.119800
H86   H     H_    0.089683 0.001946 0.926579 0.119812
H87   H     H_    0.410321 0.501938 0.073412 0.119801
H88   H     H_    0.589682 0.501945 0.926580 0.119810
H89   H     H_    0.859656 0.963306 0.977274 0.148435
H90   H     H_    0.140351 0.963319 0.022721 0.148435
H91   H     H_    0.359655 0.463307 0.977275 0.148434
H92   H     H_    0.640350 0.463316 0.022722 0.148435
H93   H     H_    0.955619 0.960014 0.265339 0.156727
H94   H     H_    0.044384 0.960018 0.734665 0.156731
H95   H     H_    0.455619 0.460014 0.265339 0.156727
H96   H     H_    0.544384 0.460018 0.734665 0.156730
H97   H     H_    0.043201 0.041544 0.233060 0.154164
H98   H     H_    0.956796 0.041541 0.766937 0.154160
H99   H     H_    0.543201 0.541544 0.233060 0.154164
H100  H     H_    0.456797 0.541542 0.766937 0.154161
H101  H     H_    0.101577 0.024457 0.382621 0.125655
H102  H     H_    0.898421 0.024452 0.617383 0.125655
H103  H     H_    0.601577 0.524457 0.382621 0.125654
H104  H     H_    0.398421 0.524453 0.617382 0.125655
H105  H     H_    0.143650 0.071612 0.472391 0.127398
H106  H     H_    0.856345 0.071604 0.527609 0.127400
H107  H     H_    0.643650 0.571612 0.472391 0.127399
H108  H     H_    0.356346 0.571605 0.527609 0.127400
O1    O     O_R   0.055440 0.968710 0.055440 -0.616781
O2    O     O_R   0.944560 0.968710 0.944560 -0.616781
O3    O     O_R   0.555440 0.468710 0.055440 -0.616782
O4    O     O_R   0.444560 0.468710 0.944560 -0.616781
O5    O     O_R   0.444560 0.999900 0.496290 -0.625239
O6    O     O_R   0.555440 0.999900 0.503710 -0.625238
O7    O     O_R   0.944560 0.499900 0.496290 -0.625240
O8    O     O_R   0.055440 0.499900 0.503710 -0.625239
O9    O     O_R   0.444560 0.999880 0.392840 -0.623207
O10   O     O_R   0.555440 0.999880 0.607160 -0.623208
O11   O     O_R   0.944560 0.499880 0.392840 -0.623205
O12   O     O_R   0.055440 0.499880 0.607160 -0.623206
O13   O     O_R   0.500000 0.944470 0.551750 -0.623415
O14   O     O_R   0.500000 0.944470 0.448250 -0.623414
O15   O     O_R   0.000000 0.444470 0.551750 -0.623415
O16   O     O_R   0.000000 0.444470 0.448250 -0.623414
O17   O     O_R   0.055440 0.031290 0.055450 -0.628472
O18   O     O_R   0.944560 0.031290 0.944550 -0.628471
O19   O     O_R   0.555440 0.531290 0.055450 -0.628471
O20   O     O_R   0.444560 0.531290 0.944550 -0.628471
O21   O     O_R   0.000000 0.968710 0.091620 -0.613735
O22   O     O_R   0.000000 0.968710 0.908380 -0.613739
O23   O     O_R   0.500000 0.468710 0.091620 -0.613736
O24   O     O_R   0.500000 0.468710 0.908380 -0.613738
O25   O     O_R   0.000000 0.031290 0.091630 -0.625164
O26   O     O_R   0.000000 0.031290 0.908370 -0.625163
O27   O     O_R   0.500000 0.531290 0.091630 -0.625164
O28   O     O_R   0.500000 0.531290 0.908370 -0.625163
O29   O     O_R   0.968720 0.055450 0.468730 -0.618153
O30   O     O_R   0.031280 0.055450 0.531270 -0.618150
O31   O     O_R   0.468720 0.555450 0.468730 -0.618153
O32   O     O_R   0.531280 0.555450 0.531270 -0.618151
O33   O     O_R   0.968700 0.000020 0.377090 -0.627592
O34   O     O_R   0.031300 0.000020 0.622910 -0.627594
O35   O     O_R   0.468700 0.500020 0.377090 -0.627592
O36   O     O_R   0.531300 0.500020 0.622910 -0.627594
O37   O     O_R   0.031300 0.000000 0.439680 -0.609852
O38   O     O_R   0.968700 0.000000 0.560320 -0.609851
O39   O     O_R   0.531300 0.500000 0.439680 -0.609851
O40   O     O_R   0.468700 0.500000 0.560320 -0.609851
O41   O     O_R   0.968690 0.944590 0.468690 -0.626017
O42   O     O_R   0.031310 0.944590 0.531310 -0.626018
O43   O     O_R   0.468690 0.444590 0.468690 -0.626017
O44   O     O_R   0.531310 0.444590 0.531310 -0.626018
O45   O     O_R   0.500000 0.055330 0.551710 -0.624458
O46   O     O_R   0.500000 0.055330 0.448290 -0.624457
O47   O     O_R   0.000000 0.555330 0.551710 -0.624453
O48   O     O_R   0.000000 0.555330 0.448290 -0.624453
Zn1   Zn    Zn3+2 0.000000 0.958210 0.000000 0.963922
Zn2   Zn    Zn3+2 0.500000 0.458210 0.000000 0.963920
Zn3   Zn    Zn3+2 0.000000 0.041790 0.000000 0.942942
Zn4   Zn    Zn3+2 0.500000 0.541790 0.000000 0.942941
Zn5   Zn    Zn3+2 0.958200 0.000020 0.458210 0.954682
Zn6   Zn    Zn3+2 0.041800 0.000020 0.541790 0.954680
Zn7   Zn    Zn3+2 0.458200 0.500020 0.458210 0.954683
Zn8   Zn    Zn3+2 0.541800 0.500020 0.541790 0.954681
Zn9   Zn    Zn3+2 0.500000 0.999910 0.569080 0.940389
Zn10  Zn    Zn3+2 0.500000 0.999910 0.430920 0.940391
Zn11  Zn    Zn3+2 0.000000 0.499910 0.569080 0.940396
Zn12  Zn    Zn3+2 1.000000 0.499910 0.430920 0.940397
O49   O     O_3   0.500941 0.193107 0.389134 -0.598707
C209  C     C_3   0.538066 0.194536 0.402649 0.101216
H109  H     H_    0.548174 0.165829 0.400145 0.136323
H110  H     H_    0.557709 0.207301 0.456511 0.133388
C210  C     C_3   0.538673 0.218825 0.345308 -0.816456
H111  H     H_    0.529143 0.247831 0.347106 0.257720
H112  H     H_    0.567754 0.220131 0.355302 0.200257
H113  H     H_    0.519733 0.206641 0.290864 0.257117
O50   O     O_3   0.499060 0.193108 0.610866 -0.598708
C211  C     C_3   0.461938 0.194524 0.597369 0.101222
H114  H     H_    0.451845 0.165814 0.599902 0.136325
H115  H     H_    0.442284 0.207276 0.543500 0.133386
C212  C     C_3   0.461330 0.218820 0.654700 -0.816465
H116  H     H_    0.470844 0.247829 0.652871 0.257718
H117  H     H_    0.432251 0.220115 0.644721 0.200258
H118  H     H_    0.480282 0.206650 0.709151 0.257122
O51   O     O_3   0.000996 0.693106 0.389189 -0.598703
C213  C     C_3   0.038135 0.694544 0.402778 0.101216
H119  H     H_    0.048259 0.665839 0.400313 0.136319
H120  H     H_    0.057753 0.707318 0.456645 0.133388
C214  C     C_3   0.038769 0.718828 0.345460 -0.816450
H121  H     H_    0.029223 0.747832 0.347219 0.257722
H122  H     H_    0.067862 0.720143 0.355513 0.200256
H123  H     H_    0.019855 0.706635 0.291013 0.257115
O52   O     O_3   0.999004 0.693107 0.610811 -0.598703
C215  C     C_3   0.961867 0.694538 0.597231 0.101217
H124  H     H_    0.951751 0.665831 0.599711 0.136320
H125  H     H_    0.942244 0.707306 0.543361 0.133388
C216  C     C_3   0.961232 0.718825 0.654544 -0.816454
H126  H     H_    0.970771 0.747830 0.652770 0.257722
H127  H     H_    0.932141 0.720134 0.644499 0.200257
H128  H     H_    0.980152 0.706639 0.708995 0.257117

loop_
_geom_bond_atom_site_label_1
_geom_bond_atom_site_label_2
_ccdc_geom_bond_type
C99   C103  A    
C133  C137  A    
C55   C59   A    
C38   H10   S    
C136  C140  A    
C165  C169  A    
C133  H53   S    
C175  C177  S    
C179  C195  S    
C135  C139  A    
C150  C163  A    
C84   C112  S    
C119  C189  S    
O11   Zn12  S    
C66   H26   S    
C200  H92   S    
C120  O43   A    
C86   C110  A    
C26   C50   A    
C139  C142  A    
C95   C99   A    
C124  O6    A    
C29   C33   A    
O9    Zn10  S    
C100  C104  A    
C121  O46   A    
O17   Zn3   S    
C9    C13   A    
C53   H17   S    
C134  C143  A    
C54   C74   A    
C11   C15   A    
C121  C173  S    
C12   C16   A    
C27   C51   A    
C1    O1    A    
C70   C74   A    
C3    O3    A    
C180  C196  S    
C40   H12   S    
C155  C158  A    
C101  C105  A    
C21   C159  S    
C117  O39   A    
C41   C49   A    
C25   C29   A    
O13   Zn9   S    
C56   H20   S    
C27   C31   A    
C28   C32   A    
C127  H81   S    
C186  H78   S    
C62   C66   A    
C167  C171  A    
C98   C102  A    
C115  O33   A    
C17   C21   A    
C211  H115  S    
C88   H36   S    
C78   C82   T    
O4    Zn2   S    
C68   C72   A    
C204  H4    S    
C183  C196  A    
O15   Zn11  S    
O33   Zn5   S    
C6    C116  S    
C63   C125  S    
C93   H37   S    
O7    Zn11  S    
C47   O23   A    
C212  H116  S    
C211  C212  S    
C145  C148  T    
C146  C147  T    
C89   C127  A    
C139  H59   S    
C123  O5    A    
C23   C207  A    
O25   Zn3   S    
C138  C141  A    
C182  H74   S    
C48   O28   A    
C57   C61   A    
C91   C129  A    
O51   C213  S    
C59   C63   A    
C60   C64   A    
C103  H43   S    
O3    Zn2   S    
C214  H122  S    
C216  H126  S    
C66   C70   A    
C91   H47   S    
C186  C189  A    
O12   Zn11  S    
C156  C158  A    
C170  H70   S    
C156  H68   S    
C213  H119  S    
C61   C65   A    
C113  O30   A    
O6    Zn10  S    
C73   C77   S    
C92   C130  A    
C103  C107  A    
C113  C157  S    
C209  H109  S    
C75   C79   S    
C90   C202  A    
C26   C30   A    
C45   O25   A    
C104  H44   S    
C126  O8    A    
O48   Zn12  S    
C59   H23   S    
C150  H62   S    
C62   C124  S    
C178  C179  T    
O34   Zn6   S    
C183  H75   S    
C32   C36   A    
C39   H11   S    
C29   H105  S    
C131  O13   A    
C19   C47   S    
C32   H108  S    
C166  O50   S    
C22   C206  A    
C107  H51   S    
C55   H19   S    
C149  C153  A    
C95   H39   S    
O44   Zn8   S    
C85   C93   A    
C194  C200  A    
C116  O38   A    
C87   C95   A    
C198  C202  A    
C210  H113  S    
C4    O4    A    
C131  C141  S    
C200  C204  A    
C197  H89   S    
C55   C75   A    
C130  C162  A    
C176  C178  S    
C90   H46   S    
O43   Zn7   S    
O46   Zn10  S    
C203  H3    S    
C201  H1    S    
C172  C174  A    
O29   Zn5   S    
C30   C34   A    
C129  C161  A    
C148  C164  S    
C152  C156  A    
C9    C49   S    
C7    C207  A    
C10   C14   A    
C216  H128  S    
O39   Zn8   S    
C132  O15   A    
O27   Zn4   S    
C122  C174  S    
O24   Zn2   S    
C2    O2    A    
C43   H15   S    
C5    C9    A    
C58   H22   S    
C1    O17   A    
C8    C12   A    
C3    O19   A    
O20   Zn4   S    
C122  O47   A    
C161  C193  A    
C152  C164  A    
C42   C50   A    
C25   H101  S    
C166  C170  A    
C151  C155  A    
C199  H91   S    
C119  O41   A    
C126  O12   A    
C93   C97   A    
C210  H112  S    
C215  H124  S    
C168  C176  A    
C105  C109  A    
C192  H86   S    
C18   C22   A    
C107  C111  A    
C101  H41   S    
C76   C80   S    
C153  H65   S    
C167  O51   S    
C185  C189  A    
C13   C17   A    
C61   C123  S    
C120  O44   A    
C147  C163  S    
C214  H121  S    
C36   H8    S    
C22   C160  S    
C96   C100  A    
C121  O45   A    
O30   Zn6   S    
C37   C41   A    
C91   C203  A    
C6    C206  A    
C3    C99   S    
C191  H85   S    
C151  C164  A    
C169  C173  A    
O36   Zn8   S    
C182  C195  A    
C70   H30   S    
C42   H14   S    
C35   H7    S    
C16   H100  S    
C87   H35   S    
C48   O24   A    
C86   H34   S    
C58   C62   A    
C88   C96   A    
C2    O18   A    
O41   Zn5   S    
C37   H9    S    
C80   C84   T    
C15   C19   A    
C166  C175  A    
C13   H97   S    
C65   H25   S    
C140  C142  A    
C85   C109  A    
C54   C58   A    
C87   C111  A    
C94   C98   A    
O10   Zn9   S    
C30   H106  S    
C125  O11   A    
C182  C186  A    
C154  H66   S    
C7    C117  S    
C114  C158  S    
C187  C190  A    
C45   O21   A    
C188  H80   S    
C140  H60   S    
C69   C73   A    
C44   H16   S    
C193  H87   S    
C92   C204  A    
C194  H88   S    
C114  O31   A    
O1    Zn1   S    
C102  H42   S    
C27   H103  S    
C199  C203  A    
O40   Zn7   S    
C18   C46   S    
C12   C52   S    
O52   C215  S    
O14   Zn10  S    
C171  C174  A    
C53   C73   A    
O22   Zn1   S    
C159  C191  A    
C160  C192  A    
C154  C157  A    
C33   H5    S    
C34   H6    S    
C214  H123  S    
C206  H94   S    
C53   C57   A    
C184  C196  A    
C24   C208  A    
C33   C37   A    
C108  C112  A    
C46   O26   A    
C71   H31   S    
C35   C39   A    
O42   Zn6   S    
C183  C187  A    
C57   H21   S    
C77   C81   T    
C85   H33   S    
C28   H104  S    
O23   Zn2   S    
C94   H38   S    
C20   C48   S    
C213  H120  S    
C92   H48   S    
C144  C146  S    
C81   C109  S    
C64   C126  S    
C83   C111  S    
C209  H110  S    
C10   C50   S    
C64   C68   A    
C104  C108  A    
O50   C211  S    
C31   H107  S    
C137  C141  A    
C105  H49   S    
C118  O40   A    
C60   H24   S    
C17   C45   S    
C184  H76   S    
C213  C214  S    
C6    C10   A    
C15   H99   S    
C155  H67   S    
C209  C210  S    
C211  H114  S    
C149  H61   S    
C136  C144  A    
C193  C199  A    
C79   C83   T    
C43   C51   A    
O2    Zn1   S    
C168  O52   S    
C65   C69   A    
C26   H102  S    
C46   O22   A    
C115  O37   A    
C67   C71   A    
C153  C157  A    
C181  C195  A    
C25   C49   A    
C192  C198  A    
C88   C112  A    
C56   C60   A    
C168  C172  A    
C74   C78   S    
C130  H84   S    
C212  H117  S    
O5    Zn9   S    
O37   Zn6   S    
C96   H40   S    
C41   H13   S    
C170  C173  A    
C89   C201  A    
C135  H55   S    
C56   C76   A    
C136  H56   S    
C14   C18   A    
C19   C23   A    
C72   C76   A    
C151  H63   S    
C8    C118  S    
C7    C11   A    
C67   H27   S    
O16   Zn12  S    
O19   Zn4   S    
C82   C110  S    
C188  C190  A    
C38   C42   A    
C120  C190  S    
C216  H127  S    
C132  O16   A    
C21   C205  A    
C8    C208  A    
C185  H77   S    
C54   H18   S    
C86   C94   A    
C187  H79   S    
C20   C24   A    
C205  H93   S    
C72   H32   S    
C197  C201  A    
O18   Zn3   S    
C149  C163  A    
C68   H28   S    
C16   C20   A    
C134  H54   S    
C89   H45   S    
O45   Zn9   S    
C14   H98   S    
C137  H57   S    
C202  H2    S    
O47   Zn11  S    
C215  H125  S    
C132  C142  S    
C63   C67   A    
C133  C143  A    
C117  O35   A    
C125  O7    A    
C207  H95   S    
C36   C40   A    
C208  H96   S    
C1    C97   S    
C131  O14   A    
C181  C185  A    
O38   Zn5   S    
C39   C43   A    
C138  H58   S    
C123  O9    A    
C184  C188  A    
O35   Zn7   S    
C181  H73   S    
C212  H118  S    
C215  C216  S    
O32   Zn8   S    
C122  O48   A    
C40   C44   A    
C177  C180  T    
C162  C194  A    
C129  H83   S    
O49   C209  S    
C172  H72   S    
C135  C144  A    
O21   Zn1   S    
C4    O20   A    
C4    C100  S    
C116  O34   A    
C108  H52   S    
C169  H69   S    
C127  C159  A    
C171  H71   S    
C128  C160  A    
C106  C110  A    
C113  O29   A    
C143  C145  S    
C34   C38   A    
C24   C162  S    
C191  C197  A    
C134  C138  A    
C165  C175  A    
O26   Zn3   S    
O8    Zn12  S    
C71   C75   A    
C28   C52   A    
C44   C52   A    
C210  H111  S    
C69   H29   S    
C152  H64   S    
C165  O49   S    
C128  H82   S    
O31   Zn7   S    
C102  C106  A    
C31   C35   A    
C198  H90   S    
C97   C101  A    
C11   C51   S    
C5    C205  A    
O28   Zn4   S    
C124  O10   A    
C2    C98   S    
C150  C154  A    
C106  H50   S    
C90   C128  A    
C119  O42   A    
C118  O36   A    
C5    C115  S    
C114  O32   A    
C167  C176  A    
C23   C161  S    
C47   O27   A    
