data_mof_unit_58369.cif
_audit_creation_date              2012-12-10T20:31:09-0500
_audit_creation_method            fapswitch 2.2
_symmetry_space_group_name_H-M    P1
_symmetry_Int_Tables_number       1
_space_group_crystal_system       triclinic
_cell_length_a                    14.90667
_cell_length_b                    10.695717
_cell_length_c                    9.896633
_cell_angle_alpha                 89.622952
_cell_angle_beta                  89.429811
_cell_angle_gamma                 90.235296
_cell_volume                      1577.76862684

loop_
_atom_site_label
_atom_site_type_symbol
_atom_type_description
_atom_site_fract_x
_atom_site_fract_y
_atom_site_fract_z
_atom_type_partial_charge
C1    C     C_R   0.499929 0.260277 0.500174 0.866649
C2    C     C_R   0.907075 0.581723 0.578565 0.120489
C3    C     C_R   0.950735 0.315837 0.345322 -0.255893
C4    C     C_R   0.043674 0.309990 0.348955 -0.153222
C5    C     C_R   0.092799 0.393106 0.430051 0.105730
C6    C     C_R   0.046522 0.487015 0.503184 0.021140
C7    C     C_R   0.093457 0.577391 0.578286 0.123761
C8    C     C_R   0.047502 0.667671 0.653468 -0.201794
C9    C     C_R   0.954433 0.669105 0.654613 -0.220045
C10   C     C_R   0.186953 0.388200 0.437210 -0.063594
C11   C     C_R   0.231654 0.486885 0.502572 -0.140531
C12   C     C_R   0.327181 0.495616 0.500706 0.873083
C13   C     C_R   0.185854 0.578019 0.574793 -0.257673
C14   C     C_R   0.538875 0.063390 0.608496 0.120306
C15   C     C_R   0.505142 0.128440 0.498010 -0.088975
C16   C     C_R   0.481391 0.065109 0.380083 -0.209093
C17   C     C_R   0.480641 0.936538 0.380210 -0.228687
C18   C     C_R   0.505175 0.871686 0.497310 -0.093230
C19   C     C_R   0.539072 0.935512 0.608064 0.114183
C20   C     C_3   0.512805 0.927267 0.754135 -0.472975
C21   C     C_3   0.512547 0.069011 0.754458 -0.469270
C22   C     C_R   0.436093 0.434696 0.072579 0.185688
C23   C     C_R   0.499876 0.739739 0.499592 0.887293
C24   C     C_R   0.567822 0.555358 0.068513 0.000927
C25   C     C_R   0.567401 0.554478 0.925182 -0.174281
C26   C     C_R   0.436123 0.434906 0.930224 0.209228
C27   C     C_3   0.337537 0.456183 0.925237 -0.484420
C28   C     C_3   0.337264 0.456210 0.078470 -0.507351
C29   C     C_R   0.672900 0.500130 0.499459 0.897138
C30   C     C_R   0.814277 0.583384 0.578057 -0.264421
C31   C     C_R   0.768176 0.498071 0.498736 -0.039299
C32   C     C_R   0.812503 0.409667 0.420329 -0.269690
C33   C     C_R   0.905261 0.404762 0.422052 0.116064
C34   C     C_R   0.953026 0.491054 0.501300 0.063941
H1    H     H_    0.777735 0.651733 0.637393 0.139723
H2    H     H_    0.455609 0.888710 0.292119 0.164751
H3    H     H_    0.445085 0.885439 0.770446 0.213199
H4    H     H_    0.566799 0.886220 0.816963 0.197301
H5    H     H_    0.444686 0.109426 0.770799 0.212526
H6    H     H_    0.566402 0.109987 0.817443 0.200713
H7    H     H_    0.620180 0.601567 0.868379 0.154020
H8    H     H_    0.320134 0.548479 0.880439 0.216089
H9    H     H_    0.301232 0.375056 0.881865 0.206752
H10   H     H_    0.319543 0.548438 0.122324 0.222798
H11   H     H_    0.774556 0.344118 0.359891 0.142623
H12   H     H_    0.300293 0.375195 0.122677 0.193864
H13   H     H_    0.914400 0.250867 0.282260 0.150075
H14   H     H_    0.076175 0.242307 0.284588 0.192246
H15   H     H_    0.222747 0.650092 0.627843 0.148692
H16   H     H_    0.083576 0.736944 0.711369 0.150710
H17   H     H_    0.919556 0.739030 0.713725 0.149136
H18   H     H_    0.458131 0.114185 0.290986 0.170101
N1    N     N_R   0.499390 0.499140 0.142800 -0.126732
N2    N     N_R   0.499390 0.499180 0.857150 -0.112670
O1    O     O_R   0.500010 0.316790 0.614690 -0.614363
O2    O     O_R   0.500000 0.316760 0.385350 -0.636738
O3    O     O_R   0.367850 0.499990 0.614680 -0.615315
O4    O     O_R   0.367840 0.499950 0.385340 -0.635509
O5    O     O_R   0.500000 0.683240 0.614650 -0.621255
O6    O     O_R   0.499990 0.683210 0.385310 -0.623956
O7    O     O_R   0.632160 0.500050 0.614660 -0.627613
O8    O     O_R   0.632150 0.500010 0.385320 -0.609181
Zn1   Zn    Zn3+2 0.500010 0.500020 0.653130 0.941121
Zn2   Zn    Zn3+2 0.499990 0.499980 0.346870 0.940918
C35   C     C_R   0.641607 0.623652 0.132715 0.175783
C36   C     C_R   0.629457 0.747651 0.173556 -0.108430
C37   C     C_R   0.700751 0.815111 0.228405 -0.169225
C38   C     C_R   0.785542 0.760580 0.237660 -0.123055
C39   C     C_R   0.799286 0.639208 0.190462 -0.125305
C40   C     C_R   0.727672 0.570899 0.137529 -0.148009
H19   H     H_    0.565116 0.792203 0.161109 0.122676
H20   H     H_    0.690512 0.910127 0.262062 0.139934
H21   H     H_    0.840836 0.812899 0.279658 0.137085
H22   H     H_    0.865323 0.597851 0.195483 0.143773
H23   H     H_    0.739035 0.476916 0.101214 0.121037
C41   C     C_2   0.238896 0.277821 0.388403 0.321320
H24   H     H_    0.306724 0.288426 0.349873 0.093110
O9    O     O_2   0.208416 0.172038 0.398786 -0.575897

loop_
_geom_bond_atom_site_label_1
_geom_bond_atom_site_label_2
_ccdc_geom_bond_type
C32   H11   S    
C19   C20   S    
C9    H17   S    
C6    C34   A    
C7    C8    A    
C23   O5    A    
C28   H12   S    
C26   C27   S    
C30   H1    S    
C14   C21   S    
C1    O2    A    
C41   O9    D    
C18   C19   A    
C5    C6    A    
N1    Zn2   S    
C16   C17   A    
N2    Zn1   S    
C3    C33   A    
C35   C40   A    
C17   C18   A    
C37   H20   S    
O7    Zn1   S    
O8    Zn2   S    
C10   C41   S    
C31   C32   A    
C8    C9    A    
O1    Zn1   S    
O2    Zn2   S    
C1    C15   S    
C17   H2    S    
C12   O4    A    
C2    C34   A    
C36   C37   A    
C22   C28   S    
C26   N2    A    
O3    Zn1   S    
C22   N1    A    
O4    Zn2   S    
C23   O6    A    
C29   O7    A    
C37   C38   A    
C38   H21   S    
C24   C25   A    
C25   H7    S    
C38   C39   A    
C24   N1    A    
C28   H10   S    
C18   C23   S    
C20   H4    S    
C36   H19   S    
C21   H5    S    
C33   C34   A    
C39   H22   S    
C41   H24   S    
C25   N2    A    
C13   H15   S    
C12   O3    A    
C24   C35   S    
C3    C4    A    
C8    H16   S    
C40   H23   S    
C4    H14   S    
C29   O8    A    
C14   C19   A    
C16   H18   S    
C4    C5    A    
C11   C12   S    
C6    C7    A    
O5    Zn1   S    
C2    C30   A    
O6    Zn2   S    
C32   C33   A    
C1    O1    A    
C5    C10   A    
C29   C31   S    
C20   H3    S    
C11   C13   A    
C27   H8    S    
C30   C31   A    
C21   H6    S    
C3    H13   S    
C39   C40   A    
C10   C11   A    
C27   H9    S    
C7    C13   A    
C20   C21   S    
C35   C36   A    
C22   C26   A    
C27   C28   S    
C14   C15   A    
C2    C9    A    
C15   C16   A    
