data_mof_unit_64876.cif
_audit_creation_date              2012-12-10T18:42:53-0500
_audit_creation_method            fapswitch 2.2
_symmetry_space_group_name_H-M    P1
_symmetry_Int_Tables_number       1
_space_group_crystal_system       triclinic
_cell_length_a                    45.097478
_cell_length_b                    31.859684
_cell_length_c                    31.875731
_cell_angle_alpha                 89.989697
_cell_angle_beta                  134.985318
_cell_angle_gamma                 90.00782
_cell_volume                      32392.9221064

loop_
_atom_site_label
_atom_site_type_symbol
_atom_type_description
_atom_site_fract_x
_atom_site_fract_y
_atom_site_fract_z
_atom_type_partial_charge
C1    C     C_R   0.581326 0.000002 0.581318 0.898914
C2    C     C_3   0.000297 0.208721 0.500430 0.131619
C3    C     C_R   0.581302 0.500000 0.081376 0.899302
C4    C     C_3   0.020553 0.034685 0.784041 -0.048960
C5    C     C_3   0.021011 0.965634 0.784490 -0.027122
C6    C     C_3   0.518291 0.535916 0.781777 -0.049244
C7    C     C_3   0.523180 0.467039 0.786656 -0.026793
C8    C     C_3   0.478212 0.533514 0.714205 -0.264453
C9    C     C_3   0.483156 0.463779 0.719142 -0.295367
C10   C     C_3   0.980404 0.034864 0.716395 -0.264409
C11   C     C_3   0.980862 0.964956 0.716847 -0.295384
C12   C     C_1   0.499923 0.499992 0.625679 -0.187576
C13   C     C_3   0.467482 0.235957 0.444490 -0.186475
C14   C     C_1   0.999923 0.000003 0.625679 -0.187571
C15   C     C_1   0.000345 0.000014 0.874720 -0.115653
C16   C     C_1   0.500348 0.500022 0.874723 -0.115695
C17   C     C_3   0.539733 0.502852 0.775376 0.140262
C18   C     C_3   0.039831 0.000308 0.775480 0.140212
C19   C     C_3   0.500182 0.500032 0.708714 0.090208
C20   C     C_3   0.000182 0.000037 0.708715 0.090157
C21   C     C_3   0.001541 0.000022 0.793091 0.066204
C22   C     C_3   0.501545 0.500102 0.793095 0.066264
C23   C     C_3   0.536270 0.235780 0.520424 -0.160580
C24   C     C_3   0.467826 0.764097 0.444443 -0.186391
C25   C     C_3   0.536513 0.764221 0.521150 -0.161685
C26   C     C_3   0.036158 0.735781 0.520043 -0.160579
C27   C     C_3   0.034926 0.264224 0.516232 -0.161677
C28   C     C_3   0.962214 0.999767 0.726181 0.255450
C29   C     C_3   0.462314 0.497318 0.726286 0.255311
C30   C     C_1   0.499963 0.499998 0.663156 -0.034305
C31   C     C_1   0.999963 0.000012 0.663157 -0.034342
C32   C     C_1   0.000849 0.000022 0.837797 0.087517
C33   C     C_1   0.500854 0.500057 0.837801 0.087516
C34   C     C_3   0.018813 0.966183 0.255423 0.236442
C35   C     C_3   0.967322 0.735952 0.444565 -0.186518
C36   C     C_3   0.019388 0.033494 0.255978 0.234754
C37   C     C_3   0.519891 0.466810 0.256501 0.236414
C38   C     C_3   0.518305 0.534109 0.254897 0.234685
C39   C     C_3   0.480473 0.464850 0.244862 -0.150282
C40   C     C_3   0.478863 0.534220 0.243244 -0.194441
C41   C     C_3   0.979355 0.965490 0.243747 -0.150274
C42   C     C_3   0.979972 0.034876 0.244356 -0.194588
C43   C     C_1   0.500059 0.500004 0.374307 -0.183192
C44   C     C_1   0.000059 0.000000 0.374307 -0.183237
C45   C     C_1   0.999851 0.999989 0.125725 -0.152124
C46   C     C_3   0.965792 0.264077 0.445480 -0.185668
C47   C     C_1   0.499851 0.499988 0.125725 -0.152115
C48   C     C_3   0.540136 0.500947 0.304298 -0.223884
C49   C     C_3   0.040144 0.999649 0.304304 -0.223871
C50   C     C_3   0.500014 0.500007 0.291394 0.124166
C51   C     C_3   0.000014 0.000000 0.291394 0.124195
C52   C     C_3   0.999402 0.000001 0.208184 0.065704
C53   C     C_3   0.499404 0.499988 0.208184 0.065641
C54   C     C_1   0.499927 0.125804 0.499965 -0.143893
C55   C     C_1   0.499961 0.874196 0.500034 -0.143502
C56   C     C_1   0.999931 0.625803 0.499970 -0.143870
C57   C     C_3   0.504035 0.263760 0.464704 -0.171370
C58   C     C_1   0.999961 0.374196 0.500026 -0.143374
C59   C     C_3   0.959688 0.000363 0.196091 -0.222574
C60   C     C_3   0.459697 0.499072 0.196096 -0.222489
C61   C     C_1   0.500053 0.500006 0.336820 -0.041763
C62   C     C_1   0.000053 0.000000 0.336820 -0.041820
C63   C     C_1   0.999639 0.999989 0.162988 -0.047018
C64   C     C_1   0.499639 0.499983 0.162988 -0.047029
C65   C     C_1   0.500022 0.374184 0.500044 -0.179413
C66   C     C_1   0.500021 0.625817 0.499999 -0.180570
C67   C     C_1   0.000022 0.874184 0.500038 -0.179378
C68   C     C_3   0.504563 0.736297 0.465271 -0.170857
C69   C     C_1   0.000023 0.125816 0.500013 -0.180424
C70   C     C_3   0.496159 0.236406 0.536087 -0.008570
C71   C     C_3   0.495691 0.763536 0.535593 -0.006804
C72   C     C_3   0.996455 0.736410 0.536406 -0.008485
C73   C     C_3   0.999399 0.263553 0.539515 -0.007675
C74   C     C_3   0.499808 0.208714 0.500466 0.145742
C75   C     C_3   0.499862 0.791285 0.500573 0.145732
C76   C     C_3   0.999819 0.708714 0.500479 0.145694
C77   C     C_3   0.999913 0.291285 0.500609 0.145746
C78   C     C_3   0.747797 0.001271 0.863730 -0.751460
C79   C     C_3   0.003752 0.763757 0.464386 -0.171310
C80   C     C_3   0.247796 0.501873 0.863719 -0.751217
C81   C     C_2   0.277527 0.070352 0.230762 0.398851
C82   C     C_2   0.277512 0.924907 0.238811 0.400969
C83   C     C_2   0.777506 0.570396 0.230770 0.398848
C84   C     C_2   0.777539 0.424965 0.238800 0.400864
C85   C     C_2   0.222296 0.075859 0.260315 0.376206
C86   C     C_2   0.222334 0.928646 0.268323 0.375170
C87   C     C_2   0.722275 0.575845 0.260325 0.375804
C88   C     C_2   0.722347 0.428626 0.268272 0.374857
C89   C     C_3   0.251486 0.006592 0.366387 -0.733119
C90   C     C_3   0.000908 0.236278 0.461364 -0.170837
C91   C     C_3   0.751517 0.506337 0.366431 -0.733681
C92   C     C_2   0.042438 0.073851 0.819855 0.403175
C93   C     C_2   0.043139 0.926581 0.820512 0.399026
C94   C     C_2   0.537618 0.576408 0.815032 0.403092
C95   C     C_2   0.547772 0.429494 0.825143 0.398857
C96   C     C_3   0.887148 0.001248 0.636849 -0.758339
C97   C     C_3   0.387308 0.493986 0.637022 -0.758429
C98   C     C_3   0.615500 0.508308 0.863371 -0.753023
C99   C     C_3   0.115799 0.000919 0.863680 -0.753176
C100  C     C_3   0.053990 0.899954 0.305577 -0.769032
C101  C     C_1   0.499874 0.163289 0.500108 0.015399
C102  C     C_3   0.059156 0.097085 0.310625 -0.768046
C103  C     C_3   0.557182 0.401740 0.308771 -0.768912
C104  C     C_3   0.555971 0.598982 0.307449 -0.768056
C105  C     C_3   0.393799 0.250240 0.436043 -0.756607
C106  C     C_3   0.393643 0.749890 0.435478 -0.750958
C107  C     C_3   0.894149 0.750225 0.437244 -0.756636
C108  C     C_3   0.897746 0.249810 0.448770 -0.752575
C109  C     C_2   0.491746 0.222476 0.576328 0.380297
C110  C     C_2   0.490793 0.777413 0.575309 0.379963
C111  C     C_2   0.992374 0.722483 0.577011 0.380395
C112  C     C_R   0.081326 0.500001 0.581318 0.899372
C113  C     C_1   0.499928 0.836710 0.500218 0.015464
C114  C     C_2   0.998611 0.277443 0.583597 0.379520
C115  C     C_2   0.777326 0.926978 0.821271 0.402372
C116  C     C_2   0.777264 0.074230 0.819101 0.398086
C117  C     C_2   0.277324 0.427206 0.821657 0.402343
C118  C     C_2   0.277264 0.574441 0.818711 0.398224
C119  C     C_3   0.749665 0.996631 0.636856 -0.758516
C120  C     C_3   0.249665 0.496046 0.636882 -0.758219
C121  C     C_1   0.999882 0.663289 0.500118 0.015427
C122  C     C_1   0.999942 0.336710 0.500215 0.015648
C123  C     C_1   0.500121 0.336696 0.500175 -0.050455
C124  C     C_1   0.500119 0.663304 0.500110 -0.052233
C125  C     C_1   0.000121 0.836697 0.500165 -0.050495
C126  C     C_1   0.000129 0.163303 0.500131 -0.051614
C127  C     C_3   0.763416 0.965725 0.784713 -0.048636
C128  C     C_3   0.763399 0.034767 0.783835 -0.026402
C129  C     C_3   0.263415 0.465831 0.784895 -0.048606
C130  C     C_3   0.464626 0.263821 0.480983 0.195604
C131  C     C_3   0.263399 0.534867 0.783653 -0.026454
C132  C     C_3   0.735943 0.964785 0.717069 -0.264058
C133  C     C_3   0.735929 0.034686 0.716178 -0.294884
C134  C     C_3   0.235942 0.464679 0.717257 -0.263907
C135  C     C_3   0.235930 0.534575 0.715998 -0.294873
C136  C     C_1   0.625707 0.000002 0.625670 -0.180636
C137  C     C_1   0.125707 0.499999 0.625670 -0.180276
C138  C     C_1   0.874295 0.999999 0.874750 -0.116644
C139  C     C_1   0.374295 0.499998 0.874751 -0.116577
C140  C     C_R   0.499981 0.081358 0.499988 0.901909
C141  C     C_3   0.464441 0.736177 0.480334 0.195032
C142  C     C_R   0.499989 0.918642 0.500005 0.902509
C143  C     C_R   0.999982 0.581358 0.499989 0.901880
C144  C     C_R   0.999984 0.418642 0.499999 0.902443
C145  C     C_3   0.735577 0.000459 0.775494 0.140079
C146  C     C_3   0.235576 0.500664 0.775491 0.140014
C147  C     C_3   0.708479 0.999981 0.708718 0.089439
C148  C     C_3   0.208479 0.499976 0.708719 0.089406
C149  C     C_3   0.791474 0.000016 0.793099 0.066037
C150  C     C_3   0.291474 0.500017 0.793101 0.066041
C151  C     C_3   0.763911 0.999528 0.726179 0.254646
C152  C     C_3   0.964750 0.763821 0.481359 0.195610
C153  C     C_3   0.263913 0.499321 0.726186 0.254454
C154  C     C_1   0.663138 0.999998 0.663147 -0.032150
C155  C     C_1   0.163138 0.499994 0.663148 -0.031936
C156  C     C_1   0.836874 0.000001 0.837823 0.088019
C157  C     C_1   0.336874 0.500000 0.837826 0.088056
C158  C     C_3   0.236242 0.035595 0.254374 -0.068930
C159  C     C_3   0.236248 0.966624 0.258231 -0.045264
C160  C     C_3   0.736231 0.535601 0.254372 -0.069340
C161  C     C_3   0.736259 0.466630 0.258224 -0.044843
C162  C     C_3   0.263537 0.033096 0.241803 -0.055763
C163  C     C_3   0.966072 0.236174 0.485194 0.195247
C164  C     C_3   0.263530 0.964696 0.245601 -0.051064
C165  C     C_3   0.763528 0.533130 0.241803 -0.055683
C166  C     C_3   0.763542 0.464732 0.245594 -0.051208
C167  C     C_1   0.374355 0.999975 0.374349 -0.120094
C168  C     C_1   0.874355 0.499998 0.374348 -0.120372
C169  C     C_1   0.125636 0.000002 0.125851 -0.117372
C170  C     C_1   0.625636 0.500001 0.125850 -0.117361
C171  C     C_R   0.418687 0.999996 0.418700 0.906137
C172  C     C_R   0.918687 0.500001 0.418700 0.905597
C173  C     C_3   0.264150 0.002183 0.303202 0.090787
C174  C     C_3   0.500270 0.291279 0.500460 0.131095
C175  C     C_3   0.764149 0.502191 0.303198 0.090803
C176  C     C_3   0.291574 0.999960 0.291109 0.090606
C177  C     C_3   0.791573 0.499997 0.291105 0.090679
C178  C     C_3   0.208384 0.000024 0.209039 0.116440
C179  C     C_3   0.708385 0.500029 0.209035 0.116564
C180  C     C_3   0.235221 0.997792 0.195496 -0.317364
C181  C     C_3   0.735223 0.497826 0.195493 -0.317339
C182  C     C_1   0.336951 0.999959 0.336781 0.095230
C183  C     C_1   0.836950 0.499995 0.336779 0.095349
C184  C     C_1   0.163042 0.000010 0.163435 0.107266
C185  C     C_3   0.500270 0.708722 0.500412 0.131599
C186  C     C_1   0.663042 0.500009 0.163433 0.107395
C187  C     C_R   0.499958 0.499995 0.581337 0.904424
C188  C     C_R   0.999958 0.999998 0.581337 0.904532
C189  C     C_R   0.499992 0.418634 0.500020 0.906459
C190  C     C_R   0.499993 0.581366 0.500007 0.905402
C191  C     C_R   0.999992 0.918634 0.500019 0.906489
C192  C     C_R   0.999993 0.081366 0.500014 0.905343
C193  C     C_R   0.500027 0.500001 0.418724 0.906984
C194  C     C_R   0.000027 0.000000 0.418724 0.906922
C195  C     C_R   0.000035 0.999996 0.081466 0.909964
C196  C     C_3   0.000272 0.791279 0.500451 0.131026
C197  C     C_R   0.500035 0.499996 0.081466 0.909920
C198  C     C_3   0.532530 0.264073 0.556257 -0.269951
C199  C     C_3   0.532246 0.735871 0.556371 -0.271328
C200  C     C_3   0.032704 0.764078 0.556186 -0.269922
C201  C     C_3   0.034346 0.235891 0.555379 -0.271457
C202  C     C_R   0.918660 1.000000 0.918709 0.889390
C203  C     C_R   0.418660 0.499999 0.918709 0.889460
C204  C     C_R   0.999939 0.000004 0.918675 0.887990
C205  C     C_R   0.499940 0.500005 0.918676 0.888118
C206  C     C_R   0.081302 0.000000 0.081377 0.899309
H1    H     H_    0.565929 0.223442 0.536677 0.147583
H2    H     H_    0.964012 0.936762 0.688394 0.153196
H3    H     H_    0.364407 0.733459 0.415599 0.242817
H4    H     H_    0.386749 0.769167 0.400401 0.252068
H5    H     H_    0.403669 0.770614 0.471653 0.244135
H6    H     H_    0.931951 0.801020 0.490901 0.217985
H7    H     H_    0.865618 0.766624 0.420076 0.242468
H8    H     H_    0.904730 0.727900 0.472400 0.244623
H9    H     H_    0.885826 0.732676 0.400006 0.250898
H10   H     H_    0.936339 0.198661 0.499777 0.217579
H11   H     H_    0.869861 0.233374 0.433715 0.242429
H12   H     H_    0.887715 0.268096 0.410836 0.251541
H13   H     H_    0.465168 0.435997 0.241673 0.143644
H14   H     H_    0.910121 0.271469 0.485468 0.244853
H15   H     H_    0.489310 0.245761 0.598580 0.057263
H16   H     H_    0.488048 0.754099 0.597202 0.056577
H17   H     H_    0.990118 0.745770 0.599457 0.057355
H18   H     H_    0.998148 0.254136 0.607926 0.056798
H19   H     H_    0.754069 0.905399 0.810283 0.058663
H20   H     H_    0.753985 0.096074 0.807560 0.076103
H21   H     H_    0.254067 0.405695 0.810782 0.059074
H22   H     H_    0.253984 0.596345 0.807053 0.076127
H23   H     H_    0.802512 0.022550 0.717634 0.225203
H24   H     H_    0.462401 0.562443 0.238855 0.147575
H25   H     H_    0.765626 0.994529 0.621938 0.237890
H26   H     H_    0.729429 0.025020 0.616871 0.234994
H27   H     H_    0.729989 0.968160 0.621237 0.247878
H28   H     H_    0.302524 0.522081 0.717538 0.225465
H29   H     H_    0.265625 0.493769 0.621975 0.238069
H30   H     H_    0.229447 0.524450 0.616768 0.235012
H31   H     H_    0.229969 0.467610 0.621395 0.247769
H32   H     H_    0.963134 0.937149 0.239647 0.143709
H33   H     H_    0.964426 0.063609 0.240886 0.147420
H34   H     H_    0.559118 0.276130 0.601823 0.155523
H35   H     H_    0.558585 0.723763 0.602007 0.154363
H36   H     H_    0.059427 0.776139 0.601690 0.155590
H37   H     H_    0.062359 0.223801 0.600171 0.154560
H38   H     H_    0.926993 0.000655 0.151465 0.165224
H39   H     H_    0.566353 0.776559 0.537986 0.146944
H40   H     H_    0.427003 0.498313 0.151475 0.165242
H41   H     H_    0.572964 0.501521 0.348688 0.143517
H42   H     H_    0.072969 0.999166 0.348692 0.143530
H43   H     H_    0.507551 0.275732 0.435703 0.147697
H44   H     H_    0.508479 0.724378 0.436702 0.147235
H45   H     H_    0.007029 0.775727 0.435122 0.147711
H46   H     H_    0.001806 0.224341 0.429560 0.147387
H47   H     H_    0.440834 0.224003 0.398897 0.149445
H48   H     H_    0.441411 0.776084 0.398771 0.150095
H49   H     H_    0.940537 0.723996 0.399033 0.149471
H50   H     H_    0.065718 0.723443 0.535982 0.147628
H51   H     H_    0.937715 0.276054 0.400665 0.150308
H52   H     H_    0.724340 0.936390 0.688956 0.151260
H53   H     H_    0.724349 0.062559 0.687196 0.153756
H54   H     H_    0.224340 0.436199 0.689293 0.151368
H55   H     H_    0.224352 0.562354 0.686870 0.153821
H56   H     H_    0.694627 0.978794 0.780450 0.230253
H57   H     H_    0.730860 0.005627 0.876900 0.241685
H58   H     H_    0.770339 0.027515 0.882705 0.260020
H59   H     H_    0.765130 0.971106 0.882444 0.242955
H60   H     H_    0.194621 0.479248 0.780553 0.230566
H61   H     H_    0.063425 0.276566 0.529005 0.147145
H62   H     H_    0.230862 0.506412 0.876865 0.241806
H63   H     H_    0.270358 0.528078 0.882564 0.259975
H64   H     H_    0.265109 0.471703 0.882582 0.242924
H65   H     H_    0.254308 0.091206 0.194002 0.074611
H66   H     H_    0.254287 0.902687 0.204443 0.072365
H67   H     H_    0.754279 0.591246 0.194013 0.074398
H68   H     H_    0.754322 0.402745 0.204432 0.072639
H69   H     H_    0.245542 0.098224 0.294363 0.068440
H70   H     H_    0.245596 0.907644 0.304818 0.083144
H71   H     H_    0.745516 0.598201 0.294391 0.068613
H72   H     H_    0.222986 0.995982 0.150695 0.165453
H73   H     H_    0.745612 0.407614 0.304743 0.082573
H74   H     H_    0.304860 0.026879 0.388495 0.228484
H75   H     H_    0.268251 0.004199 0.413581 0.237971
H76   H     H_    0.228864 0.980247 0.341845 0.259812
H77   H     H_    0.234258 0.036840 0.348428 0.243158
H78   H     H_    0.804693 0.527121 0.388322 0.228344
H79   H     H_    0.768375 0.504494 0.413709 0.237694
H80   H     H_    0.729417 0.479539 0.342641 0.259435
H81   H     H_    0.733700 0.536235 0.347674 0.243860
H82   H     H_    0.054291 0.095665 0.808440 0.056959
H83   H     H_    0.722991 0.496024 0.150697 0.165547
H84   H     H_    0.055288 0.904958 0.809377 0.074527
H85   H     H_    0.548047 0.598937 0.802191 0.056881
H86   H     H_    0.561278 0.408695 0.815364 0.074682
H87   H     H_    0.915536 0.975851 0.718121 0.225216
H88   H     H_    0.856252 0.002763 0.621920 0.237875
H89   H     H_    0.887945 0.972872 0.617397 0.234925
H90   H     H_    0.890663 0.029794 0.620677 0.247994
H91   H     H_    0.417272 0.470442 0.719858 0.225495
H92   H     H_    0.356382 0.493503 0.622068 0.238008
H93   H     H_    0.389921 0.465732 0.619370 0.234920
H94   H     H_    0.459414 0.560435 0.683777 0.150946
H95   H     H_    0.388981 0.522710 0.619023 0.247929
H96   H     H_    0.583652 0.528319 0.778353 0.227598
H97   H     H_    0.645847 0.506657 0.876745 0.240876
H98   H     H_    0.614208 0.481728 0.884489 0.260559
H99   H     H_    0.614278 0.538373 0.879674 0.243774
H100  H     H_    0.085292 0.022878 0.779991 0.227787
H101  H     H_    0.145964 0.997165 0.876893 0.240947
H102  H     H_    0.112745 0.974583 0.883155 0.260710
H103  H     H_    0.116592 0.031083 0.881851 0.243570
H104  H     H_    0.062088 0.936377 0.260227 0.236058
H105  H     H_    0.468148 0.434561 0.692532 0.153087
H106  H     H_    0.067524 0.871927 0.303466 0.247367
H107  H     H_    0.027479 0.889499 0.299088 0.244772
H108  H     H_    0.078537 0.914693 0.349998 0.233189
H109  H     H_    0.022552 0.086379 0.221173 0.234559
H110  H     H_    0.076183 0.123101 0.311943 0.245933
H111  H     H_    0.081959 0.079177 0.352744 0.247212
H112  H     H_    0.034514 0.110639 0.306563 0.231894
H113  H     H_    0.564097 0.438398 0.262234 0.236025
H114  H     H_    0.571584 0.374144 0.307532 0.247376
H115  H     H_    0.531027 0.390461 0.302657 0.244750
H116  H     H_    0.963373 0.062939 0.687731 0.150856
H117  H     H_    0.581268 0.417253 0.352708 0.233181
H118  H     H_    0.519780 0.587054 0.218381 0.234579
H119  H     H_    0.572196 0.625514 0.307971 0.245868
H120  H     H_    0.579298 0.581834 0.350156 0.247139
H121  H     H_    0.530873 0.611770 0.302865 0.231922
H122  H     H_    0.431534 0.300951 0.490063 0.217918
H123  H     H_    0.365243 0.266627 0.418805 0.242383
H124  H     H_    0.404212 0.227749 0.470950 0.244710
H125  H     H_    0.385590 0.232882 0.398772 0.250944
H126  H     H_    0.430621 0.698252 0.487450 0.218213
N1    N     N_2   0.717921 0.000862 0.799733 -0.314158
N2    N     N_2   0.040456 0.070179 0.260596 -0.297921
N3    N     N_2   0.541773 0.430594 0.261958 -0.295174
N4    N     N_2   0.538184 0.571461 0.258332 -0.297837
N5    N     N_2   0.426293 0.280723 0.460133 -0.307745
N6    N     N_2   0.425810 0.719273 0.458527 -0.309179
N7    N     N_2   0.926539 0.780721 0.460896 -0.307771
N8    N     N_2   0.929216 0.219267 0.468753 -0.308706
N9    N     N_2   0.780706 0.999193 0.700818 -0.299851
N10   N     N_2   0.280709 0.498760 0.700830 -0.299803
N11   N     N_2   0.217919 0.501291 0.799726 -0.314133
N12   N     N_2   0.281544 0.004629 0.362541 -0.314382
N13   N     N_2   0.781560 0.504681 0.362542 -0.314476
N14   N     N_2   0.920085 0.999303 0.700853 -0.299936
N15   N     N_2   0.420305 0.494147 0.701082 -0.300025
N16   N     N_2   0.581485 0.505948 0.799456 -0.316007
N17   N     N_2   0.081700 0.000709 0.799684 -0.316105
N18   N     N_2   0.039522 0.929289 0.259704 -0.295171
O1    O     O_R   0.561630 1.000000 0.596420 -0.613951
O2    O     O_R   0.965230 1.000000 0.403640 -0.614350
O3    O     O_R   0.000030 0.965220 0.061700 -0.609498
O4    O     O_R   0.000030 0.034780 0.061700 -0.613595
O5    O     O_R   0.500030 0.465220 0.061700 -0.609443
O6    O     O_R   0.500030 0.534780 0.061700 -0.613580
O7    O     O_R   0.938380 0.965210 0.938430 -0.606468
O8    O     O_R   0.938380 0.034790 0.938430 -0.608812
O9    O     O_R   0.438380 0.465210 0.938430 -0.606761
O10   O     O_R   0.438380 0.534790 0.938430 -0.608522
O11   O     O_R   0.999950 0.965200 0.938400 -0.608593
O12   O     O_R   0.061630 0.500000 0.596420 -0.613491
O13   O     O_R   0.999950 0.034800 0.938400 -0.606015
O14   O     O_R   0.499950 0.465200 0.938400 -0.609696
O15   O     O_R   0.499950 0.534800 0.938400 -0.605095
O16   O     O_R   0.061600 0.965210 0.061670 -0.605206
O17   O     O_R   0.061600 0.034790 0.061670 -0.603235
O18   O     O_R   0.561600 0.465210 0.061670 -0.605016
O19   O     O_R   0.561600 0.534790 0.061670 -0.603419
O20   O     O_R   0.561580 0.000000 0.526800 -0.620655
O21   O     O_R   0.061580 0.500000 0.526800 -0.620718
O22   O     O_R   0.500020 0.061610 0.534810 -0.597300
O23   O     O_R   0.465210 0.438380 0.465220 -0.614364
O24   O     O_R   0.500020 0.938390 0.534810 -0.597186
O25   O     O_R   0.000020 0.561610 0.534810 -0.597278
O26   O     O_R   0.000020 0.438390 0.534810 -0.597071
O27   O     O_R   0.499970 0.061600 0.465200 -0.621731
O28   O     O_R   0.499970 0.938400 0.465200 -0.622032
O29   O     O_R   0.999970 0.561600 0.465200 -0.621741
O30   O     O_R   0.999970 0.438400 0.465200 -0.622019
O31   O     O_R   0.438410 0.000000 0.473200 -0.621347
O32   O     O_R   0.938410 0.500000 0.473200 -0.621815
O33   O     O_R   0.438360 0.000000 0.403580 -0.597162
O34   O     O_R   0.465210 0.561620 0.465220 -0.614433
O35   O     O_R   0.938360 0.500000 0.403580 -0.597075
O36   O     O_R   0.534760 0.500000 0.596460 -0.616582
O37   O     O_R   0.034760 0.000000 0.596460 -0.616850
O38   O     O_R   0.465190 0.500000 0.526830 -0.617010
O39   O     O_R   0.965190 0.000000 0.526830 -0.616814
O40   O     O_R   0.534770 0.438380 0.534860 -0.616444
O41   O     O_R   0.534770 0.561620 0.534860 -0.617415
O42   O     O_R   0.034770 0.938380 0.534860 -0.616426
O43   O     O_R   0.034770 0.061620 0.534860 -0.617629
O44   O     O_2   0.314736 0.077468 0.262707 -0.560213
O45   O     O_R   0.965210 0.938380 0.465220 -0.614386
O46   O     O_2   0.314718 0.917254 0.271550 -0.557670
O47   O     O_2   0.814712 0.577523 0.262717 -0.560226
O48   O     O_2   0.814748 0.417333 0.271533 -0.557971
O49   O     O_2   0.185094 0.083670 0.227308 -0.551669
O50   O     O_2   0.185136 0.921177 0.235942 -0.559368
O51   O     O_2   0.685070 0.583649 0.227307 -0.551753
O52   O     O_2   0.685150 0.421149 0.235880 -0.559204
O53   O     O_2   0.047118 0.081396 0.861759 -0.551376
O54   O     O_2   0.047668 0.918913 0.862262 -0.560260
O55   O     O_2   0.541805 0.584237 0.856443 -0.550922
O56   O     O_R   0.965210 0.061620 0.465220 -0.614077
O57   O     O_2   0.552794 0.422141 0.867386 -0.560843
O58   O     O_2   0.490786 0.185233 0.584204 -0.548897
O59   O     O_2   0.489781 0.814646 0.583158 -0.548081
O60   O     O_2   0.991485 0.685240 0.584967 -0.548837
O61   O     O_2   0.998402 0.314679 0.592293 -0.548566
O62   O     O_2   0.814525 0.919516 0.863306 -0.552342
O63   O     O_2   0.814457 0.081988 0.860691 -0.561894
O64   O     O_2   0.314523 0.419771 0.863731 -0.552493
O65   O     O_2   0.314457 0.582220 0.860260 -0.561783
O66   O     O_R   0.534790 0.500000 0.473270 -0.617237
O67   O     O_R   0.034790 1.000000 0.473270 -0.617194
O68   O     O_R   0.465230 0.500000 0.403640 -0.614264
Zn1   Zn    Zn3+2 0.500030 0.000000 0.546480 1.016792
Zn2   Zn    Zn3+2 0.999990 0.046460 0.000050 1.025782
Zn3   Zn    Zn3+2 0.499990 0.453540 0.000050 1.026370
Zn4   Zn    Zn3+2 0.499990 0.546460 0.000050 1.026539
Zn5   Zn    Zn3+2 0.000030 0.500000 0.546480 1.016905
Zn6   Zn    Zn3+2 0.499960 0.000000 0.453520 0.994030
Zn7   Zn    Zn3+2 0.999960 0.500000 0.453520 0.994080
Zn8   Zn    Zn3+2 0.546440 0.500000 0.546540 0.972542
Zn9   Zn    Zn3+2 0.046440 0.000000 0.546540 0.972292
Zn10  Zn    Zn3+2 0.453540 0.500000 0.453560 0.977848
Zn11  Zn    Zn3+2 0.953540 0.000000 0.453560 0.978151
Zn12  Zn    Zn3+2 0.999990 0.953540 0.000050 1.027199

loop_
_geom_bond_atom_site_label_1
_geom_bond_atom_site_label_2
_ccdc_geom_bond_type
O14   Zn3   S    
C22   C29   S    
C84   H68   S    
C36   C42   S    
C146  N11   S    
C133  C151  S    
O21   Zn7   S    
C100  H107  S    
C15   C32   T    
C175  C177  S    
H113  N3    S    
C130  C174  S    
C176  C182  S    
C193  O66   A    
C188  O37   A    
O35   Zn7   S    
C153  N10   S    
O10   Zn4   S    
C189  O40   A    
C67   C125  T    
C53   C64   S    
C128  C145  S    
C95   O57   D    
C1    O20   A    
C106  H4    S    
C197  O6    A    
C27   C90   S    
C151  N9    S    
C2    C90   S    
C130  N5    S    
C77   C122  S    
C172  O35   A    
C91   H81   S    
C9    C19   S    
C102  H110  S    
C10   C20   S    
O33   Zn6   S    
C49   C51   S    
C70   C74   S    
C13   C130  S    
C99   H101  S    
C204  O11   A    
C1    C136  S    
C98   H98   S    
C119  H25   S    
C120  H31   S    
C4    C18   S    
C48   C50   S    
C116  C128  S    
C55   C142  S    
C119  N9    S    
C41   H32   S    
H60   N11   S    
C11   C20   S    
C58   C122  T    
C174  C198  S    
C180  H72   S    
C47   C64   T    
H56   N1    S    
C167  C171  S    
C5    C18   S    
C118  H22   S    
C73   C201  S    
C73   C114  S    
C206  O17   A    
C25   C199  S    
C115  O62   D    
C24   C141  S    
C3    C170  S    
C166  C177  S    
C94   O55   D    
C24   H48   S    
H74   N12   S    
O29   Zn7   S    
C127  C145  S    
C74   C101  S    
C108  H11   S    
C21   C28   S    
C65   C189  S    
C69   C126  T    
O11   Zn12  S    
C91   H79   S    
C85   C158  S    
C57   H43   S    
C200  H36   S    
C123  C174  S    
C109  H15   S    
C43   C61   T    
C171  O33   A    
C103  H114  S    
C23   H1    S    
C78   H58   S    
C188  O39   A    
C97   H92   S    
C52   C63   S    
C46   C77   S    
O4    Zn2   S    
C187  O36   A    
C25   C68   S    
C9    H105  S    
C7    C22   S    
C105  H123  S    
C100  N18   S    
C44   C62   T    
C158  C178  S    
C73   C163  S    
C205  O15   A    
C138  C202  S    
C17   N16   S    
C82   C164  S    
O36   Zn8   S    
C202  O7    A    
C39   C60   S    
C204  O13   A    
C187  O38   A    
C88   H73   S    
H104  N18   S    
C49   H42   S    
C5    C21   S    
O13   Zn2   S    
C139  C157  T    
C206  O16   A    
H10   N8    S    
C73   C77   S    
C139  C203  S    
C19   C30   S    
C41   C51   S    
C205  O14   A    
O26   Zn5   S    
H118  N4    S    
C40   C60   S    
C150  C157  S    
C165  C177  S    
C81   C162  S    
C54   C101  T    
C14   C31   T    
C144  O30   A    
C179  C186  S    
C38   C53   S    
C89   H76   S    
C93   H84   S    
C131  C146  S    
C112  O12   A    
C8    C29   S    
C39   H13   S    
C52   C59   S    
C115  H19   S    
C192  O43   A    
C149  C151  S    
C100  H106  S    
C134  C153  S    
C13   C57   S    
C114  O61   D    
C137  C155  T    
O6    Zn4   S    
C87   O51   D    
C56   C143  S    
C119  H27   S    
C8    H94   S    
H23   N9    S    
C140  O22   A    
C133  C147  S    
C148  C155  S    
C161  C179  S    
C117  C129  S    
C86   C159  S    
C162  C180  S    
C36   C52   S    
C71   C141  S    
C37   C53   S    
C171  O31   A    
C10   H116  S    
C70   C198  S    
C36   N2    S    
C98   H99   S    
C35   H49   S    
O7    Zn12  S    
O31   Zn1   S    
C51   C62   S    
C53   C60   S    
C144  O26   A    
H28   N10   S    
C111  O60   D    
C35   C76   S    
C105  H125  S    
C8    C19   S    
O43   Zn9   S    
O2    Zn11  S    
C152  C196  S    
C105  N5    S    
C16   C205  S    
O19   Zn4   S    
C195  O4    A    
C6    C94   S    
C12   C187  S    
C191  O45   A    
C129  C134  S    
C59   H38   S    
C108  H14   S    
C169  C184  T    
C107  H7    S    
O42   Zn9   S    
C133  H53   S    
C168  C183  T    
C78   N1    S    
C107  H9    S    
C203  O10   A    
C185  C199  S    
C37   N3    S    
C198  H34   S    
O34   Zn10  S    
C80   N11   S    
C46   C163  S    
C3    O19   A    
C160  C175  S    
O45   Zn11  S    
C159  C178  S    
C189  O23   A    
C173  N12   S    
C68   H44   S    
C23   C57   S    
C6    C17   S    
C34   C49   S    
O66   Zn8   S    
C80   H62   S    
C132  C147  S    
C94   H85   S    
C162  C176  S    
C131  C150  S    
C42   C59   S    
C100  H108  S    
H100  N17   S    
O9    Zn3   S    
C98   N16   S    
C43   C193  S    
C96   H89   S    
C127  C149  S    
C92   O53   D    
C118  C131  S    
O18   Zn3   S    
C197  O5    A    
C35   C79   S    
C103  N3    S    
C58   C144  S    
C102  H111  S    
C97   H95   S    
C50   C61   S    
C159  C164  S    
C47   C197  S    
C23   C74   S    
C114  H18   S    
C83   H67   S    
C40   H24   S    
O5    Zn3   S    
C193  O68   A    
C84   O48   D    
C3    O18   A    
C172  O32   A    
H6    N7    S    
C83   C165  S    
C23   C198  S    
O37   Zn9   S    
H87   N14   S    
C143  O25   A    
C5    C11   S    
C104  N4    S    
C120  H29   S    
C167  C182  T    
C6    C22   S    
C71   C110  S    
C70   C130  S    
C80   H63   S    
O41   Zn8   S    
O27   Zn6   S    
C27   H61   S    
C34   N18   S    
C192  O56   A    
C72   C152  S    
C150  C153  S    
C190  O41   A    
C91   N13   S    
C142  O28   A    
C104  H119  S    
C164  C180  S    
C92   H82   S    
C108  H12   S    
C72   C111  S    
C116  O63   D    
C27   C201  S    
C102  N2    S    
C181  H83   S    
C2    C201  S    
C38   N4    S    
C69   C192  S    
C145  C147  S    
C152  N7    S    
C146  C148  S    
O24   Zn1   S    
C78   H59   S    
O32   Zn5   S    
C169  C206  S    
C88   O52   D    
C6    C8    S    
C177  C183  S    
C106  H3    S    
C112  O21   A    
C140  O27   A    
C85   H69   S    
C25   C75   S    
C86   H70   S    
C97   N15   S    
C34   C41   S    
O1    Zn1   S    
C136  C154  T    
C158  C173  S    
C202  O8    A    
C191  O42   A    
C170  C186  T    
C99   H102  S    
C111  H17   S    
C160  C165  S    
C98   H97   S    
C129  C146  S    
C119  H26   S    
H91   N15   S    
C1    O1    A    
C110  H16   S    
O25   Zn5   S    
C134  C148  S    
C199  H35   S    
C10   C28   S    
C82   O46   D    
C12   C30   T    
C79   H45   S    
C112  C137  S    
C163  N8    S    
C201  H37   S    
C2    C163  S    
C178  C180  S    
C42   H33   S    
C24   C75   S    
C71   C199  S    
C46   C90   S    
C89   H75   S    
C26   C79   S    
C132  H52   S    
O12   Zn5   S    
C145  N1    S    
C39   C50   S    
C37   C39   S    
C26   H50   S    
C38   C40   S    
O23   Zn10  S    
C11   C28   S    
C40   C50   S    
C164  C176  S    
C65   C123  T    
C81   O44   D    
C104  H121  S    
C96   H88   S    
O15   Zn4   S    
C24   C68   S    
C57   C174  S    
O67   Zn9   S    
C28   N14   S    
C128  C149  S    
C168  C172  S    
O56   Zn11  S    
O68   Zn10  S    
C13   C74   S    
C194  O2    A    
O40   Zn8   S    
C132  C151  S    
C195  O3    A    
C91   H80   S    
O38   Zn10  S    
O39   Zn11  S    
C36   C49   S    
C4    C92   S    
C25   H39   S    
C45   C195  S    
C60   H40   S    
C78   H57   S    
O22   Zn1   S    
C97   H93   S    
C29   N15   S    
C196  C200  S    
C15   C204  S    
C190  O34   A    
C105  H124  S    
C103  H117  S    
C96   N14   S    
C76   C121  S    
C108  N8    S    
C149  C156  S    
C48   H41   S    
C131  C135  S    
C124  C185  S    
C161  C175  S    
C67   C191  S    
H96   N16   S    
C106  H5    S    
C88   C161  S    
C66   C190  S    
C81   H65   S    
C115  C127  S    
C87   C160  S    
C82   H66   S    
C87   H71   S    
C147  C154  S    
C127  C132  S    
C34   C52   S    
C117  O64   D    
C54   C140  S    
O30   Zn7   S    
C194  O67   A    
C26   C76   S    
H78   N13   S    
C80   H64   S    
H122  N5    S    
C9    C29   S    
C42   C51   S    
C46   H51   S    
C110  O59   D    
C166  C181  S    
C143  O29   A    
H109  N2    S    
O16   Zn12  S    
C21   C32   S    
C89   H77   S    
O28   Zn6   S    
C106  N6    S    
C107  N7    S    
C41   C59   S    
H126  N6    S    
C18   N17   S    
C55   C113  T    
C125  C196  S    
C7    C17   S    
C90   H46   S    
C45   C63   T    
C79   C196  S    
C116  H20   S    
C142  O24   A    
C203  O9    A    
C96   H90   S    
C160  C179  S    
C70   C109  S    
C16   C33   T    
C72   C200  S    
C13   H47   S    
C85   O49   D    
C86   O50   D    
C72   C76   S    
C89   N12   S    
C95   H86   S    
C37   C48   S    
C175  N13   S    
C75   C113  S    
C2    C126  S    
O8    Zn2   S    
C102  H112  S    
C68   C185  S    
C135  H55   S    
C159  C173  S    
C66   C124  T    
C99   H103  S    
C141  C185  S    
C11   H2    S    
C4    C10   S    
C26   C200  S    
C93   O54   D    
C173  C176  S    
C138  C156  T    
C7    C9    S    
C22   C33   S    
C117  H21   S    
O3    Zn12  S    
C103  H115  S    
C38   C48   S    
C141  N6    S    
O17   Zn2   S    
C161  C166  S    
C27   C77   S    
C5    C93   S    
C99   N17   S    
O20   Zn6   S    
C7    C95   S    
C44   C194  S    
C135  C153  S    
C165  C181  S    
C56   C121  T    
C129  C150  S    
C128  C133  S    
C120  H30   S    
C71   C75   S    
C4    C21   S    
C118  O65   D    
C107  H8    S    
C17   C19   S    
C18   C20   S    
C84   C166  S    
C158  C162  S    
C120  N10   S    
C109  O58   D    
C134  H54   S    
C135  C148  S    
C35   C152  S    
C83   O47   D    
C14   C188  S    
C104  H120  S    
C178  C184  S    
C179  C181  S    
C20   C31   S    
