data_mof_unit_45511.cif
_audit_creation_date              2013-03-05T15:50:44-0500
_audit_creation_method            fapswitch 2.2
_symmetry_space_group_name_H-M    P1
_symmetry_Int_Tables_number       1
_space_group_crystal_system       triclinic
_cell_length_a                    10.879646
_cell_length_b                    12.06821
_cell_length_c                    12.824442
_cell_angle_alpha                 95.508758
_cell_angle_beta                  90.58276
_cell_angle_gamma                 85.820188
_cell_volume                      1671.57857303

loop_
_atom_site_label
_atom_site_type_symbol
_atom_site_description
_atom_site_fract_x
_atom_site_fract_y
_atom_site_fract_z
_atom_type_partial_charge
O1    O     O_R   0.506240 0.421700 0.658830 -0.628239
O2    O     O_R   0.491240 0.609310 0.646410 -0.533420
C1    C     C_R   0.492177 0.524329 0.700870 0.967474
O3    O     O_R   0.692710 0.406190 0.506230 -0.623697
O4    O     O_R   0.677700 0.593810 0.493810 -0.566075
C2    C     C_R   0.742163 0.499545 0.501393 1.000887
Zn1   Zn    Zn3+2 0.510020 0.374730 0.508290 1.067227
Zn2   Zn    Zn3+2 0.489980 0.625270 0.491710 1.055721
O5    O     O_R   0.508760 0.390690 0.353590 -0.600798
O6    O     O_R   0.493760 0.578300 0.341170 -0.653443
O7    O     O_R   0.322300 0.406190 0.506190 -0.505665
O8    O     O_R   0.307290 0.593810 0.493770 -0.686154
C3    C     C_R   0.499882 0.476082 0.299627 0.927453
C4    C     C_R   0.258303 0.500692 0.506064 0.836665
C5    C     C_3   0.939116 0.396227 0.565503 -0.373063
H1    H     H_    0.915383 0.420908 0.648381 0.248571
C6    C     C_3   0.083861 0.384769 0.558380 0.424837
H2    H     H_    0.118164 0.421386 0.352140 0.201908
C7    C     C_3   0.929664 0.488871 0.391067 -0.190219
C8    C     C_3   0.915782 0.614831 0.567785 0.415363
C9    C     C_3   0.879096 0.498169 0.506166 -0.277208
C10   C     C_3   0.121945 0.499620 0.511879 -0.308250
C11   C     C_3   0.072177 0.496784 0.394497 -0.264188
C12   C     C_3   0.062153 0.606596 0.585836 -0.342168
H3    H     H_    0.884392 0.558322 0.351399 0.235568
C13   C     C_R   0.496792 0.459016 0.187719 -0.050662
C14   C     C_R   0.481019 0.541438 0.814055 -0.028153
C15   C     C_R   0.398534 0.630822 0.978053 -0.245852
C16   C     C_R   0.410388 0.632149 0.870292 -0.063807
C17   C     C_R   0.537644 0.455137 0.867477 -0.186956
C18   C     C_R   0.521273 0.453530 0.973487 0.158584
C19   C     C_R   0.451434 0.542355 0.028728 0.196502
C20   C     C_R   0.437634 0.543398 0.135193 -0.226907
C21   C     C_R   0.561113 0.367100 0.133215 -0.131236
C22   C     C_R   0.573728 0.364500 0.025391 -0.164175
H4    H     H_    0.384683 0.612575 0.178047 0.147662
H5    H     H_    0.605764 0.300667 0.174095 0.187998
H6    H     H_    0.345489 0.698414 0.023090 0.143391
H7    H     H_    0.626454 0.294949 0.983245 0.166488
H8    H     H_    0.593577 0.387039 0.825983 0.165868
N1    N     N_R   0.523380 0.207800 0.519350 -0.127472
N2    N     N_R   0.476620 0.792180 0.480650 -0.155952
C23   C     C_R   0.436544 0.942347 0.372234 -0.249321
C24   C     C_R   0.437218 0.829299 0.388282 -0.022779
C25   C     C_R   0.513644 0.867280 0.561128 0.469502
C26   C     C_R   0.523501 0.980750 0.544999 -0.002519
C27   C     C_R   0.481144 0.019644 0.450582 -0.008871
C28   C     C_R   0.481038 0.135497 0.439351 0.113825
C29   C     C_R   0.572467 0.169094 0.607557 0.063868
C30   C     C_R   0.574833 0.056044 0.621479 -0.150589
H9    H     H_    0.609216 0.226234 0.668009 0.163936
H10   H     H_    0.402051 0.967862 0.298143 0.158417
H11   H     H_    0.617220 0.028796 0.692171 0.214774
H12   H     H_    0.405020 0.771383 0.326328 0.147893
C31   C     C_2   0.886011 0.282719 0.544085 0.620967
H13   H     H_    0.869815 0.246982 0.464907 0.128690
O9    O     O_2   0.859361 0.230411 0.616560 -0.531354
C32   C     C_2   0.110091 0.719956 0.568171 0.595418
H14   H     H_    0.148482 0.736126 0.494516 0.095908
O10   O     O_2   0.094882 0.799604 0.634421 -0.457563
C33   C     C_2   0.112536 0.583492 0.325838 0.469874
H15   H     H_    0.186944 0.635443 0.347115 0.078473
O11   O     O_2   0.067354 0.589637 0.238798 -0.524173
C34   C     C_2   0.342756 0.728903 0.826298 0.543763
H16   H     H_    0.305269 0.798547 0.879241 0.104770
O12   O     O_2   0.324295 0.733528 0.733143 -0.548481
C35   C     C_2   0.434651 0.177496 0.341222 0.498737
H17   H     H_    0.480212 0.148176 0.267806 0.008927
O13   O     O_2   0.341521 0.239952 0.340464 -0.492229
N3    N     N_R   0.532259 0.835016 0.664934 0.216894
O14   O     O_R   0.627723 0.770239 0.685361 -0.267889
O15   O     O_R   0.477410 0.895609 0.742745 -0.393349
N4    N     N_R   0.133354 0.369591 0.665885 0.202285
O16   O     O_R   0.249530 0.378265 0.687473 -0.388232
O17   O     O_R   0.072108 0.316014 0.729310 -0.278727
N5    N     N_R   0.129308 0.281542 0.491582 0.235488
O18   O     O_R   0.080791 0.251163 0.401352 -0.451161
O19   O     O_R   0.207037 0.208911 0.530431 -0.264285
C36   C     C_2   0.893174 0.389732 0.318003 0.425335
H18   H     H_    0.960440 0.342617 0.266278 0.161486
O20   O     O_2   0.785850 0.367760 0.307769 -0.612777
N6    N     N_R   0.876289 0.710861 0.505128 0.204738
O21   O     O_R   0.931883 0.729610 0.420004 -0.425002
O22   O     O_R   0.793167 0.787476 0.541125 -0.296415
N7    N     N_R   0.852389 0.638741 0.670777 0.261433
O23   O     O_R   0.870047 0.731617 0.727935 -0.212900
O24   O     O_R   0.778695 0.571223 0.706839 -0.404227
C37   C     C_2   0.106177 0.590517 0.698309 0.568910
H19   H     H_    0.203890 0.582889 0.712288 0.085751
O25   O     O_2   0.039623 0.576073 0.771082 -0.471622

loop_
_geom_bond_atom_site_label_1
_geom_bond_atom_site_label_2
_geom_bond_distance
_ccdc_geom_bond_type
C31   H13   1.082349 S    
C8    N6    1.507492 S    
C14   C16   1.430427 A    
C21   H5    1.082741 S    
N4    O16   1.300689 A    
C37   O25   1.220271 D    
C22   H7    1.083847 S    
N7    O23   1.304337 A    
Zn1   O7    2.050313 S    
C15   C16   1.391019 A    
C7    C9    1.571557 S    
N5    O19   1.303415 A    
C17   C18   1.375103 A    
O7    C4    1.292301 A    
C23   H10   1.081923 S    
C32   O10   1.223128 D    
C5    H1    1.103932 S    
C20   H4    1.085874 S    
Zn1   O5    2.011401 S    
C21   C22   1.388108 A    
C33   O11   1.221700 D    
O5    C3    1.292790 A    
C13   C21   1.398810 A    
C18   C19   1.405249 A    
C29   H9    1.080581 S    
C6    N5    1.498071 S    
N3    O14   1.293787 A    
C16   C34   1.488597 S    
C14   C17   1.403028 A    
C6    N4    1.497763 S    
N4    O17   1.303256 A    
N2    C24   1.360583 A    
O3    Zn1   2.051440 S    
N1    C29   1.354928 A    
N7    O24   1.302216 A    
C30   H11   1.081339 S    
C35   H17   1.085040 S    
C8    C12   1.604138 S    
C15   C19   1.389047 A    
N5    O18   1.298594 A    
O3    C2    1.290380 A    
C36   O20   1.219127 D    
C32   H14   1.077064 S    
C25   C26   1.416240 A    
C2    C9    1.489373 S    
H2    C11   1.103446 S    
O1    C1    1.301510 A    
N2    C25   1.383494 A    
C5    C31   1.524993 S    
C7    C11   1.560271 S    
C23   C24   1.398604 A    
C13   C20   1.390086 A    
C27   C28   1.419132 A    
C15   H6    1.086162 S    
Zn2   O8    2.051440 S    
C8    N7    1.489914 S    
C17   H8    1.085631 S    
C37   H19   1.075074 S    
C7    C36   1.521010 S    
C12   C37   1.540691 S    
C12   C32   1.536507 S    
O8    C4    1.301837 A    
C29   C30   1.391202 A    
N6    O22   1.300184 A    
C31   O9    1.221177 D    
C10   C12   1.626178 S    
C3    C13   1.430570 S    
C11   C33   1.521450 S    
C5    C6    1.573572 S    
C26   C27   1.401814 A    
C25   N3    1.430871 S    
O1    Zn1   1.959155 S    
O2    Zn2   2.011403 S    
Zn2   N2    2.027418 S    
O6    C3    1.293276 A    
O4    Zn2   2.050312 S    
C26   C30   1.411124 A    
C6    C10   1.641911 S    
C34   H16   1.086207 S    
C4    C10   1.487217 S    
C1    C14   1.451444 S    
O2    C1    1.294431 A    
C19   C20   1.373861 A    
O4    C2    1.303466 A    
N1    C28   1.379589 A    
C18   C22   1.401196 A    
Zn1   N1    2.027658 S    
C28   C35   1.472255 S    
C33   H15   1.076807 S    
C7    H3    1.104761 S    
C36   H18   1.084293 S    
C24   H12   1.079783 S    
C5    C9    1.603598 S    
C8    C9    1.621070 S    
Zn2   O6    1.959155 S    
N6    O21   1.299843 A    
C10   C11   1.592704 S    
N3    O15   1.301919 A    
C35   O13   1.218492 D    
C23   C27   1.411134 A    
C34   O12   1.215308 D    
