data_mof_unit_24029.cif
_audit_creation_date              2012-10-26T19:00:22-0400
_audit_creation_method            fapswitch 2.2
_symmetry_space_group_name_H-M    P1
_symmetry_Int_Tables_number       1
_space_group_crystal_system       triclinic
_cell_length_a                    23.528996
_cell_length_b                    9.088063
_cell_length_c                    7.7807
_cell_angle_alpha                 89.953154
_cell_angle_beta                  89.999613
_cell_angle_gamma                 89.998737
_cell_volume                      1663.76985079

loop_
_atom_site_label
_atom_site_type_symbol
_atom_type_description
_atom_site_fract_x
_atom_site_fract_y
_atom_site_fract_z
_atom_type_partial_charge
C1    C     C_R   0.500000 0.220008 0.500043 0.557079
C2    C     C_R   0.791195 0.500017 0.499984 0.243527
C3    C     C_R   0.390587 0.500002 0.500000 0.546555
C4    C     C_R   0.609413 0.499998 0.499999 0.546554
C5    C     C_R   0.297825 0.489397 0.344529 -0.135991
C6    C     C_R   0.702174 0.489296 0.344529 -0.135998
C7    C     C_R   0.297825 0.510605 0.655466 -0.136002
C8    C     C_R   0.702174 0.510709 0.655459 -0.136004
C9    C     C_R   0.328004 0.500004 0.500000 0.007132
C10   C     C_R   0.671996 0.499998 0.499997 0.007136
C11   C     C_R   0.880480 0.628949 0.530193 0.403026
C12   C     C_R   0.500000 0.779991 0.499957 0.557078
C13   C     C_R   0.119521 0.371071 0.469780 0.403029
C14   C     C_R   0.880482 0.371079 0.469771 0.403023
C15   C     C_R   0.119519 0.628942 0.530207 0.403030
C16   C     C_R   0.940095 0.368321 0.469262 0.030100
C17   C     C_R   0.059906 0.631700 0.530720 0.030100
C18   C     C_R   0.940094 0.631703 0.530710 0.030101
C19   C     C_R   0.059907 0.368317 0.469265 0.030099
C20   C     C_R   0.970013 0.500011 0.499988 -0.027592
C21   C     C_R   0.029988 0.500009 0.499992 -0.027593
C22   C     C_R   0.970354 0.237543 0.439204 -0.124712
C23   C     C_1   0.500000 0.065378 0.500059 -0.037194
C24   C     C_R   0.029647 0.762478 0.560779 -0.124713
C25   C     C_R   0.970351 0.762479 0.560773 -0.124711
C26   C     C_R   0.029650 0.237541 0.439204 -0.124712
C27   C     C_1   0.500000 0.934622 0.499941 -0.037194
C28   C     C_R   0.238561 0.489079 0.344758 -0.051850
C29   C     C_R   0.761438 0.488982 0.344757 -0.051853
C30   C     C_R   0.238561 0.510923 0.655234 -0.051861
C31   C     C_R   0.761439 0.511038 0.655220 -0.051854
C32   C     C_R   0.208805 0.500005 0.499997 0.243544
Cu1   Cu    Cu3+1 0.500000 0.500000 0.669080 1.031109
Cu2   Cu    Cu3+1 0.500000 0.500000 0.330920 1.031110
H1    H     H_    0.948354 0.134841 0.415557 0.168021
H2    H     H_    0.680052 0.480800 0.222876 0.134658
H3    H     H_    0.319946 0.519010 0.777117 0.134662
H4    H     H_    0.680053 0.519209 0.777110 0.134659
H5    H     H_    0.051647 0.865181 0.584428 0.168019
H6    H     H_    0.948350 0.865183 0.584416 0.168022
H7    H     H_    0.051651 0.134837 0.415558 0.168021
H8    H     H_    0.215692 0.480819 0.224360 0.128776
H9    H     H_    0.784307 0.480647 0.224367 0.128802
H10   H     H_    0.215691 0.519172 0.775621 0.128779
H11   H     H_    0.784308 0.519371 0.775609 0.128799
H12   H     H_    0.319947 0.480979 0.222873 0.134658
N1    N     N_R   0.852085 0.500015 0.499982 -0.402749
N2    N     N_R   0.147916 0.500006 0.499994 -0.402754
N3    N     N_1   0.500000 0.500000 0.076820 -0.081426
N4    N     N_1   0.500000 0.500000 0.923180 -0.081426
O1    O     O_R   0.500000 0.288390 0.642760 -0.493136
O2    O     O_2   0.148935 0.245956 0.441371 -0.471968
O3    O     O_2   0.851069 0.245964 0.441358 -0.471978
O4    O     O_2   0.148932 0.754055 0.558616 -0.471967
O5    O     O_R   0.500000 0.711610 0.357240 -0.493136
O6    O     O_R   0.500000 0.711610 0.642760 -0.493680
O7    O     O_R   0.500000 0.288390 0.357240 -0.493680
O8    O     O_R   0.417880 0.500000 0.642820 -0.504875
O9    O     O_R   0.582120 0.500000 0.357180 -0.504874
O10   O     O_R   0.582120 0.500000 0.642820 -0.504873
O11   O     O_R   0.417880 0.500000 0.357180 -0.504874
O12   O     O_2   0.851067 0.754066 0.558599 -0.471977

loop_
_geom_bond_atom_site_label_1
_geom_bond_atom_site_label_2
_ccdc_geom_bond_type
C6    C10   A    
C13   N2    A    
C24   C25   A    
C3    O8    A    
C11   C18   A    
C5    C9    A    
Cu1   O8    S    
C3    C9    S    
C1    O7    A    
C2    N1    S    
Cu1   O1    S    
C13   O2    S    
C32   N2    S    
C5    H12   S    
C11   N1    A    
C16   C20   A    
C11   O12   S    
C30   H10   S    
C6    C29   A    
Cu1   O6    S    
Cu1   Cu2   S    
C7    H3    S    
C5    C28   A    
Cu2   O5    S    
C7    C30   A    
C29   H9    S    
C30   C32   A    
C22   H1    S    
C1    O1    A    
C4    O10   A    
C14   O3    S    
C12   O6    A    
C18   C25   A    
C8    H4    S    
C15   N2    A    
Cu2   O7    S    
C4    O9    A    
C28   H8    S    
C19   C21   A    
C6    H2    S    
C1    C23   S    
Cu1   O10   S    
C23   C27   T    
C3    O11   A    
C25   H6    S    
C31   H11   S    
Cu2   O9    S    
C14   C16   A    
C17   C24   A    
C13   C19   A    
C12   C27   S    
C4    C10   S    
C12   O5    A    
C15   O4    S    
C28   C32   A    
C24   H5    S    
C2    C29   A    
C20   C21   A    
C18   C20   A    
C8    C10   A    
N3    N4    T    
C22   C26   A    
C7    C9    A    
C19   C26   A    
Cu2   N3    S    
C16   C22   A    
Cu1   N4    S    
C15   C17   A    
C14   N1    A    
Cu2   O11   S    
C17   C21   A    
C8    C31   A    
C26   H7    S    
C2    C31   A    
