data_mof_unit_37451.cif
_audit_creation_date              2012-12-10T18:11:08-0500
_audit_creation_method            fapswitch 2.2
_symmetry_space_group_name_H-M    P1
_symmetry_Int_Tables_number       1
_space_group_crystal_system       triclinic
_cell_length_a                    10.812149
_cell_length_b                    9.861097
_cell_length_c                    10.611688
_cell_angle_alpha                 92.061355
_cell_angle_beta                  91.573534
_cell_angle_gamma                 91.383319
_cell_volume                      1129.89828524

loop_
_atom_site_label
_atom_site_type_symbol
_atom_type_description
_atom_site_fract_x
_atom_site_fract_y
_atom_site_fract_z
_atom_type_partial_charge
C1    C     C_R   0.260015 0.498572 0.497494 0.839131
C2    C     C_3   0.501695 0.495975 0.123884 -0.073796
C3    C     C_3   0.075117 0.637819 0.552318 -0.388254
C4    C     C_3   0.071112 0.394093 0.595317 -0.386005
C5    C     C_3   0.934281 0.635849 0.572214 0.113698
C6    C     C_3   0.929223 0.376893 0.580849 0.151032
C7    C     C_3   0.053752 0.464614 0.364957 0.475336
C8    C     C_3   0.119478 0.497299 0.499478 -0.088002
C9    C     C_3   0.875184 0.502032 0.512737 -0.072560
C10   C     C_3   0.914016 0.493282 0.373141 -0.525260
C11   C     C_3   0.625297 0.085797 0.475814 -0.117278
C12   C     C_3   0.629315 0.923524 0.496205 -0.172224
C13   C     C_3   0.470993 0.086700 0.630079 -0.118630
C14   C     C_3   0.443899 0.924547 0.618331 -0.147242
C15   C     C_3   0.401361 0.074697 0.412656 0.168288
C16   C     C_3   0.428925 0.914319 0.388061 0.236879
C17   C     C_R   0.499663 0.498179 0.260980 0.817942
C18   C     C_R   0.737739 0.501419 0.509886 0.832367
C19   C     C_R   0.504031 0.502065 0.739787 0.823708
C20   C     C_3   0.411694 0.575513 0.042673 -0.129357
C21   C     C_3   0.488021 0.371461 0.034444 -0.026774
C22   C     C_3   0.397723 0.450661 0.950937 -0.127252
C23   C     C_3   0.508115 0.505072 0.878395 -0.019915
C24   C     C_3   0.522714 0.629651 0.969099 -0.098147
C25   C     C_3   0.598551 0.425636 0.960059 -0.046426
C26   C     C_3   0.612361 0.549781 0.052389 -0.200836
Cu1   Cu    Cu3+1 0.499860 0.642410 0.500060 0.957260
Cu2   Cu    Cu3+1 0.499860 0.357590 0.500060 0.973658
H1    H     H_    0.309235 0.409934 0.907480 0.180786
H2    H     H_    0.892295 0.590519 0.328110 0.213070
H3    H     H_    0.857513 0.414119 0.318774 0.209175
H4    H     H_    0.692510 0.131514 0.545869 0.105529
H5    H     H_    0.677626 0.909687 0.588622 0.137806
H6    H     H_    0.386932 0.135080 0.666095 0.228366
H7    H     H_    0.342516 0.905361 0.609768 0.228854
H8    H     H_    0.333663 0.636754 0.076010 0.221462
H9    H     H_    0.475892 0.265424 0.062632 0.252183
H10   H     H_    0.545549 0.736800 0.951893 0.200968
H11   H     H_    0.676395 0.364070 0.927452 0.225999
H12   H     H_    0.700619 0.590028 0.096768 0.182951
H13   H     H_    0.095181 0.717432 0.485069 0.257464
H14   H     H_    0.111796 0.294304 0.583072 0.248090
H15   H     H_    0.125862 0.667536 0.642140 0.231091
H16   H     H_    0.098149 0.430081 0.693102 0.223620
H17   H     H_    0.896799 0.722475 0.523091 0.200689
H18   H     H_    0.907859 0.284017 0.520921 0.163442
N1    N     N_3   0.500250 0.143650 0.502780 -0.253401
N2    N     N_3   0.500250 0.856350 0.502780 -0.262947
O1    O     O_R   0.317570 0.620260 0.500070 -0.534135
O2    O     O_R   0.317570 0.379740 0.500070 -0.585425
O3    O     O_R   0.499850 0.620240 0.316900 -0.626784
O4    O     O_R   0.499850 0.379760 0.316900 -0.578643
O5    O     O_R   0.682190 0.620260 0.500030 -0.621648
O6    O     O_R   0.682190 0.379740 0.500030 -0.596814
O7    O     O_R   0.499910 0.620280 0.683200 -0.586985
O8    O     O_R   0.499910 0.379720 0.683200 -0.562460
C27   C     C_2   0.689334 0.138950 0.360369 0.567934
H19   H     H_    0.789477 0.136607 0.357170 0.118583
O9    O     O_2   0.634561 0.187832 0.272173 -0.497628
C28   C     C_2   0.716386 0.857210 0.403739 0.432822
H20   H     H_    0.686137 0.776203 0.337961 0.135239
O10   O     O_2   0.824046 0.896820 0.399983 -0.556349
C29   C     C_2   0.564770 0.124324 0.737808 0.411301
H21   H     H_    0.662264 0.103731 0.733439 0.096471
O11   O     O_2   0.527289 0.162774 0.839886 -0.536692
C30   C     C_2   0.475651 0.865268 0.742353 0.489046
H22   H     H_    0.571597 0.849023 0.769199 0.065581
O12   O     O_2   0.393868 0.841747 0.816419 -0.520234
Br1   Br    Br    0.233025 0.094414 0.486121 -0.483612
Br2   Br    Br    0.269507 0.826159 0.347088 -0.405866
C31   C     C_2   0.371203 0.149411 0.292867 0.614103
H23   H     H_    0.329846 0.247527 0.300555 0.138221
O13   O     O_2   0.369749 0.096053 0.187413 -0.506496
C32   C     C_2   0.486870 0.881221 0.258620 0.436347
H24   H     H_    0.449385 0.800969 0.195957 0.139427
O14   O     O_2   0.569954 0.947317 0.214064 -0.529380
Br3   Br    Br    0.894714 0.674836 0.748088 -0.428047
Br4   Br    Br    0.858737 0.335407 0.742310 -0.487002
Br5   Br    Br    0.119240 0.563972 0.226579 -0.425510
Br6   Br    Br    0.066548 0.277955 0.302352 -0.421902

loop_
_geom_bond_atom_site_label_1
_geom_bond_atom_site_label_2
_ccdc_geom_bond_type
C19   O8    A    
Cu1   N2    S    
C7    C10   S    
C30   O12   D    
C29   O11   D    
Cu2   N1    S    
C22   H1    S    
C1    C8    S    
C11   N1    S    
C15   N1    S    
C12   N2    S    
C17   O3    A    
C6    C9    S    
Cu2   O8    S    
C7    C8    S    
C3    H15   S    
C32   O14   D    
C16   C32   S    
C24   C26   S    
Cu1   O7    S    
C6    Br4   S    
C15   C16   S    
C28   O10   D    
C18   O5    A    
Cu2   O2    S    
C10   H3    S    
C20   C24   S    
C24   H10   S    
C23   C24   S    
C1    O2    A    
C4    C8    S    
C30   H22   S    
C21   C22   S    
C2    C17   S    
C16   N2    S    
C17   O4    A    
Cu1   O3    S    
C15   Br1   S    
C32   H24   S    
C2    C20   S    
C16   Br2   S    
C4    C6    S    
C3    C8    S    
C14   H7    S    
C13   N1    S    
Cu2   O6    S    
C14   N2    S    
C4    H16   S    
C25   C26   S    
C5    H17   S    
C28   H20   S    
C20   H8    S    
C19   C23   S    
C5    C9    S    
C10   H2    S    
C13   C29   S    
C2    C21   S    
C14   C30   S    
C2    C26   S    
C20   C22   S    
C11   H4    S    
C5    Br3   S    
C7    Br5   S    
C9    C10   S    
C19   O7    A    
C21   C25   S    
C3    H13   S    
C6    H18   S    
C3    C5    S    
C11   C12   S    
Cu1   O5    S    
C15   C31   S    
C31   H23   S    
C11   C27   S    
C25   H11   S    
Cu2   O4    S    
C26   H12   S    
C27   H19   S    
C4    H14   S    
C23   C25   S    
C27   O9    D    
C18   O6    A    
C29   H21   S    
C12   C28   S    
C9    C18   S    
C13   H6    S    
C21   H9    S    
C31   O13   D    
Cu1   Cu2   S    
C22   C23   S    
C12   H5    S    
C13   C14   S    
C1    O1    A    
Cu1   O1    S    
C7    Br6   S    
