data_mof_unit_11224.cif
_audit_creation_date              2012-12-11T14:25:46-0500
_audit_creation_method            fapswitch 2.2
_symmetry_space_group_name_H-M    P1
_symmetry_Int_Tables_number       1
_space_group_crystal_system       triclinic
_cell_length_a                    6.968986
_cell_length_b                    14.747787
_cell_length_c                    16.217318
_cell_angle_alpha                 90.386499
_cell_angle_beta                  90.283967
_cell_angle_gamma                 90.256865
_cell_volume                      1666.69386271

loop_
_atom_site_label
_atom_site_type_symbol
_atom_type_description
_atom_site_fract_x
_atom_site_fract_y
_atom_site_fract_z
_atom_type_partial_charge
O1    O     O_R   0.494490 0.416160 0.413410 -0.538482
O2    O     O_R   0.823830 0.407240 0.585990 -0.540273
O3    O     O_R   0.994160 0.583840 0.586590 -0.552102
C1    C     C_R   0.654699 0.385209 0.613579 0.740860
O4    O     O_R   0.824200 0.405280 0.414020 -0.539253
O5    O     O_R   0.994530 0.581860 0.413390 -0.540409
C2    C     C_R   0.654357 0.384296 0.384928 0.765199
O6    O     O_R   0.494110 0.418140 0.586610 -0.546803
O7    O     O_3   0.660810 0.557940 0.500000 -0.385366
V1    V     V_3+5 0.935650 0.489250 0.500000 1.373189
O8    O     O_R   0.324250 0.592760 0.414010 -0.541604
C3    C     C_R   0.155530 0.614457 0.385899 0.757995
O9    O     O_R   0.323880 0.594720 0.585980 -0.541250
C4    C     C_R   0.157271 0.612803 0.617866 0.689227
V2    V     V_3+5 0.435660 0.510750 0.500000 1.367357
O10   O     O_3   0.160630 0.442060 0.500000 -0.369194
C5    C     C_3   0.068694 0.637000 0.772486 -0.053970
H1    H     H_    0.915494 0.629014 0.758497 0.128102
C6    C     C_3   0.075985 0.708976 0.845674 -0.017424
H2    H     H_    0.924456 0.713638 0.867177 0.131038
H3    H     H_    0.835622 0.815527 0.767933 0.143401
C7    C     C_3   0.004735 0.758070 0.666953 -0.052090
C8    C     C_3   0.356581 0.724160 0.711559 0.017977
C9    C     C_3   0.152129 0.680091 0.690693 -0.029809
H4    H     H_    0.423791 0.746279 0.652955 0.130929
C10   C     C_3   0.125367 0.806391 0.810706 -0.036977
C11   C     C_3   0.979042 0.825295 0.741140 -0.445649
C12   C     C_3   0.329529 0.809536 0.769232 -0.019460
H5    H     H_    0.437960 0.807923 0.819772 0.140692
H6    H     H_    0.984121 0.897401 0.722127 0.156192
C13   C     C_2   0.986035 0.709978 0.282883 -0.135485
C14   C     C_2   0.150519 0.681919 0.318687 -0.312856
C15   C     C_2   0.973927 0.776826 0.214244 -0.136093
C16   C     C_2   0.126458 0.815430 0.177381 -0.315666
C17   C     C_2   0.779636 0.208454 0.781424 -0.141507
C18   C     C_2   0.614654 0.176422 0.813484 -0.308239
H7    H     H_    0.915546 0.183347 0.804823 0.138206
C19   C     C_2   0.791427 0.276798 0.714342 -0.143739
C20   C     C_2   0.638760 0.318405 0.680550 -0.305915
H8    H     H_    0.494877 0.304182 0.701821 0.127907
C21   C     C_2   0.781682 0.229551 0.197568 0.154299
C22   C     C_2   0.623175 0.178792 0.177243 -0.369543
H9    H     H_    0.496942 0.182182 0.215971 0.125872
C23   C     C_2   0.789946 0.283594 0.276528 -0.127863
C24   C     C_2   0.637211 0.322201 0.312777 -0.359335
H10   H     H_    0.929954 0.295804 0.303945 0.152005
H11   H     H_    0.495388 0.313199 0.286093 0.134384
O11   O     O_R   0.770850 0.076180 0.907410 -0.540464
O12   O     O_R   0.440600 0.088970 0.079950 -0.539771
O13   O     O_R   0.270430 0.912340 0.080550 -0.538058
C25   C     C_R   0.611002 0.112653 0.107196 0.736999
O14   O     O_R   0.441120 0.087010 0.907980 -0.543235
O15   O     O_R   0.270950 0.910370 0.907350 -0.542309
C26   C     C_R   0.609734 0.108745 0.880116 0.745685
O16   O     O_R   0.770320 0.078150 0.080620 -0.543934
O17   O     O_3   0.604200 0.936340 0.994000 -0.374018
V3    V     V_3+5 0.329300 0.004970 0.993950 1.384645
O18   O     O_R   0.941240 0.899420 0.907920 -0.547615
C27   C     C_R   0.110146 0.877905 0.879055 0.696593
O19   O     O_R   0.940720 0.901380 0.079890 -0.542219
C28   C     C_R   0.109867 0.881246 0.109187 0.750182
V4    V     V_3+5 0.829310 0.983370 0.993880 1.371255
O20   O     O_3   0.104280 0.052120 0.993920 -0.375573
C29   C     C_3   0.363730 0.901799 0.723435 -0.356376
C30   C     C_3   0.571765 0.930717 0.716944 -0.824890
H12   H     H_    0.580084 0.999360 0.689373 0.226325
H13   H     H_    0.638525 0.934404 0.779127 0.238584
H14   H     H_    0.647213 0.883389 0.675072 0.234398
H15   H     H_    0.308525 0.898993 0.659956 0.184721
H16   H     H_    0.288109 0.958171 0.755043 0.185540
C31   C     C_3   0.044037 0.806778 0.583120 -0.352891
C32   C     C_3   0.887827 0.788802 0.518251 -0.774244
H17   H     H_    0.874157 0.715593 0.504555 0.259076
H18   H     H_    0.747393 0.814445 0.540283 0.213524
H19   H     H_    0.924811 0.824255 0.460213 0.218985
H20   H     H_    0.047717 0.881512 0.590590 0.186205
H21   H     H_    0.184190 0.786020 0.557015 0.167397
H22   H     H_    0.850360 0.682857 0.304580 0.138937
H23   H     H_    0.287961 0.708077 0.298835 0.127951
H24   H     H_    0.830636 0.794151 0.193156 0.136921
H25   H     H_    0.270927 0.799041 0.196806 0.131238
H26   H     H_    0.476830 0.199512 0.791154 0.127839
H27   H     H_    0.934297 0.293356 0.692427 0.136431
C33   C     C_3   0.120497 0.536489 0.792155 -0.336074
C34   C     C_3   0.990789 0.493422 0.857828 -0.771491
H28   H     H_    0.860264 0.534084 0.869942 0.222906
H29   H     H_    0.945125 0.424467 0.837635 0.221276
H30   H     H_    0.070292 0.486063 0.916863 0.225183
H31   H     H_    0.103520 0.495166 0.735047 0.164373
H32   H     H_    0.270106 0.527763 0.812480 0.185737
C35   C     C_3   0.958120 0.229854 0.141836 -0.277284
C36   C     C_3   0.097342 0.309202 0.155608 -0.809366
H33   H     H_    0.019158 0.374684 0.155480 0.236238
H34   H     H_    0.177160 0.301386 0.214451 0.212983
H35   H     H_    0.204411 0.310213 0.105103 0.222226
H36   H     H_    0.038377 0.165576 0.150044 0.191075
H37   H     H_    0.909846 0.234436 0.076539 0.180037
C37   C     C_3   0.196345 0.683758 0.924172 -0.345771
C38   C     C_3   0.072631 0.677885 0.001631 -0.781671
H38   H     H_    0.990114 0.741162 0.010247 0.229543
H39   H     H_    0.969553 0.620585 0.996537 0.226962
H40   H     H_    0.165425 0.666931 0.056484 0.224510
H41   H     H_    0.270305 0.618201 0.919041 0.195564
H42   H     H_    0.311424 0.734427 0.936053 0.168918
H43   H     H_    0.861858 0.725200 0.659047 0.158702
C39   C     C_3   0.507299 0.661717 0.755150 -0.420082
C40   C     C_3   0.569559 0.574319 0.712771 -0.691498
H44   H     H_    0.448860 0.527175 0.703041 0.223673
H45   H     H_    0.643900 0.589717 0.654384 0.252491
H46   H     H_    0.669081 0.536557 0.752968 0.184169
H47   H     H_    0.638355 0.702325 0.763895 0.154347
H48   H     H_    0.464715 0.645496 0.818260 0.180015

loop_
_geom_bond_atom_site_label_1
_geom_bond_atom_site_label_2
_ccdc_geom_bond_type
O18   V4    S    
C19   H27   S    
C21   C22   D    
C17   C18   D    
C1    O6    A    
O15   C27   A    
C39   H48   S    
C34   H28   S    
O11   C26   A    
C10   C11   S    
C2    C24   S    
C12   H5    S    
C17   H7    S    
O5    C3    A    
C19   C20   D    
C39   C40   S    
C37   H41   S    
O16   V4    S    
O12   V3    S    
O17   V3    S    
O19   V4    S    
C4    C9    S    
C6    C10   S    
C5    C6    S    
C35   H36   S    
O8    V2    S    
C13   C14   D    
C18   H26   S    
C30   H13   S    
C8    C9    S    
C13   C15   S    
O1    V2    S    
C16   H25   S    
C29   H16   S    
O7    V1    S    
C25   O16   A    
C35   C36   S    
C22   C25   S    
O14   C26   A    
C24   H11   S    
H3    C11   S    
O9    C4    A    
C3    C14   S    
C11   H6    S    
C40   H45   S    
C33   H32   S    
C32   H19   S    
C6    C37   S    
C23   H10   S    
V3    O20   S    
C39   H47   S    
C34   H29   S    
C5    C9    S    
C17   C19   S    
C33   C34   S    
C32   H18   S    
C20   H8    S    
O4    C2    A    
O15   V3    S    
O12   C25   A    
O18   C27   A    
C29   H15   S    
C8    C39   S    
C36   H35   S    
O19   C28   A    
O2    C1    A    
V4    O20   S    
O11   V4    S    
C38   H38   S    
C1    C20   S    
C40   H44   S    
C30   H14   S    
C38   H40   S    
C36   H34   S    
C5    H1    S    
C8    C12   S    
C35   H37   S    
O3    C4    A    
C12   C29   S    
C21   C35   S    
C30   H12   S    
O6    V2    S    
C7    C11   S    
O9    V2    S    
C21   C23   S    
O17   V4    S    
C33   H31   S    
O2    V1    S    
C7    C31   S    
C31   H21   S    
C23   C24   D    
C13   H22   S    
C10   C27   S    
C34   H30   S    
C38   H39   S    
O1    C2    A    
O13   V3    S    
C32   H17   S    
O5    V1    S    
O8    C3    A    
C15   H24   S    
C7    H43   S    
C10   C12   S    
C5    C33   S    
C29   C30   S    
C6    H2    S    
O7    V2    S    
C31   C32   S    
O3    V1    S    
V1    O10   S    
C14   H23   S    
C31   H20   S    
C37   H42   S    
C36   H33   S    
C40   H46   S    
C15   C16   D    
C7    C9    S    
C16   C28   S    
C18   C26   S    
O14   V3    S    
O4    V1    S    
C8    H4    S    
C37   C38   S    
C22   H9    S    
O13   C28   A    
V2    O10   S    
