data_mof_unit_58194.cif
_audit_creation_date              2012-12-11T17:09:29-0500
_audit_creation_method            fapswitch 2.2
_symmetry_space_group_name_H-M    P1
_symmetry_Int_Tables_number       1
_space_group_crystal_system       triclinic
_cell_length_a                    14.826844
_cell_length_b                    6.962597
_cell_length_c                    13.472984
_cell_angle_alpha                 90.166926
_cell_angle_beta                  99.912609
_cell_angle_gamma                 89.780208
_cell_volume                      1370.08394997

loop_
_atom_site_label
_atom_site_type_symbol
_atom_type_description
_atom_site_fract_x
_atom_site_fract_y
_atom_site_fract_z
_atom_type_partial_charge
O1    O     O_R   0.586930 0.505770 0.416350 -0.544985
O2    O     O_R   0.413070 0.005770 0.583650 -0.540491
O3    O     O_R   0.397900 0.173100 0.389630 -0.532905
O4    O     O_R   0.602100 0.673100 0.610370 -0.535126
C1    C     C_R   0.364520 0.345456 0.362741 0.720531
C2    C     C_R   0.635532 0.845333 0.637190 0.719112
O5    O     O_R   0.585280 0.175870 0.404330 -0.543078
O6    O     O_R   0.414720 0.675870 0.595670 -0.546149
O7    O     O_R   0.601790 0.008380 0.598460 -0.534479
O8    O     O_R   0.398210 0.508380 0.401540 -0.536392
C3    C     C_R   0.612291 0.344754 0.380015 0.687608
C4    C     C_R   0.388643 0.846109 0.620817 0.687690
O9    O     O_3   0.505200 0.340120 0.563670 -0.375840
O10   O     O_3   0.494800 0.840120 0.436330 -0.371386
V1    V     V_3+5 0.499040 0.064180 0.488190 1.391238
V2    V     V_3+5 0.500960 0.564180 0.511810 1.380942
C5    C     C_R   0.266872 0.020336 0.693732 0.048968
C6    C     C_R   0.679127 0.506697 0.240154 0.051660
C7    C     C_R   0.323347 0.859879 0.692766 -0.097539
C8    C     C_R   0.676364 0.351635 0.306298 -0.123917
C9    C     C_R   0.312308 0.710498 0.758856 -0.210869
C10   C     C_R   0.739869 0.202037 0.302970 -0.191543
H1    H     H_    0.359050 0.591821 0.765078 0.142817
H2    H     H_    0.739884 0.080789 0.352630 0.127058
C11   C     C_R   0.244907 0.719957 0.821004 -0.197679
C12   C     C_R   0.807037 0.213349 0.240662 -0.199913
H3    H     H_    0.242086 0.606733 0.875173 0.129299
H4    H     H_    0.856535 0.099458 0.241213 0.157472
C13   C     C_R   0.183019 0.875818 0.814552 -0.131840
C14   C     C_R   0.815321 0.377787 0.183161 -0.082077
C15   C     C_R   0.192252 0.021088 0.745154 0.098857
C16   C     C_R   0.751128 0.523868 0.185642 0.052056
C17   C     C_3   0.201228 0.230486 0.766381 -0.002153
C18   C     C_3   0.768297 0.726536 0.220684 0.003482
C19   C     C_3   0.293156 0.220600 0.729821 -0.147001
C20   C     C_3   0.679395 0.716213 0.264036 -0.145058
H5    H     H_    0.204279 0.270002 0.846916 0.138811
H6    H     H_    0.769206 0.829425 0.157973 0.135029
H7    H     H_    0.299715 0.321912 0.667850 0.149629
H8    H     H_    0.687517 0.748001 0.346002 0.150054
C21   C     C_1   0.783351 0.877317 0.783047 -0.186384
C22   C     C_1   0.216727 0.377165 0.216842 -0.187528
C23   C     C_1   0.716000 0.860062 0.716970 -0.182768
C24   C     C_1   0.284091 0.360201 0.282931 -0.188875
O11   O     O_R   0.101720 0.231700 0.098560 -0.538544
O12   O     O_R   0.898280 0.731700 0.901440 -0.536714
O13   O     O_R   0.914700 0.558980 0.095690 -0.529514
O14   O     O_R   0.085300 0.058980 0.904310 -0.538806
C25   C     C_R   0.885860 0.390012 0.117663 0.703890
C26   C     C_R   0.114818 0.889369 0.883085 0.700990
O15   O     O_R   0.102080 0.561590 0.110390 -0.536997
O16   O     O_R   0.897920 0.061590 0.889610 -0.535245
O17   O     O_R   0.086950 0.728940 0.916330 -0.539061
O18   O     O_R   0.913050 0.228940 0.083670 -0.546125
C27   C     C_R   0.136093 0.391928 0.137261 0.723653
C28   C     C_R   0.863955 0.892048 0.862680 0.731755
O19   O     O_3   0.994770 0.394510 0.936380 -0.363438
O20   O     O_3   0.005230 0.894510 0.063620 -0.367326
V3    V     V_3+5 0.000970 0.670520 0.011800 1.445226
V4    V     V_3+5 0.999030 0.170520 0.988200 1.438111
N1    N     N_3   0.130054 0.336552 0.698821 -0.649781
H9    H     H_    0.129014 0.294901 0.623877 0.228085
H10   H     H_    0.146054 0.482123 0.702702 0.247489
N2    N     N_3   0.850825 0.737626 0.299055 -0.656743
H11   H     H_    0.854329 0.619869 0.347757 0.242654
H12   H     H_    0.846236 0.856692 0.344831 0.214328
C29   C     C_3   0.372912 0.223544 0.822148 -0.389186
C30   C     C_3   0.468132 0.240487 0.793359 -0.250259
C31   C     C_3   0.541418 0.272726 0.886361 -0.814454
H13   H     H_    0.528404 0.409360 0.924403 0.227994
H14   H     H_    0.542022 0.151852 0.940157 0.227552
H15   H     H_    0.609751 0.281166 0.863451 0.224156
H16   H     H_    0.485454 0.106620 0.756241 0.201284
H17   H     H_    0.469547 0.362711 0.741151 0.210268
H18   H     H_    0.362681 0.346274 0.871910 0.168327
H19   H     H_    0.371143 0.092580 0.868977 0.191303
C32   C     C_3   0.598938 0.825875 0.198593 -0.346722
C33   C     C_3   0.505750 0.725917 0.191519 -0.283114
C34   C     C_3   0.428102 0.852731 0.138234 -0.778533
H20   H     H_    0.424164 0.988220 0.181045 0.231466
H21   H     H_    0.439069 0.887340 0.060759 0.220477
H22   H     H_    0.361989 0.775795 0.133154 0.216197
H23   H     H_    0.505914 0.589438 0.148545 0.176104
H24   H     H_    0.492282 0.691279 0.267576 0.232593
H25   H     H_    0.594399 0.971104 0.231268 0.195367
H26   H     H_    0.612155 0.845188 0.120408 0.164954

loop_
_geom_bond_atom_site_label_1
_geom_bond_atom_site_label_2
_ccdc_geom_bond_type
O11   V4    S    
O12   V3    S    
O1    C3    A    
O2    C4    A    
C2    O7    A    
O17   V3    S    
O13   C25   A    
O18   V4    S    
C32   C33   S    
O5    C3    A    
C6    C16   A    
C7    C9    A    
C20   C32   S    
O19   V3    S    
C30   H17   S    
C25   O18   A    
C31   H14   S    
N1    H10   S    
O16   V4    S    
C5    C7    A    
C33   H23   S    
C30   C31   S    
C15   C17   S    
O10   V2    S    
C6    C8    A    
O14   C26   A    
C32   H25   S    
O6    V2    S    
C21   C23   T    
C31   H13   S    
C22   C24   T    
O14   V4    S    
O20   V4    S    
C13   C26   S    
C11   C13   A    
C3    C8    S    
C26   O17   A    
C29   C30   S    
C20   H8    S    
O4    C2    A    
C34   H21   S    
C33   C34   S    
O19   V4    S    
O15   C27   A    
C30   H16   S    
C17   H5    S    
N2    H12   S    
O4    V2    S    
C31   H15   S    
C19   H7    S    
C21   C28   S    
C22   C27   S    
C19   C29   S    
O6    C4    A    
C18   N2    S    
O1    V2    S    
O2    V1    S    
C1    C24   S    
C8    C10   A    
C32   H26   S    
C12   C14   A    
C2    C23   S    
O9    V1    S    
C5    C15   A    
C10   H2    S    
C29   H18   S    
O3    V1    S    
C9    C11   A    
C18   H6    S    
C14   C25   S    
O3    C1    A    
C34   H22   S    
C11   H3    S    
C12   H4    S    
N2    H11   S    
C9    H1    S    
O20   V3    S    
C1    O8    A    
C13   C15   A    
O8    V2    S    
C14   C16   A    
C4    C7    S    
O5    V1    S    
C17   C19   S    
C18   C20   S    
O7    V1    S    
N1    H9    S    
O13   V3    S    
C34   H20   S    
C33   H24   S    
O15   V3    S    
O11   C27   A    
C17   N1    S    
C10   C12   A    
O9    V2    S    
O12   C28   A    
O10   V1    S    
C29   H19   S    
C5    C19   S    
C6    C20   S    
O16   C28   A    
C16   C18   S    
