data_mof_unit_8665.cif
_audit_creation_date              2012-12-10T17:09:18-0500
_audit_creation_method            fapswitch 2.2
_symmetry_space_group_name_H-M    P1
_symmetry_Int_Tables_number       1
_space_group_crystal_system       triclinic
_cell_length_a                    18.448938
_cell_length_b                    18.332607
_cell_length_c                    11.658251
_cell_angle_alpha                 89.937395
_cell_angle_beta                  76.134535
_cell_angle_gamma                 90.026824
_cell_volume                      3828.12156468

loop_
_atom_site_label
_atom_site_type_symbol
_atom_type_description
_atom_site_fract_x
_atom_site_fract_y
_atom_site_fract_z
_atom_type_partial_charge
C1    C     C_R   0.398898 0.099825 0.521465 0.841559
C2    C     C_R   0.601161 0.900245 0.478543 0.841370
C3    C     C_R   0.601002 0.099939 0.478497 0.841805
C4    C     C_R   0.398876 0.900169 0.521517 0.841859
C5    C     C_R   0.898890 0.599832 0.521432 0.841055
C6    C     C_R   0.101110 0.400170 0.478554 0.842051
C7    C     C_R   0.101133 0.599808 0.478460 0.841602
C8    C     C_R   0.898972 0.400091 0.521508 0.841785
C9    C     C_R   0.535788 0.997990 0.961506 -0.105446
C10   C     C_R   0.464167 0.002074 0.038492 -0.104533
C11   C     C_R   0.036022 0.502088 0.961484 -0.097912
C12   C     C_R   0.964383 0.499001 0.038522 -0.115214
C13   C     C_R   0.411016 0.003496 0.865703 -0.046707
C14   C     C_R   0.588972 0.996482 0.134252 -0.046217
C15   C     C_R   0.911048 0.497069 0.866024 -0.026309
C16   C     C_R   0.089071 0.502721 0.134340 -0.043981
C17   C     C_R   0.400872 0.006359 0.990317 0.407832
C18   C     C_R   0.599050 0.993692 0.009720 0.402996
C19   C     C_R   0.901246 0.497481 0.989835 0.390713
C20   C     C_R   0.099330 0.505487 0.009683 0.407035
C21   C     C_R   0.542224 0.997474 0.837710 0.046807
C22   C     C_R   0.457763 0.002577 0.162307 0.047601
C23   C     C_R   0.042342 0.502581 0.837594 0.044323
C24   C     C_R   0.957786 0.498227 0.162254 0.031660
C25   C     C_R   0.657030 0.157185 0.466143 -0.144001
C26   C     C_R   0.342250 0.843480 0.533977 -0.146636
C27   C     C_R   0.342298 0.156488 0.533976 -0.141471
C28   C     C_R   0.658007 0.843847 0.466037 -0.143829
C29   C     C_R   0.157792 0.656444 0.465878 -0.141546
C30   C     C_R   0.842871 0.342922 0.533888 -0.144058
C31   C     C_R   0.842213 0.656443 0.533816 -0.139972
C32   C     C_R   0.157726 0.343505 0.466153 -0.146546
C33   C     C_R   0.260434 0.754949 0.655307 0.511903
C34   C     C_R   0.731542 0.252343 0.349100 0.508320
C35   C     C_R   0.741709 0.757373 0.343525 0.517453
C36   C     C_R   0.260706 0.245012 0.655501 0.513398
C37   C     C_R   0.768245 0.247867 0.651010 0.509323
C38   C     C_R   0.239402 0.745191 0.344435 0.513817
C39   C     C_R   0.239599 0.255266 0.344707 0.511351
C40   C     C_R   0.758639 0.743094 0.656157 0.514150
C41   C     C_R   0.314462 0.809491 0.643354 -0.275751
C42   C     C_R   0.678834 0.196502 0.360386 -0.275461
C43   C     C_R   0.687124 0.811389 0.355957 -0.276723
C44   C     C_R   0.314829 0.190515 0.643287 -0.279685
C45   C     C_R   0.821023 0.303645 0.639672 -0.274093
C46   C     C_R   0.185278 0.690640 0.356582 -0.280792
C47   C     C_R   0.185527 0.309713 0.356749 -0.274637
C48   C     C_R   0.813053 0.688931 0.643894 -0.277618
C49   C     C_R   0.316655 0.822608 0.435402 -0.222710
C50   C     C_R   0.687407 0.173736 0.561783 -0.223322
C51   C     C_R   0.682526 0.821761 0.565037 -0.227332
C52   C     C_R   0.316558 0.177420 0.435562 -0.227344
C53   C     C_R   0.812440 0.326427 0.438284 -0.224346
C54   C     C_R   0.183535 0.677203 0.564318 -0.228743
C55   C     C_R   0.183352 0.322493 0.564687 -0.221439
C56   C     C_R   0.817864 0.678680 0.434686 -0.231638
C57   C     C_R   0.263995 0.767201 0.444469 -0.001269
C58   C     C_R   0.738950 0.230130 0.553562 -0.000021
C59   C     C_R   0.735448 0.766634 0.555618 0.000290
C60   C     C_R   0.264010 0.232874 0.444745 0.000745
C61   C     C_R   0.760862 0.270060 0.446529 -0.000086
C62   C     C_R   0.236054 0.732709 0.555218 0.000467
C63   C     C_R   0.236062 0.267156 0.555528 -0.001115
C64   C     C_R   0.764988 0.733869 0.444034 0.001575
Cu1   Cu    Cu3+1 0.507800 1.000000 0.383250 0.940508
Cu2   Cu    Cu3+1 0.492200 1.000000 0.616750 0.940777
Cu3   Cu    Cu3+1 0.007800 0.500000 0.383250 0.938743
Cu4   Cu    Cu3+1 0.992200 0.500000 0.616750 0.941069
N1    N     N_R   0.519530 0.000000 0.207810 -0.216212
N2    N     N_R   0.480470 1.000000 0.792190 -0.215700
N3    N     N_R   0.019530 0.500000 0.207810 -0.211526
N4    N     N_R   0.980470 0.500000 0.792190 -0.220285
O1    O     O_R   0.430030 0.075530 0.417420 -0.591424
O2    O     O_R   0.569970 0.924470 0.582580 -0.591378
O3    O     O_R   0.569970 0.075530 0.582580 -0.588454
O4    O     O_R   0.430030 0.924470 0.417420 -0.589024
O5    O     O_R   0.930030 0.575530 0.417420 -0.592315
O6    O     O_R   0.069970 0.424470 0.582580 -0.588207
O7    O     O_R   0.069970 0.575530 0.582580 -0.592097
O8    O     O_R   0.930030 0.424470 0.417420 -0.588764
O9    O     O_R   0.416860 0.075510 0.614610 -0.591904
O10   O     O_R   0.583140 0.924490 0.385390 -0.592116
O11   O     O_R   0.583140 0.075510 0.385390 -0.587641
O12   O     O_R   0.416860 0.924490 0.614610 -0.587917
O13   O     O_R   0.916860 0.575510 0.614610 -0.590562
O14   O     O_R   0.083140 0.424490 0.385390 -0.587619
O15   O     O_R   0.083140 0.575510 0.385390 -0.592248
O16   O     O_R   0.916860 0.424490 0.614610 -0.588776
H1    H     H_    0.636749 0.996176 0.172743 0.137228
H2    H     H_    0.363319 0.003744 0.827033 0.136057
H3    H     H_    0.136745 0.502410 0.173064 0.135323
H4    H     H_    0.862680 0.494551 0.828906 0.143447
H5    H     H_    0.403335 0.005342 0.222984 0.182614
H6    H     H_    0.596666 0.994721 0.777066 0.182120
H7    H     H_    0.903240 0.496281 0.222741 0.176311
H8    H     H_    0.096774 0.504949 0.776846 0.182823
H9    H     H_    0.670278 0.142861 0.643141 0.211137
H10   H     H_    0.338340 0.849290 0.351148 0.212638
H11   H     H_    0.338066 0.150774 0.351336 0.209422
H12   H     H_    0.659735 0.847196 0.649894 0.209970
H13   H     H_    0.162032 0.650398 0.648526 0.209074
H14   H     H_    0.829578 0.357299 0.356923 0.211154
H15   H     H_    0.840672 0.653253 0.349829 0.200633
H16   H     H_    0.161657 0.349013 0.648958 0.212932
H17   H     H_    0.654060 0.184932 0.286992 0.171597
H18   H     H_    0.334958 0.824644 0.719687 0.173401
H19   H     H_    0.335948 0.175615 0.719163 0.165775
H20   H     H_    0.667077 0.827256 0.279491 0.165180
H21   H     H_    0.164161 0.675842 0.280697 0.165361
H22   H     H_    0.845822 0.315198 0.713044 0.171761
H23   H     H_    0.832776 0.672863 0.720572 0.166355
H24   H     H_    0.165021 0.324961 0.280431 0.173820
O17   O     O_3   0.750101 0.206601 0.753465 -0.577261
C65   C     C_3   0.703045 0.247969 0.843104 -0.315876
H25   H     H_    0.684190 0.212765 0.922122 0.202905
H26   H     H_    0.652304 0.266836 0.815732 0.158035
H27   H     H_    0.733273 0.295152 0.869574 0.165299
O18   O     O_3   0.263619 0.781290 0.237670 -0.575247
C66   C     C_3   0.310675 0.734546 0.156676 -0.328522
H28   H     H_    0.357830 0.714089 0.192169 0.156218
H29   H     H_    0.335064 0.765926 0.075127 0.204392
H30   H     H_    0.278915 0.688173 0.131303 0.151170
O19   O     O_3   0.264696 0.220493 0.237197 -0.597078
C67   C     C_3   0.316148 0.266542 0.161510 -0.345996
H31   H     H_    0.339721 0.236905 0.078054 0.191751
H32   H     H_    0.363538 0.281341 0.200874 0.166029
H33   H     H_    0.288483 0.316538 0.138553 0.174090
O20   O     O_3   0.732124 0.776755 0.764346 -0.597013
C68   C     C_3   0.682940 0.728636 0.839730 -0.357011
H34   H     H_    0.636902 0.710504 0.799608 0.167292
H35   H     H_    0.657110 0.757859 0.922673 0.190721
H36   H     H_    0.713180 0.680720 0.863836 0.163388
O21   O     O_3   0.235368 0.719939 0.762768 -0.596513
C69   C     C_3   0.183695 0.765675 0.838382 -0.350142
H37   H     H_    0.160235 0.735880 0.921864 0.190795
H38   H     H_    0.136257 0.780212 0.798956 0.164467
H39   H     H_    0.211124 0.815824 0.861301 0.174590
O22   O     O_3   0.749576 0.293679 0.246717 -0.574888
C70   C     C_3   0.796975 0.252544 0.157158 -0.310206
H40   H     H_    0.847811 0.234078 0.184646 0.156318
H41   H     H_    0.815637 0.287790 0.078143 0.207007
H42   H     H_    0.767108 0.205107 0.130653 0.160764
O23   O     O_3   0.767814 0.723339 0.235561 -0.607180
C71   C     C_3   0.815089 0.771837 0.157927 -0.380796
H43   H     H_    0.840651 0.742223 0.075204 0.191237
H44   H     H_    0.861378 0.791738 0.195987 0.171056
H45   H     H_    0.783302 0.818570 0.133750 0.165731
O24   O     O_3   0.236538 0.280933 0.762282 -0.575066
C72   C     C_3   0.189499 0.234036 0.843302 -0.325043
H46   H     H_    0.142297 0.213632 0.807882 0.157523
H47   H     H_    0.165181 0.265266 0.924896 0.205291
H48   H     H_    0.221254 0.187625 0.868582 0.150019
O25   O     O_3   0.330267 0.008230 0.066607 -0.580610
C73   C     C_3   0.285178 0.062320 0.032259 -0.291231
H49   H     H_    0.258053 0.040756 0.963914 0.144514
H50   H     H_    0.316740 0.113243 0.000739 0.150061
H51   H     H_    0.240096 0.077066 0.110292 0.223773
O26   O     O_3   0.669704 0.991866 0.933760 -0.581854
C74   C     C_3   0.713135 0.935264 0.965281 -0.288392
H52   H     H_    0.680359 0.884362 0.991962 0.154514
H53   H     H_    0.739691 0.953503 0.036340 0.142534
H54   H     H_    0.758673 0.921781 0.887147 0.222961
O27   O     O_3   0.830169 0.492601 0.062224 -0.586781
C75   C     C_3   0.799249 0.563251 0.076983 -0.288716
H55   H     H_    0.792037 0.585882 0.991770 0.143002
H56   H     H_    0.833848 0.600690 0.117024 0.183830
H57   H     H_    0.743197 0.560085 0.138398 0.215630
O28   O     O_3   0.169978 0.506495 0.933489 -0.580263
C76   C     C_3   0.215552 0.560441 0.966995 -0.292426
H58   H     H_    0.242262 0.539063 0.036002 0.144868
H59   H     H_    0.184513 0.611753 0.997292 0.149922
H60   H     H_    0.260927 0.574452 0.888847 0.223016

loop_
_geom_bond_atom_site_label_1
_geom_bond_atom_site_label_2
_ccdc_geom_bond_type
C1    O1    A    
C6    C32   S    
C7    C29   S    
C13   H2    S    
C76   H58   S    
C14   C18   A    
C30   C45   A    
O27   C75   S    
Cu3   O5    S    
C17   O25   S    
O20   C68   S    
C69   H39   S    
C65   H25   S    
C39   O19   S    
O19   C67   S    
Cu2   N2    S    
C10   C22   A    
C15   C19   A    
C15   N4    A    
C59   C64   A    
Cu1   O4    S    
C60   C63   A    
C39   C47   A    
C75   H55   S    
C68   H34   S    
C67   H32   S    
C72   H47   S    
C70   H42   S    
Cu1   O11   S    
C37   O17   S    
C21   H6    S    
C39   C60   A    
C10   C17   A    
C1    O9    A    
C47   H24   S    
Cu2   O2    S    
C49   C57   A    
C23   H8    S    
C25   C50   A    
C52   C60   A    
C15   H4    S    
O18   C66   S    
C53   C61   A    
C27   C44   A    
C36   O24   S    
C7    O15   A    
C32   C47   A    
C34   C42   A    
C50   H9    S    
C55   C63   A    
C29   C46   A    
C74   H53   S    
C35   C64   A    
C31   C56   A    
C36   C63   A    
C3    O3    A    
C9    C10   A    
C32   C55   A    
C73   H50   S    
C37   C58   A    
C2    O2    A    
C36   C44   A    
C16   C20   A    
C68   H36   S    
C5    O13   A    
Cu4   O7    S    
C49   H10   S    
C40   C59   A    
C26   C49   A    
Cu4   O13   S    
C76   H59   S    
C16   N3    A    
C71   H45   S    
C66   H29   S    
Cu4   O6    S    
C20   O28   S    
C30   C53   A    
C11   C20   A    
C4    O4    A    
C41   H18   S    
Cu3   Cu4   S    
C50   C58   A    
C11   C12   A    
C3    C25   S    
O24   C72   S    
C73   H51   S    
C71   H44   S    
Cu1   O1    S    
C45   H22   S    
C33   C62   A    
C69   H38   S    
C22   H5    S    
C54   C62   A    
C57   C62   A    
C55   H16   S    
C34   O22   S    
C34   C61   A    
C8    O16   A    
C14   H1    S    
C18   O26   S    
C38   C57   A    
C4    C26   S    
C74   H52   S    
C4    O12   A    
C53   H14   S    
Cu4   N4    S    
C8    O8    A    
C56   C64   A    
C74   H54   S    
C19   O27   S    
C66   H28   S    
C73   H49   S    
C54   H13   S    
C16   H3    S    
C67   H33   S    
C72   H48   S    
O28   C76   S    
C31   C48   A    
C3    O11   A    
O26   C74   S    
Cu4   O16   S    
C14   N1    A    
C2    O10   A    
C51   C59   A    
C5    O5    A    
C35   C43   A    
C27   C52   A    
C7    O7    A    
O17   C65   S    
C44   H19   S    
C51   H12   S    
C40   C48   A    
Cu3   O14   S    
C22   N1    A    
C66   H30   S    
C23   N4    A    
C75   H57   S    
Cu3   O8    S    
C56   H15   S    
C71   H43   S    
C25   C42   A    
C65   H26   S    
C70   H40   S    
C69   H37   S    
C12   C24   A    
C52   H11   S    
Cu3   O15   S    
C6    O14   A    
C13   C17   A    
C21   N2    A    
C29   C54   A    
C33   C41   A    
C75   H56   S    
C8    C30   S    
C72   H46   S    
C24   H7    S    
Cu2   O9    S    
C70   H41   S    
C9    C21   A    
Cu1   O10   S    
O21   C69   S    
C58   C61   A    
Cu1   N1    S    
Cu2   O3    S    
C12   C19   A    
C11   C23   A    
C28   C51   A    
Cu3   N3    S    
C43   H20   S    
C42   H17   S    
C38   C46   A    
C65   H27   S    
C6    O6    A    
O22   C70   S    
Cu2   O12   S    
C38   O18   S    
C33   O21   S    
C9    C18   A    
C48   H23   S    
C26   C41   A    
C28   C43   A    
Cu1   Cu2   S    
C13   N2    A    
C46   H21   S    
C1    C27   S    
C2    C28   S    
C76   H60   S    
C5    C31   S    
O25   C73   S    
C37   C45   A    
O23   C71   S    
C24   N3    A    
C35   O23   S    
C67   H31   S    
C68   H35   S    
C40   O20   S    
