data_mof_unit_60064.cif
_audit_creation_date              2012-12-10T19:18:38-0500
_audit_creation_method            fapswitch 2.2
_symmetry_space_group_name_H-M    P1
_symmetry_Int_Tables_number       1
_space_group_crystal_system       triclinic
_cell_length_a                    14.762264
_cell_length_b                    15.996187
_cell_length_c                    17.384048
_cell_angle_alpha                 90.00772
_cell_angle_beta                  86.063424
_cell_angle_gamma                 90.016266
_cell_volume                      4095.38251551

loop_
_atom_site_label
_atom_site_type_symbol
_atom_type_description
_atom_site_fract_x
_atom_site_fract_y
_atom_site_fract_z
_atom_type_partial_charge
C1    C     C_R   0.500031 0.659162 0.499976 0.831730
C2    C     C_R   0.499969 0.340838 0.500024 0.831730
C3    C     C_R   0.417601 0.043583 0.506687 -0.167409
C4    C     C_R   0.582399 0.956417 0.493308 -0.167409
C5    C     C_R   0.499976 0.087213 0.500019 0.149486
C6    C     C_R   0.500024 0.912787 0.499976 0.149486
C7    C     C_R   0.582375 0.043662 0.493329 -0.167100
C8    C     C_R   0.417625 0.956338 0.506666 -0.167100
C9    C     C_1   0.499954 0.176667 0.500031 -0.057145
C10   C     C_1   0.500046 0.823332 0.499965 -0.057145
C11   C     C_1   0.500050 0.748284 0.499965 -0.161388
C12   C     C_1   0.499950 0.251716 0.500033 -0.161388
C13   C     C_R   0.054145 0.493285 0.431148 -0.213239
C14   C     C_R   0.945855 0.506715 0.568851 -0.213239
C15   C     C_R   0.097116 0.500040 0.500731 -0.033967
C16   C     C_R   0.902884 0.499960 0.499269 -0.033967
C17   C     C_R   0.041576 0.506780 0.569959 0.184770
C18   C     C_R   0.958424 0.493220 0.430041 0.184770
C19   C     C_1   0.197299 0.499992 0.500225 0.196046
C20   C     C_1   0.802701 0.500008 0.499775 0.196046
C21   C     C_R   0.488351 0.498914 0.650222 0.794614
C22   C     C_R   0.511649 0.501086 0.349778 0.794613
C23   C     C_R   0.482355 0.494560 0.734313 -0.042030
C24   C     C_R   0.517645 0.505443 0.265687 -0.042029
C25   C     C_R   0.561663 0.483354 0.773079 -0.193055
C26   C     C_R   0.438339 0.516658 0.226921 -0.193055
C27   C     C_R   0.557022 0.478694 0.852855 -0.138954
C28   C     C_R   0.442980 0.521323 0.147145 -0.138956
C29   C     C_R   0.473002 0.486396 0.895146 0.180049
C30   C     C_R   0.527000 0.513616 0.104855 0.180048
C31   C     C_R   0.393396 0.495201 0.856533 -0.154222
C32   C     C_R   0.606604 0.504803 0.143467 -0.154219
C33   C     C_R   0.397960 0.499596 0.776404 -0.171211
C34   C     C_R   0.602040 0.500404 0.223596 -0.171210
C35   C     C_2   0.466586 0.485220 0.979562 -0.218933
C36   C     C_2   0.533416 0.514795 0.020438 -0.218935
Cu1   Cu    Cu3+1 0.410780 0.500000 0.499980 0.998705
Cu2   Cu    Cu3+1 0.589220 0.500000 0.500020 0.998705
H1    H     H_    0.627408 0.477586 0.741824 0.160893
H2    H     H_    0.372594 0.522429 0.258176 0.160892
H3    H     H_    0.664234 0.492557 0.252430 0.182641
H4    H     H_    0.335766 0.507436 0.747570 0.182642
H5    H     H_    0.595683 0.538755 0.991681 0.150807
H6    H     H_    0.404319 0.461261 0.008320 0.150807
H7    H     H_    0.327971 0.500211 0.888480 0.141033
H8    H     H_    0.672030 0.499790 0.111520 0.141034
H9    H     H_    0.380843 0.531840 0.119008 0.132382
H10   H     H_    0.619161 0.468183 0.880993 0.132379
H11   H     H_    0.353645 0.922911 0.511846 0.145695
H12   H     H_    0.646355 0.077089 0.488149 0.145695
H13   H     H_    0.353604 0.076949 0.511881 0.145409
H14   H     H_    0.646396 0.923051 0.488114 0.145409
H15   H     H_    0.095112 0.488013 0.377238 0.163826
H16   H     H_    0.904888 0.511987 0.622762 0.163826
N1    N     N_1   0.723290 0.500020 0.499980 -0.149357
N2    N     N_1   0.276710 0.499980 0.500020 -0.149357
O1    O     O_R   0.424680 0.619690 0.499960 -0.568378
O2    O     O_R   0.575320 0.380310 0.500040 -0.568378
O3    O     O_R   0.575360 0.619690 0.500000 -0.568528
O4    O     O_R   0.424640 0.380310 0.500000 -0.568528
O5    O     O_R   0.415920 0.500010 0.613580 -0.570846
O6    O     O_R   0.584080 0.499990 0.386420 -0.570846
O7    O     O_R   0.566610 0.500010 0.613610 -0.587320
O8    O     O_R   0.433390 0.499990 0.386390 -0.587319
I1    I     I_    0.901230 0.482800 0.321841 -0.395003
I2    I     I_    0.098770 0.517200 0.678159 -0.395003

loop_
_geom_bond_atom_site_label_1
_geom_bond_atom_site_label_2
_ccdc_geom_bond_type
C27   H10   S    
C19   N2    T    
C15   C19   S    
C31   C33   A    
C28   H9    S    
C5    C9    S    
Cu1   Cu2   S    
C14   C16   A    
C1    O1    A    
C22   O6    A    
C29   C35   S    
C26   C28   A    
C35   C36   D    
C1    C11   S    
C13   C15   A    
C30   C36   S    
C16   C20   S    
C2    C12   S    
C28   C30   A    
C29   C31   A    
Cu2   O2    S    
C23   C25   A    
C25   H1    S    
C18   I1    S    
C30   C32   A    
C35   H6    S    
C14   C17   A    
C26   H2    S    
C17   I2    S    
C34   H3    S    
C32   H8    S    
C13   C18   A    
C4    H14   S    
C20   N1    T    
C33   H4    S    
C16   C18   A    
C14   H16   S    
C24   C26   A    
C3    C8    A    
C13   H15   S    
C1    O3    A    
C21   C23   S    
C2    O2    A    
C9    C12   T    
C22   C24   S    
C21   O7    A    
Cu1   O4    S    
C25   C27   A    
C10   C11   T    
C22   O8    A    
Cu2   O3    S    
C3    C5    A    
Cu1   O8    S    
C27   C29   A    
C4    C6    A    
Cu2   O7    S    
C31   H7    S    
C5    C7    A    
C3    H13   S    
C4    C7    A    
C36   H5    S    
C6    C8    A    
Cu1   O5    S    
C6    C10   S    
C23   C33   A    
C15   C17   A    
Cu1   N2    S    
C21   O5    A    
C8    H11   S    
C24   C34   A    
Cu2   N1    S    
C7    H12   S    
Cu2   O6    S    
C2    O4    A    
Cu1   O1    S    
C32   C34   A    
