data_mof_unit_49225.cif
_audit_creation_date              2013-03-05T16:06:22-0500
_audit_creation_method            fapswitch 2.2
_symmetry_space_group_name_H-M    P1
_symmetry_Int_Tables_number       1
_space_group_crystal_system       triclinic
_cell_length_a                    10.844969
_cell_length_b                    9.612088
_cell_length_c                    27.78736
_cell_angle_alpha                 89.784864
_cell_angle_beta                  92.435551
_cell_angle_gamma                 89.978767
_cell_volume                      2893.99464308

loop_
_atom_site_label
_atom_site_type_symbol
_atom_site_description
_atom_site_fract_x
_atom_site_fract_y
_atom_site_fract_z
_atom_type_partial_charge
O1    O     O_R   0.319640 0.618740 0.500000 -0.562703
O2    O     O_R   0.680360 0.381260 0.500000 -0.566271
O3    O     O_R   0.680360 0.618740 0.500000 -0.568184
O4    O     O_R   0.319640 0.381260 0.500000 -0.555996
C1    C     C_R   0.262439 0.500001 0.501150 0.814445
C2    C     C_R   0.737665 0.499965 0.500044 0.799719
O5    O     O_R   0.500020 0.618770 0.430260 -0.557525
O6    O     O_R   0.499980 0.381230 0.569740 -0.548814
O7    O     O_R   0.499980 0.618770 0.569740 -0.545904
O8    O     O_R   0.500020 0.381230 0.430260 -0.560304
C3    C     C_R   0.505736 0.500289 0.407616 0.823339
C4    C     C_R   0.500980 0.500143 0.592292 0.801372
Cu1   Cu    Cu3+1 0.500000 0.640660 0.500000 1.054162
Cu2   Cu    Cu3+1 0.500000 0.359340 0.500000 1.056073
C5    C     C_R   0.426686 0.474618 0.177588 0.548477
C6    C     C_R   0.614259 0.559573 0.822541 0.546532
O9    O     O_2   0.324528 0.443665 0.201593 -0.507413
O10   O     O_2   0.712149 0.604988 0.798507 -0.516216
N1    N     N_R   0.534451 0.505345 0.202629 -0.469841
N2    N     N_R   0.510619 0.514117 0.797534 -0.466847
C7    C     C_R   0.639253 0.538349 0.179428 0.540575
C8    C     C_R   0.409268 0.469736 0.820951 0.543889
C9    C     C_R   0.539841 0.628845 0.279832 -0.091452
C10   C     C_R   0.425975 0.595951 0.718848 -0.071900
C11   C     C_R   0.532916 0.627543 0.329843 -0.153115
C12   C     C_R   0.423316 0.591847 0.668634 -0.162717
C13   C     C_R   0.525365 0.375988 0.329126 -0.154945
C14   C     C_R   0.586985 0.419813 0.671921 -0.134645
C15   C     C_R   0.531724 0.377245 0.279113 -0.090026
C16   C     C_R   0.589405 0.423506 0.722107 -0.087024
C17   C     C_R   0.536585 0.503779 0.254244 0.337375
C18   C     C_R   0.508623 0.511220 0.745827 0.323561
C19   C     C_R   0.528273 0.509542 0.102252 -0.042769
C20   C     C_R   0.515841 0.514839 0.898002 -0.042787
C21   C     C_R   0.421614 0.476014 0.127038 -0.026748
C22   C     C_R   0.619037 0.559976 0.873135 -0.024306
C23   C     C_R   0.312072 0.445825 0.101017 -0.137847
C24   C     C_R   0.724401 0.605078 0.899143 -0.138598
C25   C     C_R   0.638116 0.541116 0.128846 -0.023260
C26   C     C_R   0.409762 0.470027 0.871490 -0.022111
C27   C     C_R   0.520284 0.501268 0.354901 -0.060341
C28   C     C_R   0.502638 0.502192 0.644962 -0.027176
H1    H     H_    0.525334 0.276952 0.347420 0.208792
H2    H     H_    0.653414 0.356149 0.654234 0.210129
H3    H     H_    0.532153 0.279944 0.259603 0.152465
H4    H     H_    0.654459 0.358764 0.742615 0.164081
H5    H     H_    0.228243 0.421873 0.119238 0.191137
H6    H     H_    0.804468 0.642082 0.880887 0.190794
C29   C     C_R   0.412519 0.471853 0.973674 0.042276
C30   C     C_R   0.632758 0.548909 0.026599 0.042387
C31   C     C_R   0.628079 0.555630 0.975404 0.042566
C32   C     C_R   0.414133 0.475868 0.024841 0.043085
C33   C     C_R   0.518802 0.514200 0.949243 0.070056
C34   C     C_R   0.525049 0.511475 0.051015 0.070033
C35   C     C_R   0.308228 0.425532 0.945816 -0.203528
C36   C     C_R   0.742119 0.577294 0.054510 -0.203284
C37   C     C_R   0.307098 0.424931 0.895836 -0.137840
C38   C     C_R   0.744380 0.573719 0.104526 -0.137425
O11   O     O_2   0.308764 0.424008 0.795402 -0.524404
O12   O     O_2   0.744219 0.567657 0.205223 -0.518408
C39   C     C_R   0.308033 0.446079 0.051019 -0.203013
C40   C     C_R   0.729040 0.603234 0.949173 -0.203352
H7    H     H_    0.358914 0.657774 0.648241 0.161588
H8    H     H_    0.538396 0.725361 0.348722 0.205706
H9    H     H_    0.364048 0.665039 0.736834 0.157696
H10   H     H_    0.546098 0.727070 0.260882 0.153821
H11   H     H_    0.224849 0.388375 0.876305 0.191472
H12   H     H_    0.830489 0.596525 0.124112 0.192061
H13   H     H_    0.226001 0.386124 0.961399 0.141401
H14   H     H_    0.828965 0.600427 0.038925 0.139801
H15   H     H_    0.219038 0.424603 0.034077 0.139392
H16   H     H_    0.813075 0.642290 0.966114 0.141118
C41   C     C_R   0.064089 0.373916 0.504273 -0.115974
C42   C     C_R   0.936164 0.626052 0.500760 -0.119678
C43   C     C_R   0.936419 0.373745 0.502482 -0.123198
C44   C     C_R   0.063799 0.626047 0.502633 -0.122031
H17   H     H_    0.111709 0.275331 0.506892 0.206239
H18   H     H_    0.888504 0.724862 0.499069 0.203585
H19   H     H_    0.888956 0.274825 0.502274 0.204124
H20   H     H_    0.111152 0.724781 0.503968 0.207558
C45   C     C_R   0.871691 0.499884 0.500762 -0.048625
C46   C     C_R   0.128551 0.499989 0.502902 -0.054579
C47   C     C_R   0.427470 0.074426 0.467325 0.283502
C48   C     C_R   0.570749 0.925318 0.533214 0.286867
C49   C     C_R   0.569838 0.073441 0.533481 0.300135
C50   C     C_R   0.427317 0.926239 0.467393 0.283869
N3    N     N_R   0.500000 0.852070 0.500000 -0.323174
N4    N     N_R   0.500000 0.147930 0.500000 -0.320585
N5    N     N_R   0.346103 0.145744 0.433804 0.188218
O13   O     O_R   0.371658 0.146213 0.388570 -0.333543
O14   O     O_R   0.231750 0.162312 0.444652 -0.336952
N6    N     N_R   0.645354 0.853375 0.568913 0.185568
O15   O     O_R   0.605407 0.840624 0.612198 -0.298280
O16   O     O_R   0.763076 0.841729 0.562913 -0.347604
N7    N     N_R   0.636194 0.143493 0.571583 0.173721
O17   O     O_R   0.751354 0.175368 0.566578 -0.354862
O18   O     O_R   0.595172 0.134626 0.614780 -0.334452
N8    N     N_R   0.346480 0.855441 0.433755 0.189336
O19   O     O_R   0.230753 0.844019 0.443331 -0.337583
O20   O     O_R   0.375901 0.849540 0.388987 -0.333940

loop_
_geom_bond_atom_site_label_1
_geom_bond_atom_site_label_2
_geom_bond_distance
_ccdc_geom_bond_type
C13   C15   1.394376 A    
N7    O17   1.299114 A    
C48   N3    1.371602 A    
O3    C2    1.299635 A    
N1    C17   1.433481 S    
C5    N1    1.367466 A    
C30   C34   1.421297 A    
C42   C44   1.382959 A    
O1    C1    1.300161 A    
C9    H10   1.082894 S    
N1    C7    1.367150 A    
C10   C12   1.395091 A    
C32   C39   1.415958 A    
C14   C28   1.400609 A    
O7    Cu1   1.948503 S    
C4    C28   1.463105 S    
C23   H5    1.083633 S    
C24   H6    1.083592 S    
O3    Cu1   1.967236 S    
O6    C4    1.305407 A    
C39   H15   1.076108 S    
C47   N4    1.373610 A    
C2    C45   1.452798 S    
Cu1   Cu2   2.704073 S    
C41   C43   1.383362 A    
O2    C2    1.299457 A    
C31   C40   1.416048 A    
C37   H11   1.083602 S    
C50   N8    1.428609 S    
C5    C21   1.403390 A    
C32   C34   1.421577 A    
C47   N5    1.428684 S    
C48   C49   1.423848 A    
C7    O12   1.349590 S    
O8    Cu2   1.948503 S    
C11   C27   1.406666 A    
C8    O11   1.349874 S    
C50   N3    1.372793 A    
C43   C45   1.400429 A    
C29   C35   1.416082 A    
C25   C38   1.395647 A    
C14   H2    1.080300 S    
C30   C36   1.416410 A    
C15   H3    1.082908 S    
C31   C33   1.421557 A    
C11   H8    1.078831 S    
C9    C17   1.398658 A    
O5    C3    1.305908 A    
C12   H7    1.083436 S    
C10   C18   1.402320 A    
C13   C27   1.405672 A    
C7    C25   1.405220 A    
C6    N2    1.368698 A    
C29   C32   1.421815 A    
C8    C26   1.404161 A    
Cu1   N3    2.032092 S    
N6    O16   1.299376 A    
C30   C31   1.422560 A    
C40   H16   1.076205 S    
C19   C25   1.408683 A    
C35   H13   1.076120 S    
C10   H9    1.082830 S    
C38   H12   1.083592 S    
N2    C8    1.368399 A    
C36   H14   1.076181 S    
C35   C37   1.388365 A    
C20   C26   1.407997 A    
N5    O14   1.298542 A    
C42   C45   1.400089 A    
C44   C46   1.400081 A    
C41   C46   1.400434 A    
C12   C28   1.402551 A    
N2    C18   1.436424 S    
C49   N4    1.373509 A    
C19   C34   1.422727 A    
C5    O9    1.349987 S    
O6    Cu2   1.950074 S    
C26   C37   1.395478 A    
C21   C23   1.395396 A    
C16   H4    1.082865 S    
C44   H20   1.079249 S    
O4    C1    1.299989 A    
C23   C39   1.388128 A    
N7    O18   1.300229 A    
N8    O20   1.298742 A    
C22   C24   1.395858 A    
Cu2   N4    2.032092 S    
C15   C17   1.398719 A    
C6    C22   1.404663 A    
C16   C18   1.401959 A    
C1    C46   1.454890 S    
C49   N7    1.425904 S    
C29   C33   1.421248 A    
C14   C16   1.394265 A    
N6    O15   1.301003 A    
C19   C21   1.408022 A    
C36   C38   1.389299 A    
C3    C27   1.479905 S    
C20   C22   1.407847 A    
C9    C11   1.394893 A    
O4    Cu2   1.967236 S    
O2    Cu2   1.967391 S    
O7    C4    1.298858 A    
O8    C3    1.306674 A    
C13   H1    1.077491 S    
O5    Cu1   1.950074 S    
C47   C50   1.424383 A    
O1    Cu1   1.967391 S    
C20   C33   1.422826 A    
C6    O10   1.349807 S    
N8    O19   1.298581 A    
C42   H18   1.081051 S    
C41   H17   1.079767 S    
C48   N6    1.429366 S    
N5    O13   1.298567 A    
C43   H19   1.081297 S    
C24   C40   1.389025 A    
