data_mof_unit_41660.cif
_audit_creation_date              2012-12-10T19:10:06-0500
_audit_creation_method            fapswitch 2.2
_symmetry_space_group_name_H-M    P1
_symmetry_Int_Tables_number       1
_space_group_crystal_system       triclinic
_cell_length_a                    10.806077
_cell_length_b                    10.804296
_cell_length_c                    9.532443
_cell_angle_alpha                 90.089273
_cell_angle_beta                  89.977612
_cell_angle_gamma                 90.359377
_cell_volume                      1112.90898068

loop_
_atom_site_label
_atom_site_type_symbol
_atom_type_description
_atom_site_fract_x
_atom_site_fract_y
_atom_site_fract_z
_atom_type_partial_charge
C1    C     C_R   0.497686 0.262339 0.499768 0.827296
C2    C     C_R   0.251779 0.850250 0.161969 -0.108720
C3    C     C_R   0.934476 0.578366 0.414723 -0.241687
C4    C     C_R   0.871033 0.494405 0.499997 -0.108936
C5    C     C_R   0.935310 0.408619 0.583276 -0.043482
C6    C     C_R   0.064794 0.408478 0.580299 0.097777
C7    C     C_R   0.128246 0.497205 0.498992 -0.117523
C8    C     C_R   0.062838 0.581396 0.414277 -0.028406
C9    C     C_R   0.865063 0.323008 0.813448 -0.088356
C10   C     C_R   0.817902 0.225354 0.893621 -0.118924
C11   C     C_R   0.776099 0.117296 0.827785 -0.131483
C12   C     C_R   0.262320 0.499432 0.499825 0.841395
C13   C     C_R   0.777169 0.108403 0.681405 -0.128781
C14   C     C_R   0.823092 0.206399 0.600728 -0.126092
C15   C     C_R   0.869339 0.313372 0.666589 0.148609
C16   C     C_R   0.434578 0.062558 0.606472 0.168782
C17   C     C_R   0.488768 0.129107 0.496576 -0.092333
C18   C     C_R   0.528213 0.064598 0.376565 -0.255137
C19   C     C_R   0.530266 0.935808 0.376905 -0.228747
C20   C     C_R   0.493303 0.870641 0.497425 -0.098468
C21   C     C_R   0.438661 0.935502 0.607429 0.117427
C22   C     C_3   0.456744 0.929668 0.762410 -0.484225
C23   C     C_R   0.500126 0.737601 0.499898 0.805414
C24   C     C_3   0.448652 0.070176 0.762249 -0.477045
C25   C     C_R   0.551799 0.596363 0.073832 0.271286
C26   C     C_R   0.438404 0.411367 0.074375 -0.086024
C27   C     C_R   0.438716 0.411198 0.925487 -0.066053
C28   C     C_R   0.551538 0.596529 0.926360 0.249964
C29   C     C_3   0.682980 0.639084 0.920380 -0.499077
C30   C     C_3   0.683389 0.638439 0.079608 -0.516452
C31   C     C_R   0.737465 0.497956 0.500027 0.802792
C32   C     C_R   0.223467 0.876986 0.301912 -0.111888
C33   C     C_R   0.161781 0.789304 0.384557 -0.169830
C34   C     C_R   0.126375 0.674988 0.326617 0.114514
C35   C     C_R   0.153354 0.649215 0.185471 -0.090813
C36   C     C_R   0.216779 0.736411 0.103795 -0.140560
Cu1   Cu    Cu3+1 0.499990 0.499980 0.640670 0.955580
Cu2   Cu    Cu3+1 0.500010 0.500020 0.359330 0.946809
H1    H     H_    0.300762 0.917722 0.098648 0.126400
H2    H     H_    0.741428 0.040938 0.890125 0.118749
H3    H     H_    0.743353 0.025145 0.630601 0.138992
H4    H     H_    0.826451 0.197407 0.487614 0.117790
H5    H     H_    0.563812 0.113187 0.285625 0.165502
H6    H     H_    0.566187 0.887949 0.285793 0.160795
H7    H     H_    0.377639 0.884009 0.816572 0.198648
H8    H     H_    0.549788 0.895192 0.791958 0.191834
H9    H     H_    0.363769 0.103944 0.815056 0.217235
H10   H     H_    0.534429 0.118038 0.795556 0.212969
H11   H     H_    0.390414 0.338338 0.130087 0.146615
H12   H     H_    0.250131 0.965333 0.346680 0.151241
H13   H     H_    0.391428 0.337856 0.869788 0.166685
H14   H     H_    0.745631 0.569016 0.874027 0.217933
H15   H     H_    0.692327 0.733399 0.875194 0.184156
H16   H     H_    0.746169 0.567556 0.124264 0.218450
H17   H     H_    0.692990 0.732391 0.126137 0.184790
H18   H     H_    0.141810 0.810255 0.493378 0.132356
H19   H     H_    0.126906 0.561131 0.139638 0.125551
H20   H     H_    0.238881 0.715707 0.995506 0.125595
H21   H     H_    0.883663 0.643763 0.350855 0.148069
H22   H     H_    0.902049 0.404252 0.865689 0.116614
H23   H     H_    0.816012 0.232488 0.006861 0.125483
N1    N     N_R   0.500790 0.500930 0.147930 -0.185794
N2    N     N_R   0.500790 0.500890 0.852020 -0.185540
O1    O     O_R   0.500000 0.319640 0.618810 -0.570217
O2    O     O_R   0.500010 0.319680 0.381230 -0.596146
O3    O     O_R   0.319640 0.499990 0.618790 -0.561790
O4    O     O_R   0.319650 0.500030 0.381210 -0.575468
O5    O     O_R   0.499990 0.680320 0.618770 -0.585453
O6    O     O_R   0.500000 0.680360 0.381190 -0.577193
O7    O     O_R   0.680350 0.499970 0.618790 -0.580334
O8    O     O_R   0.680360 0.500010 0.381210 -0.587928
I1    I     I_    0.162100 0.262946 0.684659 -0.475194

loop_
_geom_bond_atom_site_label_1
_geom_bond_atom_site_label_2
_ccdc_geom_bond_type
C23   O5    A    
Cu1   O5    S    
C1    O2    A    
C29   H15   S    
C1    O1    A    
C16   C21   A    
C11   C13   A    
C9    C10   A    
C23   O6    A    
C1    C17   S    
C19   C20   A    
C17   C18   A    
C20   C23   S    
C35   H19   S    
C4    C31   S    
C14   H4    S    
C9    H22   S    
Cu1   O7    S    
C32   C33   A    
Cu1   O1    S    
C33   H18   S    
C13   H3    S    
C33   C34   A    
C26   N1    A    
Cu2   O6    S    
C7    C8    A    
C16   C24   S    
Cu2   O4    S    
C8    C34   S    
C13   C14   A    
C20   C21   A    
C25   C28   A    
C6    I1    S    
C30   H16   S    
C32   H12   S    
C26   C27   A    
C29   C30   S    
C27   N2    A    
C5    C6    A    
C31   O8    A    
C28   C29   S    
Cu1   N2    S    
Cu1   Cu2   S    
C27   H13   S    
C34   C35   A    
C6    C7    A    
C36   H20   S    
C25   N1    A    
Cu1   O3    S    
C9    C15   A    
C11   H2    S    
C12   O4    A    
C22   C24   S    
C7    C12   S    
C5    C15   S    
C10   H23   S    
C10   C11   A    
C2    C36   A    
C3    C4    A    
C24   H10   S    
C28   N2    A    
C24   H9    S    
C22   H7    S    
C19   H6    S    
C3    C8    A    
C2    C32   A    
C18   C19   A    
C30   H17   S    
C26   H11   S    
C18   H5    S    
C25   C30   S    
Cu2   O8    S    
C16   C17   A    
C22   H8    S    
C21   C22   S    
Cu2   O2    S    
C12   O3    A    
C2    H1    S    
C29   H14   S    
C31   O7    A    
C14   C15   A    
C4    C5    A    
Cu2   N1    S    
C35   C36   A    
C3    H21   S    
