data_mof_unit_58856.cif
_audit_creation_date              2012-12-11T16:57:10-0500
_audit_creation_method            fapswitch 2.2
_symmetry_space_group_name_H-M    P1
_symmetry_Int_Tables_number       1
_space_group_crystal_system       triclinic
_cell_length_a                    14.515332
_cell_length_b                    16.367612
_cell_length_c                    6.937613
_cell_angle_alpha                 90.089119
_cell_angle_beta                  98.599997
_cell_angle_gamma                 90.00351
_cell_volume                      1629.71297492

loop_
_atom_site_label
_atom_site_type_symbol
_atom_type_description
_atom_site_fract_x
_atom_site_fract_y
_atom_site_fract_z
_atom_type_partial_charge
O1    O     O_R   0.584990 0.413650 0.534420 -0.572460
O2    O     O_R   0.584990 0.586350 0.534420 -0.575766
O3    O     O_R   0.596190 0.585230 0.208380 -0.494787
O4    O     O_R   0.596190 0.414770 0.208380 -0.497817
O5    O     O_R   0.415010 0.586420 0.976930 -0.558668
O6    O     O_R   0.415010 0.413580 0.976930 -0.557139
C1    C     C_R   0.619732 0.613617 0.384389 0.807506
C2    C     C_R   0.620086 0.386713 0.384394 0.804561
O7    O     O_3   0.440560 0.500000 0.319140 -0.362687
V1    V     V_3+5 0.511030 0.500000 0.068070 1.648806
O8    O     O_R   0.403810 0.414840 0.643540 -0.514812
O9    O     O_R   0.403810 0.585160 0.643540 -0.511306
C3    C     C_R   0.380835 0.386801 0.806747 0.647949
C4    C     C_R   0.381101 0.613326 0.806930 0.639760
V2    V     V_3+5 0.488970 0.500000 0.560620 1.591915
O10   O     O_3   0.559440 0.500000 0.859420 -0.371969
C5    C     C_2   0.310760 0.679665 0.801155 0.469001
C6    C     C_2   0.310113 0.320616 0.800837 0.466394
C7    C     C_2   0.283929 0.713498 0.964861 -0.269244
C8    C     C_2   0.282443 0.287603 0.964487 -0.263966
H1    H     H_    0.228180 0.804517 0.255108 0.173478
H2    H     H_    0.228673 0.195526 0.254716 0.172292
C9    C     C_2   0.192771 0.819633 0.110594 -0.386819
C10   C     C_2   0.192452 0.180752 0.110537 -0.382821
C11   C     C_2   0.212294 0.779207 0.950453 0.666969
C12   C     C_2   0.210906 0.221763 0.950443 0.666908
C13   C     C_R   0.682495 0.741982 0.559289 0.014157
C14   C     C_R   0.680927 0.256519 0.551782 0.031841
C15   C     C_R   0.687357 0.683460 0.413488 -0.255500
C16   C     C_R   0.687987 0.317225 0.413003 -0.264088
C17   C     C_R   0.758642 0.693769 0.297303 0.545067
C18   C     C_R   0.759031 0.306441 0.295684 0.550160
C19   C     C_R   0.823616 0.758810 0.331898 0.558827
C20   C     C_R   0.823301 0.240446 0.328272 0.553935
C21   C     C_R   0.819539 0.816204 0.483380 -0.280565
C22   C     C_R   0.818864 0.182953 0.479552 -0.272435
C23   C     C_R   0.746818 0.806479 0.594873 -0.045165
C24   C     C_R   0.743494 0.191451 0.582927 -0.016247
C25   C     C_3   0.753659 0.794366 0.810912 -0.223564
C26   C     C_3   0.737924 0.188646 0.795887 -0.238601
C27   C     C_3   0.680287 0.726464 0.770008 -0.226298
C28   C     C_3   0.672119 0.262894 0.763176 -0.227494
H3    H     H_    0.823411 0.769869 0.871915 0.209390
H4    H     H_    0.805492 0.202494 0.887851 0.201110
H5    H     H_    0.707457 0.664711 0.813706 0.188626
H6    H     H_    0.703658 0.320573 0.826544 0.194752
O11   O     O_R   0.921430 0.915960 0.371040 -0.495108
O12   O     O_R   0.921430 0.084040 0.371040 -0.508392
O13   O     O_R   0.910450 0.087500 0.697310 -0.560118
O14   O     O_R   0.910450 0.912500 0.697310 -0.555405
O15   O     O_R   0.091710 0.087460 0.928430 -0.517568
O16   O     O_R   0.091710 0.912540 0.928430 -0.517034
C29   C     C_R   0.888484 0.114870 0.519559 0.805907
C30   C     C_R   0.888756 0.884864 0.520123 0.819634
O17   O     O_3   0.065970 1.000000 0.586140 -0.370234
V3    V     V_3+5 0.995640 1.000000 0.837400 1.672897
O18   O     O_R   0.103020 0.915700 0.261710 -0.535040
O19   O     O_R   0.103020 0.084300 0.261710 -0.535802
C31   C     C_R   0.124113 0.885969 0.099641 0.803407
C32   C     C_R   0.123999 0.114165 0.099733 0.799358
V4    V     V_3+5 0.017940 1.000000 0.344880 1.724049
O20   O     O_3   0.947330 1.000000 0.046180 -0.356851
F1    F     F_    0.165063 0.797882 0.771189 -0.597226
F2    F     F_    0.162745 0.203551 0.771599 -0.596319
C33   C     C_2   0.325012 0.687294 0.163464 0.765539
O21   O     O_2   0.283616 0.638033 0.251337 -0.475539
O22   O     O_R   0.410787 0.719282 0.248149 -0.633062
H7    H     H_    0.432565 0.695670 0.381842 0.331564
C34   C     C_2   0.322604 0.314839 0.162891 0.768799
O23   O     O_2   0.279398 0.362622 0.251203 -0.476470
O24   O     O_R   0.409820 0.285709 0.246593 -0.626523
H8    H     H_    0.431553 0.311089 0.378437 0.331684
F3    F     F_    0.273063 0.707274 0.621871 -0.596032
F4    F     F_    0.272871 0.292333 0.621662 -0.600040
F5    F     F_    0.770636 0.636958 0.160785 -0.640498
F6    F     F_    0.771468 0.363410 0.160190 -0.636140
F7    F     F_    0.894998 0.761894 0.226146 -0.638521
F8    F     F_    0.894215 0.236754 0.221326 -0.643208
C35   C     C_2   0.728042 0.869071 0.919322 0.840683
O25   O     O_2   0.787143 0.901280 0.038818 -0.525018
O26   O     O_R   0.637712 0.900388 0.889331 -0.646579
H9    H     H_    0.626345 0.939070 0.997508 0.313244
C36   C     C_2   0.692444 0.110794 0.848344 0.835576
O27   O     O_2   0.717106 0.079144 0.006996 -0.550120
O28   O     O_R   0.618993 0.077725 0.717676 -0.625699
H10   H     H_    0.580464 0.036790 0.779517 0.323569
C37   C     C_2   0.585364 0.742625 0.826248 0.849883
O29   O     O_2   0.573037 0.732236 0.994710 -0.552262
O30   O     O_R   0.512917 0.772496 0.688788 -0.640846
H11   H     H_    0.455096 0.786040 0.748103 0.304784
C38   C     C_2   0.574308 0.249567 0.806266 0.803652
O31   O     O_2   0.557786 0.259838 0.972161 -0.550865
O32   O     O_R   0.504175 0.222249 0.660207 -0.635108
H12   H     H_    0.443796 0.210126 0.711198 0.310210

loop_
_geom_bond_atom_site_label_1
_geom_bond_atom_site_label_2
_ccdc_geom_bond_type
C16   C18   A    
O17   V3    S    
O32   H12   S    
C1    C15   S    
C13   C15   A    
O1    C2    A    
O11   V4    S    
O2    C1    A    
C4    C5    S    
O4    C2    A    
O26   H9    S    
C25   C27   S    
O28   H10   S    
C9    C31   S    
O14   C30   A    
C3    C6    S    
C21   C23   A    
C10   C12   D    
O15   V3    S    
O3    C1    A    
C28   H6    S    
O18   C31   A    
O19   C32   A    
V2    O10   S    
C28   C38   S    
C11   F1    S    
C14   C28   S    
C34   O24   S    
C12   F2    S    
C22   C29   S    
C5    C7    D    
O8    V2    S    
C33   O22   S    
C17   C19   A    
O1    V2    S    
O7    V1    S    
C26   H4    S    
C20   C22   A    
V3    O20   S    
O19   V4    S    
C26   C28   S    
C6    F4    S    
C21   C30   S    
C5    F3    S    
C26   C36   S    
V4    O20   S    
O12   C29   A    
C27   C37   S    
O22   H7    S    
C38   O31   D    
C35   O26   S    
C25   H3    S    
O14   V3    S    
C25   C35   S    
O6    V1    S    
O16   C31   A    
C38   O32   S    
C13   C27   S    
C17   F5    S    
C36   O27   D    
O9    V2    S    
C14   C24   A    
C10   C32   S    
O2    V2    S    
O5    C4    A    
O11   C30   A    
C36   O28   S    
O9    C4    A    
H1    C9    S    
H2    C10   S    
C8    C34   S    
O4    V1    S    
C18   F6    S    
O18   V4    S    
O13   V3    S    
C2    C16   S    
C14   C16   A    
O7    V2    S    
O5    V1    S    
C23   C25   S    
O3    V1    S    
V1    O10   S    
C20   F8    S    
O6    C3    A    
C24   C26   S    
O8    C3    A    
C19   F7    S    
O12   V4    S    
C8    C12   S    
C13   C23   A    
O13   C29   A    
O17   V4    S    
C22   C24   A    
C19   C21   A    
C7    C33   S    
C6    C8    D    
C9    C11   D    
C34   O23   D    
C7    C11   S    
C35   O25   D    
O24   H8    S    
C37   O29   D    
C15   C17   A    
C33   O21   D    
C37   O30   S    
C27   H5    S    
O15   C32   A    
O30   H11   S    
O16   V3    S    
C18   C20   A    
