data_mof_unit_61647.cif
_audit_creation_date              2013-03-05T16:51:40-0500
_audit_creation_method            fapswitch 2.2
_symmetry_space_group_name_H-M    P1
_symmetry_Int_Tables_number       1
_space_group_crystal_system       triclinic
_cell_length_a                    15.796504
_cell_length_b                    15.851297
_cell_length_c                    15.09019
_cell_angle_alpha                 89.908875
_cell_angle_beta                  89.951412
_cell_angle_gamma                 89.925154
_cell_volume                      3778.49992422

loop_
_atom_site_label
_atom_site_type_symbol
_atom_site_description
_atom_site_fract_x
_atom_site_fract_y
_atom_site_fract_z
_atom_type_partial_charge
O1    O     O_R   0.500000 0.378020 0.573650 -0.590685
O2    O     O_R   0.500000 0.621980 0.426350 -0.590684
O3    O     O_R   0.500040 0.378020 0.426320 -0.607226
O4    O     O_R   0.499960 0.621980 0.573680 -0.607226
C1    C     C_R   0.500034 0.338920 0.500045 0.904160
C2    C     C_R   0.499966 0.661079 0.499955 0.904158
O5    O     O_R   0.376760 0.499990 0.573650 -0.591062
O6    O     O_R   0.623240 0.500010 0.426350 -0.591062
O7    O     O_R   0.376800 0.499990 0.426320 -0.606444
O8    O     O_R   0.623200 0.500010 0.573680 -0.606443
C3    C     C_R   0.337671 0.500034 0.500013 0.891388
C4    C     C_R   0.662329 0.499965 0.499987 0.891387
Zn1   Zn    Zn3+2 0.499970 0.500000 0.598370 1.072045
Zn2   Zn    Zn3+2 0.500030 0.500000 0.401630 1.072045
C5    C     C_3   0.972744 0.424404 0.524417 0.177813
C6    C     C_3   0.027255 0.575596 0.475582 0.177813
C7    C     C_3   0.029346 0.440794 0.442550 0.043267
C8    C     C_3   0.970654 0.559206 0.557450 0.043267
C9    C     C_1   0.249284 0.500253 0.500105 -0.073792
C10   C     C_1   0.750716 0.499747 0.499895 -0.073792
C11   C     C_3   0.027425 0.482889 0.581048 0.172502
C12   C     C_3   0.972575 0.517111 0.418952 0.172502
C13   C     C_3   0.084001 0.500348 0.500215 -0.195362
C14   C     C_3   0.915999 0.499652 0.499785 -0.195362
C15   C     C_1   0.174409 0.500422 0.500229 0.198815
C16   C     C_1   0.825591 0.499578 0.499771 0.198815
H1    H     H_    0.540608 0.079082 0.635316 0.196097
H2    H     H_    0.459392 0.920918 0.364683 0.196097
C17   C     C_R   0.523462 0.956874 0.577725 0.188569
C18   C     C_R   0.476538 0.043126 0.422275 0.188569
C19   C     C_R   0.500418 0.913050 0.500919 0.038562
C20   C     C_R   0.499582 0.086950 0.499081 0.038562
C21   C     C_R   0.477095 0.955632 0.423652 -0.191904
C22   C     C_R   0.522905 0.044368 0.576348 -0.191904
C23   C     C_1   0.500250 0.824226 0.500275 0.037788
C24   C     C_1   0.499750 0.175774 0.499724 0.037788
C25   C     C_1   0.499915 0.250585 0.500101 -0.095157
C26   C     C_1   0.500085 0.749415 0.499899 -0.095157
C27   C     C_R   0.459364 0.434686 0.953053 0.264506
C28   C     C_R   0.540636 0.565314 0.046946 0.264506
C29   C     C_R   0.500984 0.499328 0.905056 -0.203865
C30   C     C_R   0.499016 0.500672 0.094944 -0.203865
C31   C     C_R   0.541353 0.564574 0.952688 0.085219
C32   C     C_R   0.458647 0.435425 0.047312 0.085219
C33   C     C_1   0.500366 0.499744 0.807034 0.285856
C34   C     C_1   0.499634 0.500255 0.192966 0.285857
N1    N     N_1   0.499980 0.500020 0.270550 -0.070053
N2    N     N_1   0.500020 0.499980 0.729450 -0.070053
I1    I     I_    0.074990 0.347568 0.352023 -0.040127
I2    I     I_    0.925010 0.652431 0.647977 -0.040128
N3    N     N_R   0.944537 0.341172 0.553015 0.265859
O9    O     O_R   0.000048 0.283897 0.573989 -0.275353
O10   O     O_R   0.864291 0.323663 0.558121 -0.335264
N4    N     N_R   0.055463 0.658828 0.446985 0.265859
O11   O     O_R   0.999952 0.716103 0.426011 -0.275353
O12   O     O_R   0.135709 0.676337 0.441879 -0.335264
N5    N     N_R   0.944176 0.537567 0.329567 0.267032
O13   O     O_R   0.999555 0.552928 0.267834 -0.267917
O14   O     O_R   0.863892 0.540923 0.310948 -0.312655
N6    N     N_R   0.055824 0.462433 0.670433 0.267033
O15   O     O_R   0.000445 0.447071 0.732165 -0.267917
O16   O     O_R   0.136108 0.459077 0.689052 -0.312655
I3    I     I_    0.559345 0.894613 0.696615 -0.162823
I4    I     I_    0.440655 0.105386 0.303385 -0.162823
I5    I     I_    0.400567 0.334223 0.118498 -0.080632
I6    I     I_    0.599433 0.665777 0.881502 -0.080632
N7    N     N_R   0.417245 0.368217 0.906092 0.231238
O17   O     O_R   0.336492 0.356003 0.917126 -0.278083
O18   O     O_R   0.457779 0.324419 0.846759 -0.342313
N8    N     N_R   0.582755 0.631783 0.093908 0.231238
O19   O     O_R   0.663508 0.643996 0.082874 -0.278083
O20   O     O_R   0.542221 0.675580 0.153241 -0.342313

loop_
_geom_bond_atom_site_label_1
_geom_bond_atom_site_label_2
_geom_bond_distance
_ccdc_geom_bond_type
Zn1   N2    1.978021 S    
O5    C3    1.271687 A    
O7    Zn2   1.981628 S    
C2    C26   1.400233 S    
N4    O12   1.300185 A    
C17   I3    2.123345 S    
Zn2   N1    1.978022 S    
C1    C25   1.400233 S    
C8    C11   1.546220 S    
C29   C31   1.413436 A    
N4    O11   1.300310 A    
C28   C30   1.416102 A    
C7    C12   1.546220 S    
O1    C1    1.272790 A    
C5    N3    1.457666 S    
O6    C4    1.271688 A    
C4    C10   1.396206 S    
C12   N5    1.457732 S    
C19   C21   1.395855 A    
C32   I5    2.136763 S    
C30   C32   1.413436 A    
N3    O9    1.300310 A    
C17   C19   1.400834 A    
O2    C2    1.272792 A    
C27   C29   1.416102 A    
C18   C20   1.400834 A    
O7    C3    1.271814 A    
C3    C9    1.396206 S    
N5    O13   1.300312 A    
C7    C13   1.549107 S    
O3    Zn2   1.968528 S    
C28   N8    1.435272 S    
O6    Zn2   1.982025 S    
C31   I6    2.136763 S    
C9    C15   1.182763 T    
C20   C24   1.408027 S    
C19   C23   1.408027 S    
N6    O16   1.300192 A    
C5    C14   1.536477 S    
C14   C16   1.428128 S    
H2    C21   1.084061 S    
C6    C13   1.536477 S    
C6    N4    1.457666 S    
C13   C15   1.428128 S    
C11   C13   1.536529 S    
O2    Zn2   1.969776 S    
C8    C14   1.549107 S    
C5    C11   1.530256 S    
N5    O14   1.300192 A    
O4    C2    1.272650 A    
O1    Zn1   1.969780 S    
C27   C32   1.422486 A    
C7    I1    2.138161 S    
N7    O17   1.300989 A    
C34   N1    1.170781 T    
O5    Zn1   1.982022 S    
N8    O19   1.300989 A    
C8    I2    2.138161 S    
C11   N6    1.457733 S    
C6    C8    1.546237 S    
C18   I4    2.123345 S    
C30   C34   1.479211 S    
C12   C14   1.536529 S    
H1    C22   1.084061 S    
O4    Zn1   1.968527 S    
C5    C7    1.546237 S    
C29   C33   1.479211 S    
C23   C26   1.185884 T    
C24   C25   1.185884 T    
C6    C12   1.530256 S    
C33   N2    1.170782 T    
C18   C21   1.387034 A    
O3    C1    1.272650 A    
O8    C4    1.271815 A    
C27   N7    1.435272 S    
C17   C22   1.387034 A    
N8    O20   1.301323 A    
C28   C31   1.422486 A    
N3    O10   1.300185 A    
C10   C16   1.182763 T    
N6    O15   1.300311 A    
N7    O18   1.301323 A    
O8    Zn1   1.981628 S    
C20   C22   1.395855 A    
