data_mof_unit_24858.cif
_audit_creation_date              2012-12-10T20:47:08-0500
_audit_creation_method            fapswitch 2.2
_symmetry_space_group_name_H-M    P1
_symmetry_Int_Tables_number       1
_space_group_crystal_system       triclinic
_cell_length_a                    10.835582
_cell_length_b                    8.910876
_cell_length_c                    8.101608
_cell_angle_alpha                 90.719278
_cell_angle_beta                  89.7574
_cell_angle_gamma                 90.036374
_cell_volume                      782.178150108

loop_
_atom_site_label
_atom_site_type_symbol
_atom_type_description
_atom_site_fract_x
_atom_site_fract_y
_atom_site_fract_z
_atom_type_partial_charge
C1    C     C_R   0.499827 0.218063 0.499268 0.917334
C2    C     C_R   0.063888 0.596506 0.636410 -0.084611
C3    C     C_R   0.127438 0.523481 0.504077 -0.032043
C4    C     C_R   0.872282 0.526141 0.501383 -0.033380
C5    C     C_R   0.063547 0.456554 0.373513 -0.222189
C6    C     C_R   0.937246 0.457486 0.372408 -0.219715
C7    C     C_1   0.499339 0.065364 0.498628 -0.133999
C8    C     C_1   0.499110 0.934964 0.500062 0.020757
C9    C     C_R   0.499332 0.781937 0.500324 1.090054
C10   C     C_R   0.259470 0.507285 0.501229 0.911974
C11   C     C_R   0.740408 0.508283 0.500372 0.910366
C12   C     C_R   0.123244 0.672791 0.769187 0.415720
C13   C     C_R   0.873455 0.684340 0.758910 0.453980
C14   C     C_R   0.059980 0.685089 0.920720 -0.050036
C15   C     C_R   0.930578 0.698271 0.913284 0.003358
C16   C     C_R   0.934459 0.600160 0.633096 -0.102571
H1    H     H_    0.111541 0.399185 0.273420 0.172470
H2    H     H_    0.890055 0.399999 0.272210 0.172450
H3    H     H_    0.189105 0.071569 0.749354 0.372339
H4    H     H_    0.818570 0.082686 0.709502 0.370968
H5    H     H_    0.210086 0.677042 0.067980 0.216565
H6    H     H_    0.078751 0.696724 0.170365 0.197236
H7    H     H_    0.899270 0.856619 0.091101 0.260196
H8    H     H_    0.865679 0.678019 0.146676 0.193958
N1    N     N_1   0.500000 0.500000 0.073640 -0.021404
N2    N     N_1   0.500000 0.500000 0.926360 -0.006696
N3    N     N_3   0.125626 0.733726 0.065826 -0.348937
N4    N     N_3   0.860477 0.755119 0.051042 -0.362172
O1    O     O_R   0.500000 0.285350 0.636850 -0.616542
O2    O     O_2   0.240983 0.838827 0.542572 -0.379800
O3    O     O_3   0.134937 0.986670 0.780026 -0.474080
O4    O     O_2   0.759083 0.839530 0.521112 -0.388330
O5    O     O_2   0.670981 0.851241 0.804096 -0.284815
O6    O     O_3   0.871005 0.997695 0.743979 -0.488668
O7    O     O_R   0.500000 0.714650 0.636850 -0.527107
O8    O     O_R   0.500000 0.285360 0.363100 -0.616542
O9    O     O_R   0.500000 0.714640 0.363100 -0.631490
O10   O     O_R   0.316770 0.500000 0.636900 -0.633077
O11   O     O_R   0.683230 0.500000 0.636900 -0.633482
O12   O     O_R   0.316780 0.500000 0.363150 -0.638464
O13   O     O_R   0.683220 0.500000 0.363150 -0.627399
O14   O     O_2   0.330615 0.828159 0.823355 -0.293686
S1    S     S_3+6 0.213991 0.831738 0.724225 0.037824
S2    S     S_3+6 0.787009 0.843203 0.702496 0.030846
Zn1   Zn    Zn3+2 0.500000 0.500000 0.682780 1.072909
Zn2   Zn    Zn3+2 0.500000 0.500000 0.317220 1.029934

loop_
_geom_bond_atom_site_label_1
_geom_bond_atom_site_label_2
_ccdc_geom_bond_type
C4    C16   A    
O12   Zn2   S    
O13   Zn2   S    
O8    Zn2   S    
C14   N3    S    
C2    C16   A    
H3    O3    S    
O9    Zn2   S    
O11   Zn1   S    
C10   O10   A    
H4    O6    S    
C9    O9    A    
C2    C3    A    
H5    N3    S    
C2    C12   A    
C7    C8    T    
C3    C10   S    
H7    N4    S    
C4    C11   S    
C11   O11   A    
C15   N4    S    
O3    S1    S    
C1    O1    A    
C12   C14   A    
C11   O13   A    
C12   S1    S    
H6    N3    S    
C13   C15   A    
O4    S2    D    
C5    C6    A    
C6    H2    S    
O2    S1    D    
C4    C6    A    
C5    H1    S    
O14   S1    D    
O7    Zn1   S    
O6    S2    S    
C10   O12   A    
C13   C16   A    
C9    O7    A    
C14   C15   A    
O10   Zn1   S    
N2    Zn1   S    
N1    N2    T    
C1    C7    S    
O5    S2    D    
N1    Zn2   S    
C13   S2    S    
H8    N4    S    
C1    O8    A    
O1    Zn1   S    
C8    C9    S    
C3    C5    A    
