data_mof_unit_8910.cif
_audit_creation_date              2012-12-11T17:07:28-0500
_audit_creation_method            fapswitch 2.2
_symmetry_space_group_name_H-M    P1
_symmetry_Int_Tables_number       1
_space_group_crystal_system       triclinic
_cell_length_a                    6.937688
_cell_length_b                    14.830185
_cell_length_c                    15.861983
_cell_angle_alpha                 89.96602
_cell_angle_beta                  89.922211
_cell_angle_gamma                 90.009582
_cell_volume                      1631.99314784

loop_
_atom_site_label
_atom_site_type_symbol
_atom_type_description
_atom_site_fract_x
_atom_site_fract_y
_atom_site_fract_z
_atom_type_partial_charge
O1    O     O_R   0.505720 0.583900 0.413310 -0.547230
O2    O     O_R   0.175940 0.594920 0.586080 -0.546141
O3    O     O_R   0.005640 0.416100 0.586690 -0.539578
C1    C     C_R   0.345032 0.615956 0.615625 0.690820
O4    O     O_R   0.176000 0.594930 0.413930 -0.540124
O5    O     O_R   0.005700 0.416110 0.413310 -0.524148
C2    C     C_R   0.345105 0.615697 0.384207 0.715211
O6    O     O_R   0.505660 0.583890 0.586690 -0.542413
O7    O     O_3   0.339200 0.441330 0.500000 -0.353614
V1    V     V_3+5 0.064350 0.510880 0.500000 1.438419
O8    O     O_R   0.675980 0.405080 0.413920 -0.534223
C3    C     C_R   0.845663 0.384953 0.383296 0.708309
O9    O     O_R   0.675920 0.405070 0.586070 -0.539148
C4    C     C_R   0.844928 0.383857 0.615296 0.686214
V2    V     V_3+5 0.564340 0.489120 0.500000 1.444872
O10   O     O_3   0.839360 0.558670 0.500000 -0.379244
H1    H     H_    0.138835 0.106520 0.508528 0.149629
C5    C     C_R   0.692994 0.418800 0.782808 -0.160554
C6    C     C_R   0.634016 0.441141 0.864162 -0.119344
C7    C     C_R   0.661652 0.380660 0.929964 -0.100161
C8    C     C_R   0.743505 0.296498 0.914379 -0.138148
C9    C     C_R   0.801091 0.271265 0.831951 0.067503
C10   C     C_R   0.781939 0.335139 0.765438 0.078729
C11   C     C_R   0.872579 0.183502 0.814876 -0.205383
C12   C     C_R   0.921924 0.159927 0.730240 0.008910
C13   C     C_R   0.935741 0.229176 0.668025 0.071653
C14   C     C_R   0.855837 0.315453 0.684054 -0.171350
C15   C     C_R   0.947616 0.069089 0.702894 -0.001594
C16   C     C_R   0.034460 0.051467 0.624883 -0.119284
C17   C     C_R   0.076125 0.121203 0.569548 -0.119412
C18   C     C_R   0.018613 0.208492 0.588779 -0.157878
H2    H     H_    0.667112 0.467479 0.733619 0.107806
H3    H     H_    0.567512 0.505915 0.876226 0.126014
H4    H     H_    0.617450 0.398588 0.993271 0.141693
H5    H     H_    0.759703 0.251510 0.967601 0.093916
H6    H     H_    0.056963 0.982598 0.604181 0.128097
H7    H     H_    0.037561 0.258742 0.540137 0.126889
C19   C     C_R   0.709645 0.201105 0.227977 0.110831
C20   C     C_R   0.874927 0.189860 0.178237 -0.127879
C21   C     C_R   0.022935 0.253592 0.187837 -0.227706
H8    H     H_    0.147175 0.250951 0.146332 0.146874
C22   C     C_R   0.016309 0.319412 0.252269 -0.039554
C23   C     C_R   0.857876 0.321640 0.310292 -0.173599
C24   C     C_R   0.702171 0.264624 0.292240 0.168667
C25   C     C_3   0.590157 0.203263 0.348661 -0.389021
C26   C     C_3   0.596654 0.134059 0.278045 -0.418404
H9    H     H_    0.442171 0.228161 0.361621 0.209809
H10   H     H_    0.673094 0.182649 0.405475 0.170991
H11   H     H_    0.452907 0.120549 0.249789 0.185705
H12   H     H_    0.680777 0.073101 0.295048 0.175312
C27   C     C_R   0.498702 0.676252 0.748560 0.096275
C28   C     C_R   0.353769 0.680392 0.686921 -0.094812
C29   C     C_R   0.208239 0.745192 0.698374 -0.176746
H13   H     H_    0.090780 0.750244 0.653796 0.130514
C30   C     C_R   0.220293 0.808892 0.763816 -0.177882
H14   H     H_    0.114064 0.861047 0.766102 0.171967
C31   C     C_R   0.375508 0.809586 0.821024 -0.123789
C32   C     C_R   0.508104 0.738402 0.814439 0.097274
C33   C     C_3   0.722957 0.738285 0.813632 -0.400564
C34   C     C_3   0.712923 0.672894 0.740212 -0.419860
H15   H     H_    0.784164 0.707799 0.871776 0.177964
H16   H     H_    0.785920 0.803590 0.795502 0.216157
H17   H     H_    0.776202 0.606589 0.756130 0.168902
H18   H     H_    0.763509 0.702322 0.679647 0.182172
C35   C     C_R   0.472146 0.672105 0.244105 0.126461
C36   C     C_R   0.353131 0.682635 0.315066 -0.117274
C37   C     C_R   0.228202 0.757403 0.315856 -0.213675
H19   H     H_    0.128670 0.765685 0.368068 0.136455
C38   C     C_R   0.237043 0.824703 0.252608 -0.004480
C39   C     C_R   0.372618 0.817204 0.185235 -0.155335
C40   C     C_R   0.482374 0.738236 0.182214 0.056091
C41   C     C_3   0.691912 0.723806 0.167518 -0.424717
C42   C     C_3   0.682197 0.649458 0.234233 -0.197338
H20   H     H_    0.779818 0.782143 0.187914 0.213328
H21   H     H_    0.721067 0.700569 0.102048 0.184301
H22   H     H_    0.770209 0.663925 0.291205 0.116342
O11   O     O_R   0.229140 0.916090 0.913340 -0.526052
O12   O     O_R   0.558860 0.905090 0.086080 -0.538222
O13   O     O_R   0.729100 0.083920 0.086690 -0.546043
C43   C     C_R   0.389306 0.885418 0.116879 0.698160
O14   O     O_R   0.558860 0.905090 0.913930 -0.522600
O15   O     O_R   0.729100 0.083920 0.913310 -0.527660
C44   C     C_R   0.389665 0.881483 0.886274 0.712314
O16   O     O_R   0.229140 0.916080 0.086720 -0.519889
O17   O     O_3   0.395570 0.058660 0.000020 -0.382634
V3    V     V_3+5 0.670450 0.989140 0.000000 1.506336
O18   O     O_R   0.058810 0.094980 0.913910 -0.535924
C45   C     C_R   0.889036 0.117131 0.885243 0.763088
O19   O     O_R   0.058810 0.094980 0.086060 -0.541560
C46   C     C_R   0.888992 0.117824 0.113973 0.691134
V4    V     V_3+5 0.170450 0.010950 0.999970 1.505842
O20   O     O_3   0.895460 0.941370 0.999990 -0.339652
C47   C     C_2   0.178457 0.383514 0.255115 0.781983
O21   O     O_2   0.210586 0.432118 0.194475 -0.530641
O22   O     O_R   0.302709 0.384182 0.323941 -0.649287
H23   H     H_    0.401464 0.433966 0.319580 0.324861
C48   C     C_2   0.114961 0.905173 0.264380 0.715934
O23   O     O_2   0.137171 0.952571 0.326666 -0.568774
O24   O     O_R   0.967761 0.924042 0.207265 -0.655954
H24   H     H_    0.886436 0.977114 0.225450 0.268336
C49   C     C_2   0.719214 0.557944 0.196235 0.783301
O25   O     O_2   0.602670 0.496922 0.204880 -0.562111
O26   O     O_R   0.887037 0.543812 0.149341 -0.641610
H25   H     H_    0.890324 0.481765 0.122557 0.312503
C50   C     C_2   0.828377 0.995205 0.736472 0.662102
O27   O     O_2   0.866669 0.959774 0.803633 -0.574971
O28   O     O_R   0.673413 0.964233 0.688281 -0.657252
H26   H     H_    0.601524 0.912831 0.716015 0.289476

loop_
_geom_bond_atom_site_label_1
_geom_bond_atom_site_label_2
_ccdc_geom_bond_type
O18   C45   A    
C47   O21   D    
O18   V4    S    
C22   C47   S    
C29   C30   A    
C6    C7    A    
C43   O16   A    
C48   O23   D    
O17   V4    S    
V1    O10   S    
C29   H13   S    
C24   C25   S    
C12   C15   A    
C50   O28   S    
C26   H11   S    
C13   C14   A    
C49   O25   D    
C1    C28   S    
C34   H17   S    
C15   C16   A    
C3    C23   S    
O5    C3    A    
C17   C18   A    
O12   C43   A    
O11   C44   A    
V2    O10   S    
C35   C42   S    
C5    C6    A    
O13   C46   A    
C48   O24   S    
O8    V2    S    
O22   H23   S    
O28   H26   S    
C31   C44   S    
C39   C40   A    
O1    V2    S    
O16   V4    S    
C10   C14   A    
C4    C14   S    
O19   V4    S    
O7    V1    S    
C20   C46   S    
O14   V3    S    
C1    O6    A    
C7    H4    S    
O12   V3    S    
C21   C22   A    
C36   C37   A    
C33   C34   S    
C47   O22   S    
O9    C4    A    
H1    C17   S    
C41   H21   S    
O4    V1    S    
O14   C44   A    
C25   H9    S    
C33   H15   S    
C39   C43   S    
C5    C10   A    
C11   C12   A    
C41   H20   S    
C6    H3    S    
C20   C21   A    
O4    C2    A    
C32   C33   S    
O17   V3    S    
C37   H19   S    
C18   H7    S    
C37   C38   A    
O2    C1    A    
C23   C24   A    
C19   C24   A    
C16   C17   A    
O24   H24   S    
C16   H6    S    
C15   C50   S    
C30   H14   S    
C27   C32   A    
C11   C45   S    
O3    C4    A    
C21   H8    S    
O6    V2    S    
C30   C31   A    
C42   H22   S    
C9    C11   A    
C5    H2    S    
C22   C23   A    
O2    V1    S    
V4    O20   S    
C28   C29   A    
C25   H10   S    
O11   V4    S    
C33   H16   S    
O1    C2    A    
C41   C42   S    
O5    V1    S    
O8    C3    A    
C8    H5    S    
C50   O27   D    
C26   H12   S    
C34   H18   S    
O9    V2    S    
C12   C13   A    
C27   C28   A    
O3    V1    S    
C35   C40   A    
C2    C36   S    
O15   V3    S    
C31   C32   A    
C19   C20   A    
O15   C45   A    
C42   C49   S    
O7    V2    S    
C38   C39   A    
C19   C26   S    
C25   C26   S    
C13   C18   A    
C40   C41   S    
C7    C8    A    
C49   O26   S    
C35   C36   A    
O26   H25   S    
C9    C10   A    
V3    O20   S    
C27   C34   S    
O19   C46   A    
C8    C9    A    
O13   V3    S    
C38   C48   S    
