data_mof_unit_36277.cif
_audit_creation_date              2013-03-05T16:12:47-0500
_audit_creation_method            fapswitch 2.2
_symmetry_space_group_name_H-M    P1
_symmetry_Int_Tables_number       1
_space_group_crystal_system       triclinic
_cell_length_a                    10.657168
_cell_length_b                    10.144817
_cell_length_c                    27.540715
_cell_angle_alpha                 95.138985
_cell_angle_beta                  91.188474
_cell_angle_gamma                 88.953622
_cell_volume                      2964.55584458

loop_
_atom_site_label
_atom_site_type_symbol
_atom_site_description
_atom_site_fract_x
_atom_site_fract_y
_atom_site_fract_z
_atom_type_partial_charge
O1    O     O_R   0.316770 0.614620 0.500000 -0.527138
O2    O     O_R   0.683230 0.385380 0.500000 -0.529079
O3    O     O_R   0.683230 0.614620 0.500000 -0.552028
O4    O     O_R   0.316770 0.385380 0.500000 -0.552850
C1    C     C_R   0.261485 0.501323 0.506086 0.942190
C2    C     C_R   0.739647 0.499163 0.495282 0.956915
O5    O     O_R   0.500030 0.614650 0.428760 -0.549630
O6    O     O_R   0.499970 0.385350 0.571240 -0.595317
O7    O     O_R   0.499970 0.614650 0.571240 -0.527234
O8    O     O_R   0.500030 0.385350 0.428760 -0.547643
C3    C     C_R   0.497879 0.494260 0.406446 0.878821
C4    C     C_R   0.492142 0.504409 0.593813 0.882591
Zn1   Zn    Zn3+2 0.500000 0.653120 0.500000 1.180117
Zn2   Zn    Zn3+2 0.500000 0.346880 0.500000 1.156060
C5    C     C_R   0.360459 0.376165 0.174807 0.599355
C6    C     C_R   0.531758 0.488121 0.819494 0.581782
O9    O     O_2   0.285511 0.298951 0.198578 -0.509341
O10   O     O_2   0.636082 0.487390 0.792574 -0.503635
N1    N     N_R   0.452214 0.446292 0.200496 -0.343994
N2    N     N_R   0.416998 0.485226 0.796351 -0.341744
C7    C     C_R   0.542620 0.510022 0.177720 0.553678
C8    C     C_R   0.309772 0.462542 0.820175 0.562968
C9    C     C_R   0.561691 0.397083 0.275304 -0.115893
C10   C     C_R   0.385881 0.392360 0.712716 -0.107143
C11   C     C_R   0.576426 0.412860 0.325584 -0.149527
C12   C     C_R   0.407575 0.396574 0.663440 -0.076831
C13   C     C_R   0.373370 0.523075 0.331866 -0.209513
C14   C     C_R   0.479052 0.621126 0.678528 -0.207654
C15   C     C_R   0.360759 0.516636 0.281169 -0.002384
C16   C     C_R   0.452189 0.620706 0.727894 -0.006221
C17   C     C_R   0.456437 0.451711 0.252598 0.266430
C18   C     C_R   0.411840 0.502124 0.745368 0.279842
C19   C     C_R   0.444281 0.442139 0.099776 -0.068850
C20   C     C_R   0.430667 0.461006 0.895653 -0.062173
C21   C     C_R   0.346627 0.383236 0.123955 -0.031698
C22   C     C_R   0.540577 0.488573 0.870568 -0.034877
C23   C     C_R   0.242065 0.331626 0.096202 -0.003985
C24   C     C_R   0.654559 0.511235 0.897292 -0.011278
C25   C     C_R   0.544136 0.503207 0.127044 -0.027906
C26   C     C_R   0.315273 0.444773 0.869910 -0.019813
C27   C     C_R   0.483731 0.478726 0.353809 0.016892
C28   C     C_R   0.460496 0.508919 0.645973 -0.015634
H1    H     H_    0.298948 0.567136 0.354416 0.156232
H2    H     H_    0.516766 0.708678 0.666600 0.216905
C29   C     C_R   0.327417 0.411789 0.970680 0.058894
C30   C     C_R   0.546586 0.489711 0.024559 0.053410
C31   C     C_R   0.547633 0.480384 0.973082 0.054316
C32   C     C_R   0.335725 0.394705 0.021206 0.052491
C33   C     C_R   0.435431 0.450466 0.946541 0.076003
C34   C     C_R   0.442271 0.441566 0.048382 0.075547
C35   C     C_R   0.213657 0.395920 0.943726 -0.204310
C36   C     C_R   0.644580 0.550537 0.053086 -0.207268
C37   C     C_R   0.207630 0.413763 0.894377 -0.121912
C38   C     C_R   0.642343 0.558530 0.103440 -0.110108
O11   O     O_2   0.198667 0.456949 0.795708 -0.519864
O12   O     O_2   0.631208 0.579453 0.204250 -0.516637
C39   C     C_R   0.239564 0.335491 0.045626 -0.282487
C40   C     C_R   0.656973 0.503202 0.947485 -0.282284
H3    H     H_    0.386884 0.309219 0.639327 0.227373
H4    H     H_    0.660490 0.375021 0.342268 0.225657
H5    H     H_    0.354413 0.301337 0.725888 0.176892
H6    H     H_    0.634562 0.346484 0.253616 0.177167
H7    H     H_    0.117850 0.402557 0.875395 0.188966
H8    H     H_    0.718909 0.607581 0.123818 0.203762
H9    H     H_    0.126088 0.375542 0.960259 0.142594
H10   H     H_    0.721629 0.598671 0.037522 0.153445
H11   H     H_    0.160022 0.291393 0.025901 0.133766
H12   H     H_    0.746687 0.516056 0.966100 0.130290
C41   C     C_R   0.063280 0.379290 0.506466 0.321350
C42   C     C_R   0.938815 0.623522 0.499860 0.302090
C43   C     C_R   0.943214 0.381949 0.486761 0.321636
C44   C     C_R   0.060516 0.620366 0.518506 0.328407
C45   C     C_R   0.875497 0.502014 0.490125 -0.411519
C46   C     C_R   0.127317 0.500015 0.514650 -0.408906
C47   C     C_R   0.552027 0.078986 0.538379 0.304289
C48   C     C_R   0.454039 0.921975 0.460684 0.299530
C49   C     C_R   0.474922 0.059932 0.458313 0.330782
C50   C     C_R   0.532089 0.940939 0.540881 0.347288
N3    N     N_R   0.500000 0.857200 0.500000 -0.198600
N4    N     N_R   0.500000 0.142800 0.500000 -0.218866
S1    S     S_3+6 0.673661 0.149111 0.579663 0.163486
O13   O     O_2   0.617536 0.225511 0.623325 -0.285835
O14   O     O_2   0.752619 0.038916 0.597800 -0.193057
O15   O     O_3   0.776470 0.244952 0.555675 -0.472895
H13   H     H_    0.818690 0.294510 0.583869 0.371949
S2    S     S_3+6 0.342534 0.852458 0.415900 0.113747
O16   O     O_2   0.262797 0.962748 0.398109 -0.223604
O17   O     O_2   0.410297 0.786407 0.372937 -0.256125
O18   O     O_3   0.242608 0.745626 0.435867 -0.512020
H14   H     H_    0.181614 0.726280 0.408647 0.364459
S3    S     S_3+6 0.508554 0.108510 0.399441 0.145067
O19   O     O_2   0.624426 0.189301 0.402587 -0.229135
O20   O     O_2   0.536270 0.991710 0.363701 -0.216414
O21   O     O_3   0.385534 0.193750 0.377971 -0.486795
H15   H     H_    0.398083 0.191607 0.342372 0.378261
S4    S     S_3+6 0.519816 0.889419 0.599973 0.089068
O22   O     O_2   0.515915 0.002255 0.639159 -0.279411
O23   O     O_2   0.398217 0.819493 0.603013 -0.231849
O24   O     O_3   0.646485 0.792161 0.609594 -0.527229
H16   H     H_    0.687098 0.830830 0.640148 0.386922
C51   C     C_2   0.250085 0.584300 0.260371 0.551431
H17   H     H_    0.169988 0.610771 0.283178 0.072987
O25   O     O_2   0.248263 0.616297 0.218690 -0.533984
C52   C     C_2   0.470660 0.744603 0.760038 0.514046
H18   H     H_    0.518781 0.826841 0.746434 0.088709
O26   O     O_2   0.429657 0.758284 0.801279 -0.546319
C53   C     C_2   0.127164 0.283004 0.117658 0.526618
H19   H     H_    0.081781 0.195350 0.100528 0.038040
O27   O     O_2   0.076748 0.345837 0.152016 -0.486717
C54   C     C_2   0.772210 0.554585 0.876243 0.548829
H20   H     H_    0.861398 0.510841 0.886661 0.025579
O28   O     O_2   0.771687 0.646358 0.850418 -0.486374
S5    S     S_3+6 0.121508 0.229379 0.528636 0.129056
O29   O     O_2   0.200112 0.261012 0.573966 -0.320984
O30   O     O_2   0.015136 0.143343 0.540457 -0.176616
O31   O     O_3   0.209691 0.145403 0.486206 -0.448744
H21   H     H_    0.228776 0.059787 0.499554 0.388924
S6    S     S_3+6 0.882792 0.773103 0.476728 0.136413
O32   O     O_2   0.806920 0.740481 0.430687 -0.293490
O33   O     O_2   0.801962 0.850098 0.513588 -0.177799
O34   O     O_3   0.003860 0.867644 0.464226 -0.448674
H22   H     H_    0.970847 0.924909 0.439477 0.408367
S7    S     S_3+6 0.903614 0.256844 0.440448 0.126961
O35   O     O_2   0.826514 0.152740 0.460633 -0.175258
O36   O     O_2   0.831508 0.320032 0.401054 -0.314516
O37   O     O_3   0.033967 0.185634 0.415860 -0.464576
H23   H     H_    0.003589 0.124715 0.388170 0.391150
S8    S     S_3+6 0.111428 0.750113 0.561356 0.148497
O38   O     O_2   0.182618 0.690230 0.601856 -0.276963
O39   O     O_2   0.194753 0.841736 0.537378 -0.213071
O40   O     O_3   0.988026 0.836647 0.585314 -0.443717
H24   H     H_    0.025106 0.911177 0.606157 0.410661

loop_
_geom_bond_atom_site_label_1
_geom_bond_atom_site_label_2
_geom_bond_distance
_ccdc_geom_bond_type
Zn1   N3    2.070354 S    
O37   H23   0.990433 S    
C13   C15   1.395721 A    
C37   H7    1.083632 S    
C48   N3    1.392072 A    
O3    C2    1.304050 A    
N1    C17   1.430864 S    
S8    O38   1.502744 D    
C52   O26   1.220799 D    
S1    O13   1.500140 D    
S7    O35   1.501795 D    
C31   C33   1.411903 A    
C5    N1    1.367249 A    
C41   S5    1.785195 S    
C19   C25   1.409902 A    
C44   S8    1.772245 S    
O1    C1    1.326516 A    
C43   S7    1.767214 S    
N1    C7    1.363895 A    
C10   C12   1.385904 A    
C23   C53   1.481976 S    
S2    O17   1.498751 D    
S7    O36   1.500179 D    
C25   C38   1.395714 A    
C29   C35   1.412508 A    
S4    O24   1.688016 S    
C30   C36   1.411137 A    
O31   H21   0.989213 S    
C35   H9    1.078195 S    
C14   C28   1.398850 A    
C1    C46   1.454487 S    
C41   C43   1.380247 A    
O7    Zn1   2.034441 S    
S6    O32   1.504413 D    
C4    C28   1.478898 S    
C24   C40   1.391703 A    
C9    H6    1.083112 S    
C50   S4    1.761400 S    
S4    O23   1.496096 D    
C53   H19   1.085497 S    
C11   H4    1.078457 S    
Zn2   N4    2.070354 S    
C24   C54   1.482396 S    
C12   H3    1.081958 S    
O3    Zn1   1.984384 S    
O6    C4    1.310066 A    
S5    O31   1.677031 S    
C32   C34   1.412874 A    
C51   O25   1.220291 D    
C53   O27   1.221024 D    
O2    C2    1.329013 A    
C39   H11   1.079377 S    
C5    C21   1.413278 A    
C52   H18   1.085826 S    
S1    O14   1.501843 D    
C36   C38   1.382566 A    
S6    O33   1.500774 D    
C51   H17   1.085781 S    
C32   C39   1.409554 A    
O15   H13   0.990949 S    
C44   C46   1.398915 A    
O8    Zn2   2.034446 S    
C11   C27   1.393308 A    
S3    O19   1.491296 D    
C43   C45   1.401230 A    
C50   N3    1.389072 A    
C47   S1    1.818457 S    
S7    O37   1.680783 S    
C19   C34   1.414646 A    
C14   H2    1.062610 S    
C54   H20   1.085723 S    
C35   C37   1.387123 A    
S6    O34   1.681057 S    
C9    C17   1.402382 A    
O5    C3    1.317499 A    
C10   C18   1.395260 A    
S3    O20   1.500157 D    
C13   C27   1.396717 A    
O24   H16   0.990597 S    
C7    C25   1.391578 A    
C29   C33   1.419852 A    
C6    N2    1.366930 A    
C8    C26   1.397363 A    
S4    O22   1.501861 D    
C42   C45   1.417882 A    
C15   C51   1.484336 S    
C41   C46   1.411099 A    
C48   C49   1.428596 A    
O34   H22   0.989630 S    
C10   H5    1.083121 S    
C40   H12   1.079911 S    
N2    C8    1.362735 A    
O8    C3    1.311127 A    
C20   C26   1.411526 A    
O1    Zn1   1.998372 S    
O40   H24   0.990506 S    
S8    O40   1.680959 S    
C48   S2    1.801324 S    
S1    O15   1.663203 S    
C36   H10   1.078505 S    
C12   C28   1.407624 A    
C2    C45   1.458717 S    
S5    O29   1.502642 D    
N2    C18   1.429510 S    
C29   C32   1.418357 A    
C5    O9    1.347805 S    
C30   C31   1.412662 A    
C49   S3    1.781552 S    
C20   C33   1.414892 A    
O6    Zn2   1.965858 S    
C21   C23   1.419288 A    
S2    O16   1.503422 D    
O4    C1    1.304675 A    
S2    O18   1.668617 S    
S8    O39   1.501020 D    
C7    O12   1.350846 S    
C8    O11   1.349743 S    
C30   C34   1.418591 A    
C22   C24   1.418762 A    
C15   C17   1.417243 A    
C6    C22   1.407408 A    
S3    O21   1.683536 S    
C16   C18   1.412409 A    
C49   N4    1.385222 A    
C38   H8    1.083616 S    
C42   S6    1.785872 S    
C14   C16   1.395583 A    
C19   C21   1.416447 A    
C3    C27   1.449132 S    
C20   C22   1.416908 A    
C9    C11   1.385636 A    
O4    Zn2   1.984384 S    
O21   H15   0.990496 S    
O2    Zn2   1.998372 S    
C47   C50   1.428268 A    
C54   O28   1.221052 D    
O7    C4    1.332036 A    
C13   H1    1.082724 S    
O5    Zn1   1.965863 S    
C47   N4    1.388859 A    
C6    O10   1.348604 S    
C26   C37   1.397227 A    
C16   C52   1.484851 S    
C42   C44   1.385900 A    
S5    O30   1.501751 D    
O18   H14   0.990504 S    
C23   C39   1.396638 A    
C31   C40   1.407661 A    
