data_mof_unit_42023.cif
_audit_creation_date              2012-12-11T15:53:30-0500
_audit_creation_method            fapswitch 2.2
_symmetry_space_group_name_H-M    P1
_symmetry_Int_Tables_number       1
_space_group_crystal_system       triclinic
_cell_length_a                    6.92668
_cell_length_b                    14.558266
_cell_length_c                    15.970961
_cell_angle_alpha                 90.578609
_cell_angle_beta                  89.80044
_cell_angle_gamma                 90.069148
_cell_volume                      1610.42589782

loop_
_atom_site_label
_atom_site_type_symbol
_atom_type_description
_atom_site_fract_x
_atom_site_fract_y
_atom_site_fract_z
_atom_type_partial_charge
O1    O     O_R   0.361600 0.167310 0.164620 -0.542513
O2    O     O_R   0.638400 0.832690 0.835380 -0.542513
O3    O     O_R   0.691080 0.157570 0.338750 -0.531077
O4    O     O_R   0.308920 0.842430 0.661250 -0.531077
O5    O     O_R   0.861410 0.336420 0.339360 -0.536199
O6    O     O_R   0.138590 0.663580 0.660640 -0.536199
C1    C     C_R   0.521367 0.136613 0.368516 0.705706
C2    C     C_R   0.478633 0.863387 0.631484 0.705706
O7    O     O_R   0.691320 0.156280 0.165240 -0.546295
O8    O     O_R   0.308680 0.843720 0.834760 -0.546295
O9    O     O_R   0.861640 0.335130 0.164600 -0.543639
O10   O     O_R   0.138360 0.664870 0.835400 -0.543639
C3    C     C_R   0.522372 0.133782 0.136077 0.679041
C4    C     C_R   0.477628 0.866218 0.863923 0.679041
O11   O     O_R   0.361370 0.168600 0.339370 -0.534678
O12   O     O_R   0.638630 0.831400 0.660630 -0.534678
O13   O     O_3   0.527990 0.310540 0.251980 -0.374636
O14   O     O_3   0.472010 0.689460 0.748020 -0.374636
V1    V     V_3+5 0.802830 0.240980 0.251990 1.432994
V2    V     V_3+5 0.197170 0.759020 0.748010 1.432994
O15   O     O_R   0.191360 0.346160 0.165220 -0.546691
O16   O     O_R   0.808640 0.653840 0.834780 -0.546691
C5    C     C_R   0.022480 0.368257 0.136022 0.672199
C6    C     C_R   0.977520 0.631742 0.863978 0.672200
O17   O     O_R   0.191130 0.347440 0.338740 -0.542485
O18   O     O_R   0.808870 0.652560 0.661260 -0.542484
C7    C     C_R   0.021906 0.369742 0.367579 0.720112
C8    C     C_R   0.978094 0.630258 0.632421 0.720112
V3    V     V_3+5 0.302840 0.262750 0.251990 1.419973
V4    V     V_3+5 0.697160 0.737250 0.748010 1.419973
O19   O     O_3   0.027820 0.193180 0.251990 -0.364090
O20   O     O_3   0.972180 0.806820 0.748010 -0.364090
C9    C     C_3   0.821244 0.472461 0.479460 -0.120315
C10   C     C_3   0.178756 0.527538 0.520540 -0.120315
C11   C     C_3   0.915127 0.461295 0.566671 -0.144840
C12   C     C_3   0.084873 0.538704 0.433329 -0.144840
H1    H     H_    0.844948 0.429774 0.621990 0.107037
H2    H     H_    0.155052 0.570226 0.378010 0.107037
H3    H     H_    0.673400 0.449643 0.462342 0.113077
H4    H     H_    0.326600 0.550357 0.537658 0.113077
C13   C     C_3   0.989736 0.560726 0.562140 -0.016542
C14   C     C_3   0.010264 0.439274 0.437860 -0.016542
C15   C     C_3   0.895940 0.572692 0.475710 -0.123650
C16   C     C_3   0.104060 0.427308 0.524290 -0.123650
H5    H     H_    0.809697 0.632956 0.456142 0.118285
H6    H     H_    0.190303 0.367044 0.543858 0.118285
C17   C     C_R   0.820424 0.524858 0.967523 -0.158296
C18   C     C_R   0.179576 0.475142 0.032477 -0.158296
H7    H     H_    0.679549 0.542944 0.943639 0.115621
H8    H     H_    0.320451 0.457056 0.056361 0.115621
C19   C     C_R   0.831662 0.461872 0.033170 -0.151450
C20   C     C_R   0.168338 0.538128 0.966830 -0.151450
H9    H     H_    0.698796 0.433281 0.057596 0.117886
H10   H     H_    0.301204 0.566719 0.942404 0.117887
C21   C     C_R   0.011405 0.436081 0.066659 -0.044364
C22   C     C_R   0.988595 0.563919 0.933341 -0.044364
C23   C     C_R   0.662175 0.006750 0.448214 -0.175664
C24   C     C_R   0.337825 0.993250 0.551786 -0.175664
H11   H     H_    0.787839 0.010404 0.407649 0.136515
H12   H     H_    0.212160 0.989596 0.592351 0.136515
C25   C     C_R   0.655490 0.939206 0.509930 -0.034265
C26   C     C_R   0.344510 0.060794 0.490070 -0.034265
C27   C     C_R   0.491706 0.932033 0.563165 -0.099982
C28   C     C_R   0.508294 0.067967 0.436835 -0.099982
C29   C     C_R   0.679614 0.025444 0.032646 -0.157974
C30   C     C_R   0.320386 0.974556 0.967354 -0.157975
H13   H     H_    0.820453 0.044014 0.056706 0.116082
H14   H     H_    0.179547 0.955986 0.943294 0.116082
C31   C     C_R   0.668479 0.961387 0.966871 -0.151129
C32   C     C_R   0.331521 0.038612 0.033129 -0.151129
H15   H     H_    0.801337 0.932399 0.942440 0.118249
H16   H     H_    0.198663 0.067601 0.057560 0.118249
C33   C     C_R   0.488710 0.935072 0.933292 -0.044547
C34   C     C_R   0.511289 0.064928 0.066708 -0.044547
C35   C     C_1   0.817317 0.876894 0.514567 0.286007
N1    N     N_1   0.947279 0.827192 0.517979 -0.373462
C36   C     C_1   0.182683 0.123106 0.485433 0.286007
N2    N     N_1   0.052721 0.172808 0.482021 -0.373462

loop_
_geom_bond_atom_site_label_1
_geom_bond_atom_site_label_2
_ccdc_geom_bond_type
C24   C26   A    
C18   C21   A    
C30   H14   S    
O13   V3    S    
C26   C36   S    
C12   C14   S    
O4    C2    A    
V1    O19   S    
C17   H7    S    
C36   N2    T    
C25   C35   S    
O9    V1    S    
C9    H3    S    
C10   H4    S    
C9    C14   S    
C11   H1    S    
O3    C1    A    
C23   H11   S    
O12   V4    S    
C8    C13   S    
C25   C27   A    
O9    C5    A    
C23   C25   A    
C31   H15   S    
O7    C3    A    
C26   C28   A    
C9    C11   S    
O5    C7    A    
O7    V1    S    
O6    C8    A    
O8    V2    S    
C29   H13   S    
C32   C34   A    
C31   C33   A    
O14   V4    S    
C19   C21   A    
C20   H10   S    
C18   H8    S    
C2    O12   A    
C13   C15   S    
C10   C13   S    
C14   C16   S    
O2    C4    A    
C16   H6    S    
O11   V3    S    
O17   V3    S    
C9    C15   S    
C4    C33   S    
C10   C16   S    
O8    C4    A    
C17   C19   A    
C30   C33   A    
O15   V3    S    
C29   C34   A    
C19   H9    S    
C35   N1    T    
O10   V2    S    
O1    V3    S    
O3    V1    S    
C11   C16   S    
C15   H5    S    
O18   V4    S    
O15   C5    A    
O16   C6    A    
C6    C22   S    
C23   C28   A    
V2    O20   S    
C24   C27   A    
O16   V4    S    
C5    C21   S    
O5    V1    S    
O17   C7    A    
O6    V2    S    
O10   C6    A    
O18   C8    A    
O2    V4    S    
C12   H2    S    
V3    O19   S    
V4    O20   S    
C7    C14   S    
C30   C32   A    
C29   C31   A    
C1    O11   A    
O13   V1    S    
C10   C12   S    
O14   V2    S    
C11   C13   S    
C1    C28   S    
C2    C27   S    
O4    V2    S    
C18   C20   A    
O1    C3    A    
C3    C34   S    
C12   C15   S    
C32   H16   S    
C24   H12   S    
C20   C22   A    
C17   C22   A    
