data_mof_unit_40745.cif
_audit_creation_date              2012-12-10T17:16:39-0500
_audit_creation_method            fapswitch 2.2
_symmetry_space_group_name_H-M    P1
_symmetry_Int_Tables_number       1
_space_group_crystal_system       triclinic
_cell_length_a                    10.107932
_cell_length_b                    10.686022
_cell_length_c                    10.595402
_cell_angle_alpha                 90.27043
_cell_angle_beta                  93.430443
_cell_angle_gamma                 79.941105
_cell_volume                      1124.81748968

loop_
_atom_site_label
_atom_site_type_symbol
_atom_type_description
_atom_site_fract_x
_atom_site_fract_y
_atom_site_fract_z
_atom_type_partial_charge
C1    C     C_R   0.446644 0.502538 0.265674 0.981798
C2    C     C_R   0.553761 0.487267 0.734285 1.005519
C3    C     C_2   0.424871 0.483976 0.131134 -0.491208
C4    C     C_2   0.578835 0.464817 0.868764 -0.509561
C5    C     C_2   0.516803 0.402206 0.070560 0.395514
C6    C     C_2   0.500091 0.400159 0.931941 0.407057
C7    C     C_2   0.074501 0.488880 0.490053 -0.139170
C8    C     C_2   0.925558 0.510684 0.510441 -0.140250
C9    C     C_R   0.504675 0.258093 0.511970 0.914604
C10   C     C_R   0.493101 0.739897 0.480380 0.880713
C11   C     C_R   0.751512 0.064124 0.462772 -0.132147
C12   C     C_R   0.239600 0.928631 0.509832 -0.127288
C13   C     C_R   0.846703 0.987833 0.392690 -0.213365
C14   C     C_R   0.144376 0.999600 0.583464 -0.179520
C15   C     C_R   0.813615 0.882928 0.328793 -0.155242
C16   C     C_R   0.174012 0.106419 0.645796 -0.160310
C17   C     C_R   0.688749 0.848885 0.342855 -0.119111
C18   C     C_R   0.296026 0.145518 0.628935 -0.141771
C19   C     C_R   0.594882 0.920708 0.420764 0.081632
C20   C     C_R   0.392810 0.076365 0.551687 0.065708
C21   C     C_R   0.619148 0.037407 0.468454 0.104573
C22   C     C_R   0.370281 0.959338 0.504061 0.099668
C23   C     C_R   0.479980 0.875681 0.455889 -0.264614
C24   C     C_R   0.511138 0.120871 0.521461 -0.262838
H1    H     H_    0.101413 0.160579 0.705126 0.131829
H2    H     H_    0.885863 0.826185 0.270966 0.137961
H3    H     H_    0.785914 0.139970 0.515789 0.157738
H4    H     H_    0.208885 0.850760 0.456877 0.155307
H5    H     H_    0.945323 0.012179 0.384962 0.148148
H6    H     H_    0.048178 0.970763 0.593560 0.139744
H7    H     H_    0.665961 0.765664 0.293215 0.138866
H8    H     H_    0.314861 0.228777 0.679336 0.202639
H9    H     H_    0.659184 0.505173 0.917250 0.097418
H10   H     H_    0.338680 0.540866 0.080145 0.120102
H11   H     H_    0.886001 0.580803 0.579217 0.172678
H12   H     H_    0.114145 0.418289 0.421723 0.172464
H13   H     H_    0.884188 0.383115 0.384385 0.159279
H14   H     H_    0.115992 0.617888 0.614951 0.163713
N1    N     N_2   0.157300 0.551390 0.551120 -0.192998
N2    N     N_2   0.842700 0.448610 0.448880 -0.196781
O1    O     O_R   0.568940 0.489660 0.307530 -0.565048
O2    O     O_R   0.431060 0.510340 0.692470 -0.554338
O3    O     O_R   0.348880 0.522640 0.340350 -0.628147
O4    O     O_R   0.651120 0.477360 0.659650 -0.627568
O5    O     O_R   0.610030 0.300280 0.483580 -0.613506
O6    O     O_R   0.389970 0.699720 0.516420 -0.624104
O7    O     O_R   0.389970 0.333270 0.516400 -0.611382
O8    O     O_R   0.610030 0.666730 0.483600 -0.613968
Zn1   Zn    Zn3+2 0.646940 0.477980 0.478080 0.942927
Zn2   Zn    Zn3+2 0.353060 0.522020 0.521920 0.949039
O9    O     O_3   0.400285 0.345337 0.866171 -0.649610
C25   C     C_3   0.339049 0.263366 0.940105 0.068118
H15   H     H_    0.242569 0.252528 0.889130 0.154392
H16   H     H_    0.308926 0.303681 0.032857 0.143525
C26   C     C_3   0.426864 0.131138 0.955026 -0.360548
H17   H     H_    0.453061 0.092415 0.860540 0.223440
H18   H     H_    0.521866 0.137280 0.010545 0.240442
C27   C     C_3   0.354033 0.039604 0.022406 -0.936094
H19   H     H_    0.328808 0.075604 0.118139 0.269540
H20   H     H_    0.420120 0.945168 0.032578 0.260411
H21   H     H_    0.260085 0.028212 0.966973 0.267069
O10   O     O_3   0.614113 0.315113 0.139139 -0.622447
C28   C     C_3   0.735310 0.284459 0.076569 0.059029
H22   H     H_    0.783027 0.370317 0.070147 0.146212
H23   H     H_    0.718294 0.244720 0.980866 0.129180
C29   C     C_3   0.831802 0.182693 0.152165 -0.296366
H24   H     H_    0.844502 0.214882 0.251128 0.228767
H25   H     H_    0.787976 0.094355 0.152040 0.233648
C30   C     C_3   0.969440 0.154354 0.095956 -1.021879
H26   H     H_    0.959457 0.120780 0.997021 0.266592
H27   H     H_    0.036257 0.078911 0.152704 0.270308
H28   H     H_    0.016589 0.240840 0.097408 0.263873

loop_
_geom_bond_atom_site_label_1
_geom_bond_atom_site_label_2
_ccdc_geom_bond_type
O4    Zn1   S    
C10   O6    A    
C30   H28   S    
C29   H25   S    
C26   H17   S    
C28   H23   S    
C9    C24   S    
C9    O5    A    
O10   C28   S    
C11   H3    S    
C10   C23   S    
O7    Zn2   S    
C7    H12   S    
O6    Zn2   S    
C19   C23   A    
C11   C21   A    
C25   C26   S    
O5    Zn1   S    
C8    H11   S    
C2    O2    A    
C27   H21   S    
C26   H18   S    
C29   H24   S    
C28   C29   S    
C30   H27   S    
C7    C8    S    
O3    Zn2   S    
C16   C18   A    
C11   C13   A    
N2    Zn1   S    
C30   H26   S    
O2    Zn2   S    
C5    C6    S    
C2    C4    S    
C1    O1    A    
O8    Zn1   S    
C19   C21   A    
C25   H16   S    
C5    O10   S    
C9    O7    A    
H13   N2    S    
C18   C20   A    
C13   C15   A    
C10   O8    A    
H14   N1    S    
C17   H7    S    
C14   C16   A    
C21   C24   A    
C29   C30   S    
C18   H8    S    
C20   C22   A    
C27   H20   S    
O9    C25   S    
C12   C22   A    
N1    Zn2   S    
C25   H15   S    
C12   H4    S    
C4    C6    D    
C1    C3    S    
C26   C27   S    
O1    Zn1   S    
C16   H1    S    
C15   C17   A    
C20   C24   A    
C4    H9    S    
C15   H2    S    
C7    N1    D    
C8    N2    D    
C3    H10   S    
C17   C19   A    
C27   H19   S    
C14   H6    S    
C1    O3    A    
C22   C23   A    
C2    O4    A    
C28   H22   S    
C13   H5    S    
C12   C14   A    
C3    C5    D    
C6    O9    S    
