data_mof_unit_10622.cif
_audit_creation_date              2012-12-11T15:46:45-0500
_audit_creation_method            fapswitch 2.2
_symmetry_space_group_name_H-M    P1
_symmetry_Int_Tables_number       1
_space_group_crystal_system       triclinic
_cell_length_a                    11.569023
_cell_length_b                    11.585171
_cell_length_c                    19.533327
_cell_angle_alpha                 89.702028
_cell_angle_beta                  89.802025
_cell_angle_gamma                 59.662016
_cell_volume                      2259.49151766

loop_
_atom_site_label
_atom_site_type_symbol
_atom_type_description
_atom_site_fract_x
_atom_site_fract_y
_atom_site_fract_z
_atom_type_partial_charge
C1    C     C_R   0.640621 0.116828 0.599264 0.536089
C2    C     C_1   0.641504 0.702971 0.667901 0.002633
C3    C     C_1   0.126543 0.200113 0.859350 0.006118
C4    C     C_1   0.171626 0.169792 0.727781 -0.031271
C5    C     C_1   0.150145 0.183002 0.799028 -0.031054
C6    C     C_1   0.195481 0.159810 0.667399 0.003409
C7    C     C_1   0.677991 0.192831 0.860632 0.002707
C8    C     C_1   0.659044 0.167072 0.728834 -0.032046
C9    C     C_1   0.665491 0.181961 0.800168 -0.031253
C10   C     C_1   0.653739 0.148816 0.668519 0.000752
C11   C     C_R   0.675136 0.648639 0.195800 0.014889
C12   C     C_R   0.612639 0.745640 0.598556 0.534312
C13   C     C_R   0.558175 0.675581 0.228431 -0.016350
C14   C     C_R   0.545913 0.690896 0.296978 -0.004474
C15   C     C_R   0.776318 0.636673 0.306621 -0.150572
C16   C     C_R   0.790103 0.618949 0.235626 0.224113
C17   C     C_3   0.417842 0.782279 0.214063 -0.274309
C18   C     C_3   0.403507 0.802472 0.290582 -0.240438
C19   C     C_R   0.650826 0.680453 0.336650 -0.042337
C20   C     C_R   0.145034 0.191400 0.191248 0.035590
C21   C     C_R   0.193459 0.265313 0.222558 0.066117
C22   C     C_R   0.214960 0.254646 0.292086 -0.010191
C23   C     C_R   0.241189 0.144870 0.598162 0.548418
C24   C     C_R   0.136152 0.098278 0.302340 -0.174672
C25   C     C_R   0.115473 0.108213 0.231632 -0.166932
C26   C     C_3   0.322805 0.262678 0.209056 0.082823
C27   C     C_3   0.342224 0.257231 0.285730 -0.215095
C28   C     C_R   0.190495 0.169063 0.332726 -0.001461
C29   C     C_R   0.725604 0.224538 0.208692 -0.033417
C30   C     C_R   0.821252 0.109960 0.243143 -0.027008
C31   C     C_R   0.801858 0.082931 0.309494 0.067149
C32   C     C_R   0.603653 0.299431 0.317617 0.219057
C33   C     C_R   0.621947 0.325492 0.248468 -0.127865
C34   C     C_R   0.646980 0.115166 0.403598 0.528386
C35   C     C_3   0.883197 0.966548 0.223409 -0.226689
C36   C     C_3   0.864219 0.936754 0.296607 0.100148
C37   C     C_R   0.685267 0.168923 0.344914 -0.010805
C38   C     C_R   0.081357 0.231824 0.928598 0.553142
C39   C     C_R   0.683588 0.605035 0.929657 0.546514
C40   C     C_R   0.708189 0.207313 0.930057 0.562237
C41   C     C_R   0.084924 0.233816 0.124448 0.573864
C42   C     C_R   0.685254 0.608192 0.126104 0.552505
C43   C     C_R   0.741950 0.236647 0.134429 0.577358
C44   C     C_R   0.617252 0.738372 0.403277 0.527154
C45   C     C_R   0.244685 0.141441 0.401343 0.538549
C46   C     C_1   0.670096 0.647175 0.860202 0.006610
C47   C     C_1   0.654990 0.683001 0.728396 -0.032611
C48   C     C_1   0.663376 0.666866 0.799662 -0.031993
Cr1   Cr    Cr6+3 0.404720 0.198220 0.499960 1.019305
Cr2   Cr    Cr6+3 0.698290 0.897110 0.500380 1.036121
Cr3   Cr    Cr6+3 0.396970 0.904720 0.499610 1.007145
Cr4   Cr    Cr6+3 0.926290 0.152010 0.028150 1.013344
Cr5   Cr    Cr6+3 0.921440 0.451830 0.027490 1.018281
Cr6   Cr    Cr6+3 0.626370 0.446880 0.028730 1.030768
H1    H     H_    0.860645 0.622353 0.337123 0.134248
H2    H     H_    0.431355 0.164332 0.304697 0.145589
H3    H     H_    0.328370 0.352060 0.306611 0.185993
H4    H     H_    0.551393 0.420637 0.225434 0.149402
H5    H     H_    0.989554 0.920756 0.208206 0.148060
H6    H     H_    0.818421 0.952401 0.186817 0.122433
H7    H     H_    0.794558 0.897258 0.302823 0.115026
H8    H     H_    0.356807 0.741298 0.193019 0.149692
H9    H     H_    0.411280 0.868494 0.185407 0.134679
H10   H     H_    0.392315 0.899429 0.306434 0.155698
H11   H     H_    0.331146 0.777077 0.313706 0.162358
H12   H     H_    0.116625 0.030882 0.332175 0.175647
H13   H     H_    0.075261 0.052188 0.208364 0.145395
H14   H     H_    0.311564 0.355033 0.185646 0.153086
O1    O     O_R   0.267750 0.231960 0.575440 -0.506478
O2    O     O_R   0.685950 0.784660 0.430010 -0.505498
O3    O     O_R   0.502510 0.767000 0.423980 -0.538307
O4    O     O_R   0.288320 0.026340 0.429250 -0.504839
O5    O     O_3   0.499990 0.000020 0.499980 -0.254387
O6    O     O_R   0.821590 0.119350 0.952850 -0.502818
O7    O     O_R   0.037230 0.162540 0.957390 -0.494399
O8    O     O_R   0.056530 0.344750 0.951370 -0.509049
O9    O     O_R   0.798000 0.560370 0.957490 -0.502388
O10   O     O_R   0.596230 0.579400 0.952760 -0.505603
O11   O     O_R   0.639160 0.321170 0.958690 -0.486308
O12   O     O_R   0.527290 0.186640 0.570530 -0.512838
O13   O     O_R   0.821370 0.124220 0.104400 -0.519022
O14   O     O_R   0.037020 0.167050 0.097880 -0.532976
O15   O     O_R   0.056310 0.349620 0.102920 -0.493250
O16   O     O_R   0.797790 0.564880 0.097980 -0.476731
O17   O     O_R   0.596000 0.584270 0.104310 -0.532914
O18   O     O_R   0.638950 0.325690 0.099180 -0.485646
O19   O     O_3   0.824700 0.350240 0.028120 -0.279628
O20   O     O_R   0.728110 0.003450 0.576380 -0.499708
O21   O     O_R   0.682980 0.789190 0.570500 -0.490234
O22   O     O_R   0.499300 0.771880 0.575540 -0.523940
O23   O     O_R   0.285350 0.030870 0.569740 -0.488575
O24   O     O_R   0.270960 0.227070 0.423890 -0.508061
O25   O     O_R   0.530270 0.182120 0.430040 -0.485750
O26   O     O_R   0.731320 0.998570 0.424830 -0.496727
O27   O     O_3   0.419266 0.146586 0.174897 -0.695300
H15   H     H_    0.429660 0.066891 0.199758 0.316657
O28   O     O_3   0.495435 0.395744 0.353940 -0.585256
C49   C     C_3   0.537067 0.464069 0.398180 0.006548
H16   H     H_    0.457274 0.570928 0.397049 0.179184
H17   H     H_    0.632111 0.459327 0.382118 0.124239
C50   C     C_3   0.550741 0.412366 0.471744 -0.260207
H18   H     H_    0.462326 0.403082 0.485011 0.208013
H19   H     H_    0.643535 0.313504 0.476639 0.160490
C51   C     C_3   0.558149 0.506499 0.522812 -0.452646
H20   H     H_    0.641415 0.524087 0.509418 0.159638
H21   H     H_    0.575643 0.462283 0.574994 0.145707
H22   H     H_    0.461282 0.602216 0.522609 0.188972
O29   O     O_3   0.985989 0.865104 0.331846 -0.700761
H23   H     H_    0.004491 0.771943 0.335982 0.318532
O30   O     O_3   0.916575 0.563281 0.206657 -0.540184
C52   C     C_3   0.938734 0.666471 0.183879 0.011882
H24   H     H_    0.979552 0.695905 0.227252 0.134081
H25   H     H_    0.845622 0.754502 0.163865 0.114843
C53   C     C_3   0.041095 0.616003 0.125424 -0.226902
H26   H     H_    0.128649 0.519074 0.139894 0.177477
H27   H     H_    0.995792 0.601269 0.078743 0.199309
C54   C     C_3   0.089625 0.713018 0.108158 -0.501935
H28   H     H_    0.003813 0.812571 0.094088 0.162373
H29   H     H_    0.159509 0.674164 0.063967 0.151779
H30   H     H_    0.144290 0.722538 0.152355 0.139472

loop_
_geom_bond_atom_site_label_1
_geom_bond_atom_site_label_2
_ccdc_geom_bond_type
C21   C26   S    
C33   H4    S    
C36   O29   S    
C34   C37   S    
C14   C18   S    
O27   H15   S    
C25   H13   S    
C34   O25   A    
Cr4   O7    S    
C2    C12   S    
C51   H21   S    
C20   C41   S    
C16   O30   S    
C38   O8    A    
C32   O28   S    
C18   H11   S    
C15   C19   A    
C26   C27   S    
C50   H18   S    
C30   C35   S    
C11   C42   S    
Cr5   O16   S    
C39   O9    A    
C12   O22   A    
Cr4   O6    S    
C54   H29   S    
Cr3   O22   S    
Cr6   O19   S    
C20   C25   A    
C6    C23   S    
C15   C16   A    
C41   O15   A    
C29   C33   A    
O29   H23   S    
C44   O3    A    
C35   H5    S    
C45   O24   A    
C23   O1    A    
O30   C52   S    
Cr3   O23   S    
C52   H24   S    
C3    C38   S    
C8    C9    S    
C7    C40   S    
C44   O2    A    
C24   C28   A    
C24   H12   S    
C1    O20   A    
C50   H19   S    
Cr1   O1    S    
C21   C22   A    
C29   C43   S    
C45   O4    A    
Cr3   O3    S    
Cr5   O19   S    
C51   H20   S    
O28   C49   S    
C38   O7    A    
C46   C48   T    
C28   C45   S    
C39   O10   A    
C34   O26   A    
C12   O21   A    
C42   O16   A    
C24   C25   A    
C4    C6    T    
C27   H3    S    
Cr2   O5    S    
Cr6   O18   S    
C27   H2    S    
Cr2   O26   S    
C31   C37   A    
C35   H6    S    
C35   C36   S    
C15   H1    S    
Cr5   O9    S    
C29   C30   A    
C17   H8    S    
C11   C16   A    
Cr2   O21   S    
C47   C48   S    
C17   C18   S    
C40   O11   A    
C52   H25   S    
C42   O17   A    
C32   C37   A    
Cr4   O14   S    
C39   C46   S    
C50   C51   S    
C49   H17   S    
C22   C27   S    
C43   O13   A    
C23   O23   A    
C54   H30   S    
Cr5   O8    S    
Cr3   O4    S    
Cr1   O24   S    
C36   H7    S    
C19   C44   S    
Cr6   O11   S    
C26   O27   S    
C7    C9    T    
C43   O18   A    
C14   C19   A    
Cr4   O19   S    
C1    C10   S    
Cr3   O5    S    
C4    C5    S    
C3    C5    T    
Cr6   O17   S    
C53   H27   S    
C53   H26   S    
Cr2   O20   S    
C2    C47   T    
C49   C50   S    
Cr1   O12   S    
C13   C17   S    
Cr5   O15   S    
C26   H14   S    
C32   C33   A    
Cr2   O2    S    
C54   H28   S    
C17   H9    S    
C11   C13   A    
C18   H10   S    
C30   C31   A    
C41   O14   A    
C40   O6    A    
C52   C53   S    
Cr1   O5    S    
Cr4   O13   S    
C53   C54   S    
C20   C21   A    
C8    C10   T    
C49   H16   S    
C1    O12   A    
C31   C36   S    
C22   C28   A    
Cr1   O25   S    
C13   C14   A    
C51   H22   S    
Cr6   O10   S    
