data_mof_unit_52465.cif
_audit_creation_date              2013-03-05T15:45:33-0500
_audit_creation_method            fapswitch 2.2
_symmetry_space_group_name_H-M    P1
_symmetry_Int_Tables_number       1
_space_group_crystal_system       triclinic
_cell_length_a                    27.727314
_cell_length_b                    10.632388
_cell_length_c                    10.011643
_cell_angle_alpha                 87.910012
_cell_angle_beta                  91.420237
_cell_angle_gamma                 89.934532
_cell_volume                      2948.63236067

loop_
_atom_site_label
_atom_site_type_symbol
_atom_site_description
_atom_site_fract_x
_atom_site_fract_y
_atom_site_fract_z
_atom_type_partial_charge
O1    O     O_R   0.499990 0.319060 0.613040 -0.619083
O2    O     O_R   0.500010 0.319100 0.386900 -0.611888
C1    C     C_R   0.495258 0.262550 0.502110 0.844507
O3    O     O_R   0.428750 0.500000 0.613050 -0.627932
O4    O     O_R   0.428760 0.500040 0.386920 -0.585020
C2    C     C_R   0.405782 0.501005 0.497813 0.901281
Zn1   Zn    Zn3+2 0.499990 0.499970 0.650990 1.001355
Zn2   Zn    Zn3+2 0.500010 0.500030 0.349010 0.972584
O5    O     O_R   0.499990 0.680900 0.613100 -0.587749
O6    O     O_R   0.500010 0.680940 0.386960 -0.611911
O7    O     O_R   0.571240 0.499960 0.613080 -0.592127
O8    O     O_R   0.571250 0.500000 0.386950 -0.627702
C3    C     C_R   0.499554 0.738075 0.497023 0.991468
C4    C     C_R   0.593923 0.503692 0.501801 0.926312
C5    C     C_R   0.177488 0.346020 0.520014 0.611388
O9    O     O_2   0.203416 0.240838 0.549519 -0.514308
N1    N     N_R   0.201155 0.457601 0.502098 -0.343211
C6    C     C_R   0.177164 0.568840 0.482245 0.542145
C7    C     C_R   0.274953 0.480910 0.371497 -0.041593
C8    C     C_R   0.325078 0.504295 0.370516 -0.101490
C9    C     C_R   0.329077 0.467866 0.613186 -0.222850
C10   C     C_R   0.279602 0.451620 0.614328 -0.125098
C11   C     C_R   0.252534 0.458358 0.495258 0.307355
C12   C     C_R   0.101235 0.457454 0.496930 -0.065893
C13   C     C_R   0.126533 0.341907 0.508972 -0.077615
C14   C     C_R   0.100274 0.227825 0.503343 -0.070334
C15   C     C_R   0.126977 0.570880 0.478585 0.002922
C16   C     C_R   0.352586 0.494206 0.492862 -0.056649
H1    H     H_    0.348961 0.459627 0.707601 0.171738
H2    H     H_    0.261933 0.435497 0.708701 0.152940
C17   C     C_R   0.646744 0.506341 0.507926 -0.057235
C18   C     C_R   0.973865 0.352477 0.538518 0.070519
C19   C     C_R   0.975130 0.584070 0.505963 0.005934
C20   C     C_R   0.949325 0.469545 0.522807 0.024901
C21   C     C_R   0.947172 0.246011 0.581985 -0.173865
C22   C     C_R   0.897197 0.248933 0.584927 -0.151416
C23   C     C_R   0.872307 0.360497 0.552883 -0.012778
C24   C     C_R   0.898354 0.472055 0.527009 -0.052916
C25   C     C_R   0.873336 0.586301 0.506337 -0.045625
C26   C     C_R   0.822966 0.585894 0.501445 0.568179
N2    N     N_R   0.798404 0.476432 0.525764 -0.336195
C27   C     C_R   0.821828 0.364852 0.552100 0.565735
C28   C     C_R   0.721226 0.431968 0.419111 -0.130538
C29   C     C_R   0.671560 0.443675 0.410128 -0.244671
C30   C     C_R   0.672487 0.561283 0.615657 -0.105888
C31   C     C_R   0.722881 0.543056 0.628547 -0.041926
C32   C     C_R   0.746925 0.480366 0.527147 0.305538
O10   O     O_2   0.796324 0.259136 0.578248 -0.545648
C33   C     C_R   0.024351 0.346561 0.518041 0.005874
C34   C     C_R   0.050291 0.460606 0.502496 0.031432
C35   C     C_R   0.025740 0.578357 0.489023 0.061890
C36   C     C_R   0.049309 0.230754 0.502001 0.105792
H3    H     H_    0.652371 0.401675 0.327398 0.170184
H4    H     H_    0.740069 0.385405 0.341265 0.156397
H5    H     H_    0.878225 0.163676 0.614248 0.191401
H6    H     H_    0.964290 0.159935 0.618668 0.169364
O11   O     O_2   0.202102 0.677173 0.465996 -0.538863
C37   C     C_R   0.102263 0.683183 0.449992 -0.148834
H7    H     H_    0.121254 0.769573 0.424936 0.200877
C38   C     C_R   0.948966 0.699759 0.512043 0.187094
C39   C     C_R   0.898776 0.699126 0.500580 -0.192298
O12   O     O_2   0.798547 0.694112 0.474015 -0.558448
C40   C     C_R   0.052489 0.685584 0.449325 -0.189543
H8    H     H_    0.879568 0.788067 0.498333 0.190409
H9    H     H_    0.035895 0.772273 0.413107 0.179218
C41   C     C_2   0.473310 0.936284 0.392914 0.254551
C42   C     C_2   0.499352 0.871743 0.487834 -0.310289
H10   H     H_    0.520646 0.918875 0.563590 0.136167
C43   C     C_2   0.476652 0.072331 0.392622 -0.211775
C44   C     C_2   0.477694 0.134931 0.506782 -0.201160
H11   H     H_    0.485176 0.118227 0.297362 0.161262
C45   C     C_2   0.527185 0.573053 0.925830 -0.050759
N3    N     N_2   0.500520 0.501330 0.852150 -0.010619
H12   H     H_    0.546290 0.650317 0.877350 0.159997
C46   C     C_2   0.532215 0.558696 0.075507 -0.177716
N4    N     N_2   0.500540 0.501360 0.147810 -0.194907
H13   H     H_    0.562884 0.602204 0.124656 0.170653
H14   H     H_    0.468046 0.480948 0.102491 0.206999
C47   C     C_2   0.245737 0.485256 0.244016 0.422521
H15   H     H_    0.257727 0.540006 0.157608 0.063228
O13   O     O_2   0.208342 0.425608 0.232895 -0.541120
N5    N     N_2   0.971558 0.815124 0.545697 -0.336210
H16   H     H_    0.953151 0.894981 0.511920 0.229177
C48   C     C_3   0.986637 0.821172 0.684715 -0.766270
H17   H     H_    0.005612 0.911416 0.701013 0.227842
H18   H     H_    0.011838 0.742911 0.713266 0.260915
H19   H     H_    0.954713 0.815992 0.749667 0.252379
C49   C     C_2   0.647498 0.639554 0.713020 0.397608
H20   H     H_    0.656641 0.630302 0.818908 0.039538
O14   O     O_2   0.617468 0.717856 0.674912 -0.574814
C50   C     C_2   0.750528 0.592697 0.744920 0.420812
H21   H     H_    0.737736 0.674233 0.795599 0.065167
O15   O     O_2   0.787604 0.541664 0.787203 -0.556733
N6    N     N_2   0.447122 0.875680 0.288512 -0.264324
H22   H     H_    0.468991 0.842090 0.215909 0.237370
C51   C     C_3   0.404705 0.940502 0.233785 -0.618150
H23   H     H_    0.385271 0.879087 0.163267 0.268465
H24   H     H_    0.415052 0.028167 0.177923 0.192643
H25   H     H_    0.379989 0.963301 0.315220 0.271008
C52   C     C_2   0.457500 0.083849 0.634794 0.389278
H26   H     H_    0.470146 0.119535 0.729488 0.086884
O16   O     O_2   0.425512 0.004942 0.635215 -0.533931
N7    N     N_2   0.492390 0.379650 0.900673 -0.223262
H27   H     H_    0.514037 0.342098 0.977502 0.213974
C53   C     C_3   0.442751 0.338554 0.892103 -0.700410
H28   H     H_    0.438915 0.246636 0.947080 0.200280
H29   H     H_    0.431588 0.325820 0.786650 0.263074
H30   H     H_    0.418438 0.408206 0.935932 0.212441
C54   C     C_2   0.124584 0.105834 0.482241 0.537864
H31   H     H_    0.117419 0.024708 0.547595 0.024367
O17   O     O_2   0.151177 0.094090 0.388053 -0.490377
N8    N     N_2   0.023297 0.121414 0.463443 -0.335912
H32   H     H_    0.036232 0.036505 0.502091 0.210420
C55   C     C_3   0.010493 0.119040 0.322668 -0.726342
H33   H     H_    0.987942 0.035025 0.303658 0.229450
H34   H     H_    0.043548 0.114145 0.262528 0.255714
H35   H     H_    0.989370 0.204343 0.291035 0.256371
C56   C     C_2   0.347345 0.540308 0.241342 0.414321
H36   H     H_    0.341465 0.482972 0.154959 0.029665
O18   O     O_2   0.370449 0.637496 0.229100 -0.544917

loop_
_geom_bond_atom_site_label_1
_geom_bond_atom_site_label_2
_geom_bond_distance
_ccdc_geom_bond_type
C40   H9    1.076630 S    
N2    C27   1.365916 A    
C21   C22   1.387065 A    
C48   H19   1.111493 S    
C4    C17   1.464708 S    
C46   N4    1.291334 D    
C8    C56   1.484688 S    
C55   H33   1.110369 S    
Zn1   N3    2.014211 S    
C30   C31   1.412517 A    
Zn1   O7    2.020917 S    
C53   H29   1.105931 S    
N1    C11   1.427956 S    
C22   C23   1.394862 A    
N4    H14   1.025716 S    
C54   O17   1.221210 D    
O4    C2    1.294024 A    
O7    C4    1.292241 A    
C5    C13   1.415294 A    
C41   C43   1.449477 S    
C36   N8    1.428834 S    
C5    O9    1.348445 S    
C51   H25   1.111240 S    
Zn2   N4    2.014295 S    
C26   O12   1.350464 S    
N1    C6    1.362126 A    
C23   C27   1.400186 A    
C43   H11   1.086755 S    
O5    C3    1.291509 A    
C56   H36   1.085285 S    
C6    O11   1.350953 S    
C38   N5    1.425455 S    
C29   H3    1.083598 S    
C2    C16   1.476520 S    
C7    C8    1.412384 A    
C51   H24   1.111041 S    
C12   C15   1.410641 A    
C41   N6    1.430924 S    
C41   C42   1.346351 D    
O1    Zn1   1.974218 S    
C9    C10   1.383113 A    
N6    H22   1.031444 S    
O3    Zn1   2.002214 S    
N8    C55   1.445989 S    
N8    H32   1.029695 S    
C44   C52   1.495509 S    
C19   C20   1.419883 A    
C12   C34   1.415417 A    
C25   C39   1.392407 A    
C53   H30   1.110253 S    
C17   C29   1.398563 A    
C42   H10   1.086825 S    
C18   C21   1.414378 A    
C30   C49   1.487998 S    
C35   C40   1.411145 A    
C48   H17   1.110134 S    
C45   H12   1.084313 S    
C50   H21   1.084009 S    
C47   O13   1.220922 D    
C31   C50   1.491699 S    
C8    C16   1.427413 A    
C13   C14   1.417586 A    
C9    H1    1.083114 S    
O6    C3    1.277848 A    
C38   C39   1.393559 A    
O1    C1    1.285795 A    
C18   C20   1.419684 A    
C39   H8    1.084037 S    
C7    C11   1.412801 A    
C28   C29   1.382987 A    
C23   C24   1.408687 A    
C14   C36   1.413148 A    
C50   O15   1.221002 D    
C28   H4    1.083157 S    
O8    C4    1.298618 A    
Zn2   O8    2.002217 S    
C33   C36   1.427850 A    
C51   H23   1.109396 S    
C1    C44   1.441712 S    
C52   O16   1.221549 D    
C34   C35   1.424865 A    
N2    C32   1.428365 S    
N7    C53   1.445987 S    
C27   O10   1.349644 S    
C12   C13   1.413826 A    
N6    C51   1.448128 S    
C46   H13   1.084423 S    
C14   C54   1.485388 S    
O3    C2    1.303616 A    
C26   N2    1.366372 A    
C9    C16   1.403282 A    
C49   O14   1.221272 D    
N5    H16   1.032114 S    
C19   C38   1.431302 A    
N5    C48   1.446988 S    
C25   C26   1.396295 A    
C3    C42   1.420829 S    
C37   C40   1.380147 A    
Zn1   O5    1.947143 S    
C31   C32   1.414646 A    
C10   H2    1.083247 S    
C21   H6    1.078692 S    
C20   C24   1.415218 A    
O2    Zn2   1.947144 S    
C6    C15   1.391229 A    
C48   H18   1.110764 S    
C45   N3    1.299072 D    
C15   C37   1.393108 A    
O4    Zn2   2.020914 S    
C55   H34   1.111213 S    
C5    N1    1.364691 A    
C19   C35   1.419162 A    
C53   H28   1.110536 S    
O2    C1    1.290900 A    
C37   H7    1.083864 S    
C22   H5    1.083489 S    
C54   H31   1.085022 S    
C45   C46   1.503725 S    
C24   C25   1.404336 A    
C52   H26   1.084335 S    
C43   C44   1.343140 D    
C56   O18   1.220387 D    
C18   C33   1.421446 A    
C55   H35   1.111110 S    
C47   H15   1.084305 S    
N3    N7    1.385950 S    
C49   H20   1.084806 S    
Zn2   O6    1.974217 S    
C33   C34   1.416213 A    
C17   C30   1.422252 A    
N7    H27   1.032224 S    
C10   C11   1.392406 A    
C28   C32   1.394886 A    
C7    C47   1.493876 S    
