data_mof_unit_54158.cif
_audit_creation_date              2012-12-10T20:25:42-0500
_audit_creation_method            fapswitch 2.2
_symmetry_space_group_name_H-M    P1
_symmetry_Int_Tables_number       1
_space_group_crystal_system       triclinic
_cell_length_a                    8.602038
_cell_length_b                    10.721042
_cell_length_c                    9.903431
_cell_angle_alpha                 89.421909
_cell_angle_beta                  98.619597
_cell_angle_gamma                 90.934337
_cell_volume                      902.85936291

loop_
_atom_site_label
_atom_site_type_symbol
_atom_type_description
_atom_site_fract_x
_atom_site_fract_y
_atom_site_fract_z
_atom_type_partial_charge
C1    C     C_R   0.501412 0.260131 0.500314 0.883632
C2    C     C_R   0.566807 0.936009 0.395268 -0.357060
C3    C     C_R   0.504990 0.870744 0.498229 -0.117016
C4    C     C_R   0.433505 0.932908 0.594021 0.033968
C5    C     C_3   0.467725 0.927569 0.747082 0.367769
C6    C     C_3   0.442471 0.068673 0.740562 -0.602844
C7    C     C_R   0.368780 0.464239 0.054068 0.118397
C8    C     C_R   0.623207 0.548136 0.088287 -0.265414
C9    C     C_R   0.626826 0.544841 0.944059 0.555865
C10   C     C_R   0.367178 0.468462 0.911868 0.056903
C11   C     C_3   0.280676 0.348092 0.892338 -0.596930
C12   C     C_R   0.201328 0.500802 0.464130 0.948380
C13   C     C_3   0.285982 0.339916 0.046709 0.327608
C14   C     C_R   0.504467 0.739342 0.499971 0.915217
C15   C     C_R   0.798689 0.500467 0.535714 0.955333
C16   C     C_2   0.036191 0.503695 0.444762 -0.399320
C17   C     C_2   0.963861 0.500666 0.554461 -0.375184
C18   C     C_R   0.423837 0.060105 0.589131 -0.010601
C19   C     C_R   0.501645 0.127549 0.497737 -0.199177
C20   C     C_R   0.571287 0.064947 0.397358 0.469456
H1    H     H_    0.974678 0.508116 0.340573 0.174462
H2    H     H_    0.160503 0.359625 0.835663 0.160405
H3    H     H_    0.352930 0.279006 0.850063 0.230531
H4    H     H_    0.169445 0.343030 0.082664 0.077788
H5    H     H_    0.025870 0.497512 0.658193 0.170467
H6    H     H_    0.618189 0.887670 0.317455 0.178057
H7    H     H_    0.375720 0.874545 0.792251 0.079173
H8    H     H_    0.327991 0.091136 0.772337 0.160349
H9    H     H_    0.539789 0.132299 0.781956 0.230990
H10   H     H_    0.720837 0.587448 0.156724 0.159141
N1    N     N_R   0.498950 0.499140 0.142680 -0.102685
N2    N     N_R   0.498950 0.499180 0.857030 -0.135434
O1    O     O_R   0.500020 0.316790 0.614690 -0.636246
O2    O     O_R   0.500000 0.316760 0.385350 -0.527654
O3    O     O_R   0.271760 0.500010 0.587850 -0.612596
O4    O     O_R   0.271740 0.499970 0.358500 -0.638974
O5    O     O_R   0.500000 0.683240 0.614650 -0.567596
O6    O     O_R   0.499980 0.683210 0.385310 -0.639845
O7    O     O_R   0.728260 0.500030 0.641500 -0.581530
O8    O     O_R   0.728240 0.499990 0.412150 -0.636366
Zn1   Zn    Zn3+2 0.500010 0.500020 0.653130 0.987700
Zn2   Zn    Zn3+2 0.499990 0.499980 0.346870 0.965485
O9    O     O_3   0.752733 0.595716 0.888724 -0.559564
C21   C     C_3   0.899303 0.552019 0.956039 0.094393
H11   H     H_    0.963623 0.512261 0.878181 0.160292
H12   H     H_    0.891507 0.475541 0.032081 0.098274
C22   C     C_3   0.997234 0.660559 0.023182 -0.887461
H13   H     H_    0.934662 0.706658 0.098764 0.240341
H14   H     H_    0.111292 0.626047 0.076607 0.221248
H15   H     H_    0.020335 0.730100 0.944379 0.257182
O10   O     O_3   0.386795 0.245460 0.107541 -0.535678
C23   C     C_3   0.312876 0.126523 0.088830 0.185781
H16   H     H_    0.406845 0.056771 0.088323 0.176987
H17   H     H_    0.236226 0.116512 0.988498 0.097536
C24   C     C_3   0.220482 0.093607 0.205287 -0.892407
H18   H     H_    0.243417 0.162613 0.288798 0.274098
H19   H     H_    0.092876 0.091276 0.167536 0.211849
H20   H     H_    0.252903 0.999605 0.247257 0.231505
O11   O     O_3   0.636512 0.128427 0.296958 -0.563332
C25   C     C_3   0.795343 0.157344 0.345766 0.127640
H21   H     H_    0.866811 0.071244 0.352797 0.124613
H22   H     H_    0.810123 0.203093 0.447644 0.113856
C26   C     C_3   0.855840 0.247471 0.245553 -0.814265
H23   H     H_    0.980875 0.272207 0.281201 0.196807
H24   H     H_    0.844678 0.204146 0.143439 0.242281
H25   H     H_    0.785470 0.333623 0.236320 0.284373
O12   O     O_3   0.621403 0.879031 0.788648 -0.589156
C27   C     C_3   0.724988 0.957093 0.875679 0.155414
H26   H     H_    0.801685 0.896466 0.947860 0.153477
H27   H     H_    0.663890 0.016064 0.942633 0.128980
C28   C     C_3   0.830691 0.031167 0.789999 -0.347233
H28   H     H_    0.933246 0.973627 0.775579 0.202823
H29   H     H_    0.765996 0.051598 0.686829 0.233352
C29   C     C_3   0.889238 0.154479 0.855366 -1.027110
H30   H     H_    0.789533 0.215357 0.868562 0.274672
H31   H     H_    0.963208 0.203614 0.788460 0.262406
H32   H     H_    0.960618 0.137200 0.955798 0.261421

loop_
_geom_bond_atom_site_label_1
_geom_bond_atom_site_label_2
_ccdc_geom_bond_type
C8    C9    A    
C7    C10   A    
C24   H18   S    
C26   H24   S    
C16   H1    S    
N1    Zn2   S    
O4    Zn2   S    
C19   C20   A    
O2    Zn2   S    
C5    O12   S    
C1    O1    A    
C22   H14   S    
C21   H11   S    
C29   H31   S    
C25   C26   S    
O6    Zn2   S    
C5    C6    S    
C25   H22   S    
C18   C19   A    
C9    N2    A    
C13   O10   S    
C6    H8    S    
C12   C16   S    
C23   H17   S    
C27   H26   S    
C29   H32   S    
N2    Zn1   S    
C12   O4    A    
C21   C22   S    
C4    C18   A    
O8    Zn2   S    
C26   H25   S    
O11   C25   S    
C5    H7    S    
C21   H12   S    
C1    O2    A    
C22   H15   S    
C6    C18   S    
C9    O9    S    
C7    N1    A    
C29   H30   S    
C2    C20   A    
O12   C27   S    
O1    Zn1   S    
O7    Zn1   S    
C28   H29   S    
C16   C17   D    
C1    C19   S    
O10   C23   S    
C13   H4    S    
C25   H21   S    
C20   O11   S    
O9    C21   S    
C14   O6    A    
C22   H13   S    
C2    H6    S    
C12   O3    A    
C15   O7    A    
C3    C14   S    
C24   H19   S    
C3    C4    A    
C23   H16   S    
C15   C17   S    
C8    N1    A    
C4    C5    S    
C28   C29   S    
C23   C24   S    
C11   H2    S    
C8    H10   S    
C2    C3    A    
C17   H5    S    
C28   H28   S    
C14   O5    A    
C11   C13   S    
C27   C28   S    
C11   H3    S    
O5    Zn1   S    
O3    Zn1   S    
C15   O8    A    
C10   C11   S    
C26   H23   S    
C10   N2    A    
C7    C13   S    
C6    H9    S    
C27   H27   S    
C24   H20   S    
