data_mof_unit_42306.cif
_audit_creation_date              2012-12-11T18:37:15-0500
_audit_creation_method            fapswitch 2.2
_symmetry_space_group_name_H-M    P1
_symmetry_Int_Tables_number       1
_space_group_crystal_system       triclinic
_cell_length_a                    8.245832
_cell_length_b                    14.328987
_cell_length_c                    27.005076
_cell_angle_alpha                 93.275459
_cell_angle_beta                  92.952696
_cell_angle_gamma                 88.408047
_cell_volume                      3180.34013015

loop_
_atom_site_label
_atom_site_type_symbol
_atom_type_description
_atom_site_fract_x
_atom_site_fract_y
_atom_site_fract_z
_atom_type_partial_charge
Ba1   Ba    Ba6+2 0.849670 0.455410 0.524690 1.724265
Ba2   Ba    Ba6+2 0.340150 0.544510 0.475310 1.685791
C1    C     C_3   0.673903 0.113327 0.669520 -0.251119
C2    C     C_R   0.881983 0.575082 0.172143 0.584601
C3    C     C_2   0.750993 0.550239 0.270628 0.017789
C4    C     C_3   0.185434 0.186639 0.662144 0.328315
C5    C     C_3   0.743304 0.590112 0.323223 -0.059756
C6    C     C_1   0.975518 0.485270 0.344071 -0.003179
C7    C     C_2   0.014112 0.480582 0.296403 -0.147839
C8    C     C_2   0.893058 0.510507 0.255853 0.191583
C9    C     C_R   0.006794 0.493412 0.101429 -0.080884
C10   C     C_R   0.076747 0.428078 0.133958 -0.078041
C11   C     C_R   0.201314 0.366169 0.116202 -0.078789
C12   C     C_3   0.651341 0.205869 0.644820 0.439895
C13   C     C_R   0.908016 0.566831 0.120898 -0.007124
C14   C     C_2   0.849139 0.536112 0.359716 -0.293408
C15   C     C_2   0.330016 0.459780 0.640568 -0.241464
C16   C     C_3   0.157386 0.152250 0.713313 0.293636
C17   C     C_R   0.155759 0.402073 0.977836 -0.009334
C18   C     C_R   0.988151 0.543953 0.965300 0.040327
C19   C     C_R   0.087042 0.469263 0.945882 0.050586
C20   C     C_R   0.223912 0.319905 0.955412 -0.030796
C21   C     C_R   0.252635 0.310944 0.904754 0.432893
C22   C     C_R   0.203779 0.383563 0.873201 -0.082236
C23   C     C_3   0.540370 0.666322 0.621598 0.300316
C24   C     C_R   0.113719 0.460214 0.893762 -0.131802
C25   C     C_R   0.041199 0.524722 0.861575 -0.013767
C26   C     C_R   0.069063 0.515913 0.810395 0.672635
C27   C     C_R   0.237408 0.381766 0.821762 0.729332
C28   C     C_3   0.232945 0.254962 0.366530 0.260264
C29   C     C_2   0.407711 0.427214 0.730759 -0.128920
C30   C     C_3   0.434367 0.403553 0.675948 -0.134272
C31   C     C_1   0.213469 0.516975 0.656943 -0.024791
C32   C     C_2   0.190671 0.534336 0.705649 -0.064436
C33   C     C_2   0.260312 0.466086 0.743009 0.274205
C34   C     C_3   0.534929 0.683002 0.677562 -0.275278
C35   C     C_R   0.142593 0.415005 0.030571 0.019305
C36   C     C_R   0.036411 0.486352 0.049573 0.033521
C37   C     C_R   0.961320 0.551989 0.017285 0.041506
C38   C     C_R   0.239043 0.363570 0.065523 0.282060
C39   C     C_R   0.839303 0.632457 0.089055 -0.025998
C40   C     C_3   0.194935 0.234862 0.311060 -0.381748
C41   C     C_R   0.915049 0.606381 0.931447 -0.074355
C42   C     C_R   0.939976 0.596334 0.880871 0.008743
C43   C     C_R   0.863719 0.624865 0.038520 -0.080217
C44   C     C_R   0.684227 0.064562 0.472442 -0.031124
C45   C     C_3   0.068931 0.743904 0.333818 0.346745
C46   C     C_R   0.510267 0.198767 0.502103 0.049838
C47   C     C_R   0.372700 0.229953 0.526826 -0.204985
C48   C     C_R   0.273995 0.166996 0.547771 0.035784
C49   C     C_R   0.318662 0.072420 0.547614 -0.120052
C50   C     C_R   0.459569 0.039586 0.524493 0.009742
C51   C     C_R   0.553042 0.101674 0.499513 -0.035571
C52   C     C_3   0.982913 0.753536 0.599730 0.691494
C53   C     C_R   0.640061 0.908524 0.499912 -0.022624
C54   C     C_R   0.729518 0.968719 0.472083 -0.005871
C55   C     C_R   0.687404 0.813133 0.501203 0.011045
C56   C     C_3   0.070909 0.771655 0.280325 0.249601
C57   C     C_R   0.823199 0.779387 0.476422 -0.273042
C58   C     C_R   0.917643 0.838488 0.451388 -0.051718
C59   C     C_R   0.866759 0.932261 0.446423 -0.130827
C60   C     C_R   0.505298 0.944964 0.525363 -0.032575
C61   C     C_3   0.052761 0.831938 0.572307 -0.319555
C62   C     C_3   0.704778 0.308270 0.377015 0.224476
C63   C     C_3   0.780554 0.245068 0.336504 -0.228536
C64   C     C_2   0.601954 0.383791 0.354967 0.411689
C65   C     C_2   0.307358 0.310857 0.150507 0.664871
C66   C     C_2   0.544106 0.413878 0.768172 0.613378
C67   C     C_3   0.550850 0.800752 0.359631 0.325753
C68   C     C_2   0.182726 0.634335 0.723841 0.515902
C69   C     C_2   0.954240 0.988223 0.412542 0.562194
C70   C     C_2   0.274499 0.164666 0.390448 0.500784
C71   C     C_3   0.513654 0.898223 0.341784 -0.294708
C72   C     C_R   0.021933 0.428944 0.183409 0.667588
Cl1   Cl    Cl    0.884926 0.806925 0.651722 -0.710074
Cl2   Cl    Cl    0.935324 0.868644 0.270423 -0.607476
Cl3   Cl    Cl    0.348602 0.205163 0.883958 -0.513798
Cl4   Cl    Cl    0.433398 0.316524 0.050254 -0.673342
Cl5   Cl    Cl    0.011199 0.224398 0.744647 -0.582173
H1    H     H_    0.704759 0.198765 0.607824 0.063647
H2    H     H_    0.804722 0.093702 0.673739 0.174709
H3    H     H_    0.864741 0.193798 0.353917 0.177823
H4    H     H_    0.849407 0.287129 0.311828 0.077001
H5    H     H_    0.685339 0.206319 0.313820 0.152223
H6    H     H_    0.518588 0.219809 0.639465 -0.189773
H7    H     H_    0.610860 0.057549 0.646308 0.060451
H8    H     H_    0.421097 0.640725 0.606695 0.005632
H9    H     H_    0.635093 0.611768 0.614107 0.073773
H10   H     H_    0.440088 0.736891 0.686613 0.144475
H11   H     H_    0.508107 0.616820 0.694450 0.048064
H12   H     H_    0.155052 0.299907 0.293503 0.167176
H13   H     H_    0.653838 0.706593 0.693832 0.195998
H14   H     H_    0.621523 0.119038 0.706680 0.135591
H15   H     H_    0.273536 0.153185 0.736037 0.075790
H16   H     H_    0.140783 0.677600 0.337133 0.030963
H17   H     H_    0.941468 0.732707 0.342698 -0.055622
H18   H     H_    0.195495 0.790544 0.271531 0.098694
H19   H     H_    0.032560 0.711808 0.255028 0.048413
H20   H     H_    0.684447 0.788513 0.359735 -0.017303
H21   H     H_    0.510016 0.798489 0.398097 0.071460
H22   H     H_    0.575576 0.951025 0.367234 0.104238
H23   H     H_    0.305697 0.207260 0.292896 0.127395
H24   H     H_    0.381017 0.913708 0.341109 0.146533
H25   H     H_    0.227352 0.259707 0.666250 0.015709
H26   H     H_    0.557311 0.903406 0.303845 0.177540
H27   H     H_    0.137937 0.463004 0.287041 0.152176
H28   H     H_    0.250510 0.259416 0.976746 0.174324
H29   H     H_    0.653545 0.567903 0.244015 0.132050
H30   H     H_    0.763450 0.690015 0.103073 0.140653
H31   H     H_    0.836220 0.664062 0.942462 0.084864
H32   H     H_    0.281016 0.139912 0.646017 -0.131595
H33   H     H_    0.881270 0.646533 0.856831 0.141873
H34   H     H_    0.098408 0.182485 0.304542 0.134328
H35   H     H_    0.804439 0.678437 0.017335 0.083655
H36   H     H_    0.840984 0.556169 0.398882 0.076845
H37   H     H_    0.338789 0.441962 0.601191 0.078950
H38   H     H_    0.336802 0.303177 0.527192 0.058849
H39   H     H_    0.242145 0.024568 0.564796 0.055730
H40   H     H_    0.860672 0.706701 0.478691 0.065957
H41   H     H_    0.754209 0.110479 0.452393 0.148862
H42   H     H_    0.433919 0.900428 0.546245 0.093597
H43   H     H_    0.114155 0.079336 0.709591 0.068646
H44   H     H_    0.342201 0.296468 0.371296 0.060568
H45   H     H_    0.897134 0.713122 0.574739 -0.057351
H46   H     H_    0.565815 0.441773 0.379481 0.050764
H47   H     H_    0.344128 0.239733 0.139402 0.041773
H48   H     H_    0.639645 0.362174 0.760970 0.066632
H49   H     H_    0.104327 0.684078 0.705177 0.097619
H50   H     H_    0.085665 0.985055 0.413097 0.067370
H51   H     H_    0.367450 0.117603 0.375421 -0.024737
H52   H     H_    0.144887 0.870005 0.596580 0.130364
H53   H     H_    0.955802 0.882713 0.560953 0.072487
H54   H     H_    0.112853 0.802025 0.539131 0.094141
H55   H     H_    0.803175 0.341158 0.400502 0.027159
N1    N     N_R   0.931473 0.504123 0.203013 -0.427220
N2    N     N_R   0.191723 0.456522 0.792611 -0.412561
O1    O     O_2   0.918080 0.549800 0.616640 -0.465710
O2    O     O_2   0.257431 0.833241 0.455957 -0.499333
O3    O     O_3   0.138120 0.814752 0.365400 -0.593649
O4    O     O_3   0.150070 0.549720 0.556460 -0.479044
O5    O     O_3   0.546340 0.387390 0.478340 -0.496188
O6    O     O_2   0.398940 0.728800 0.517420 -0.451808
O7    O     O_3   0.575834 0.750150 0.600383 -0.597969
O8    O     O_2   0.401848 0.556776 0.321600 -0.454776
O9    O     O_3   0.468386 0.734436 0.327957 -0.591329
O10   O     O_2   0.049736 0.361259 0.208200 -0.578778
O11   O     O_2   0.303985 0.312791 0.802690 -0.526713
O12   O     O_3   0.606016 0.253860 0.403819 -0.678028
O13   O     O_2   0.816206 0.646427 0.189211 -0.581745
O14   O     O_2   0.978862 0.558328 0.781852 -0.570560
O15   O     O_3   0.658250 0.379560 0.591530 -0.492220
O16   O     O_2   0.767035 0.459104 0.678266 -0.446078
O17   O     O_3   0.113300 0.699093 0.617638 -0.666998
O18   O     O_3   0.729193 0.277239 0.674465 -0.529804
O19   O     O_2   0.790750 0.271170 0.482550 -0.441712
O20   O     O_3   0.062300 0.331660 0.568480 -0.462514
O21   O     O_2   0.939099 0.166708 0.540016 -0.480310
O22   O     O_2   0.556718 0.380470 0.311088 -0.558769
O23   O     O_3   0.040755 0.181905 0.632475 -0.581434
O24   O     O_2   0.361931 0.345900 0.189965 -0.523183
O25   O     O_2   0.553458 0.462728 0.806734 -0.553561
O26   O     O_2   0.262533 0.661726 0.760952 -0.548240
O27   O     O_2   0.879908 0.032591 0.381135 -0.582399
O28   O     O_2   0.207034 0.144117 0.427338 -0.603906
O29   O     O_2   0.271610 0.450170 0.383330 -0.480948
O30   O     O_3   0.039630 0.450200 0.443530 -0.459495
O31   O     O_3   0.531440 0.620360 0.408460 -0.491051
O32   O     O_3   0.099089 0.298873 0.389710 -0.611289
O33   O     O_3   0.643350 0.612530 0.521650 -0.488708
O34   O     O_3   0.127390 0.668260 0.431510 -0.480780
P1    P     P_3+3 0.090020 0.577590 0.608380 0.990876
P2    P     P_3+3 0.614340 0.285150 0.467650 0.976043
P3    P     P_3+3 0.080666 0.210379 0.572166 1.007254
P4    P     P_3+3 0.099670 0.422330 0.391610 0.992677
P5    P     P_3+3 0.109706 0.789149 0.426827 0.942941
P6    P     P_3+3 0.648144 0.384386 0.655857 0.989596
P7    P     P_3+3 0.581729 0.728565 0.536118 0.958063
P8    P     P_3+3 0.535059 0.622737 0.344195 0.979360

loop_
_geom_bond_atom_site_label_1
_geom_bond_atom_site_label_2
_ccdc_geom_bond_type
C34   H10   S    
C53   C54   A    
C26   O14   D    
C54   C59   A    
C10   C72   A    
C9    C36   A    
C67   O9    S    
C4    H32   S    
O3    P5    S    
C56   H19   S    
C19   C24   A    
C52   O17   S    
C4    O23   S    
C56   Cl2   S    
C66   O25   D    
O32   P4    S    
C2    O13   D    
C30   P6    S    
C24   C25   A    
C69   O27   D    
C48   P3    S    
C61   H54   S    
C17   C19   A    
C22   C24   A    
C32   C33   S    
C35   C38   A    
C36   C37   A    
C6    P4    S    
C55   C57   A    
O6    P7    D    
C52   C61   S    
C34   H11   S    
C20   H28   S    
C53   C60   A    
C68   O26   D    
C23   H8    S    
C49   H39   S    
Ba1   Ba2   S    
Ba1   O19   S    
C22   C27   A    
C11   C38   A    
C17   C35   A    
C46   P2    S    
C9    C13   A    
C43   H35   S    
C47   H38   S    
C6    C7    D    
O9    P8    S    
C1    H2    S    
C45   H17   S    
C67   C71   S    
C65   O24   D    
C41   H31   S    
C4    H25   S    
C7    C8    S    
Ba2   O30   S    
C37   C43   A    
C34   H13   S    
C71   H22   S    
C57   C58   A    
C6    C14   D    
C39   H30   S    
C62   O12   S    
C1    H7    S    
C23   O7    S    
C56   H18   S    
C15   C31   D    
C40   H23   S    
O33   P7    S    
C27   N2    Am   
O19   P2    D    
O34   P5    S    
C29   C66   S    
C4    C16   S    
C62   H55   S    
O20   P3    S    
O30   P4    S    
C49   C50   A    
C17   C20   A    
C8    N1    S    
C13   C39   A    
C65   H47   S    
C3    C5    S    
C18   C37   A    
C32   C68   S    
C16   Cl5   S    
C63   H5    S    
C23   C34   S    
C48   C49   A    
O29   P4    D    
Ba1   P1    S    
C23   H9    S    
C5    P8    S    
C58   C59   A    
C63   H4    S    
C62   C64   S    
Ba1   O20   S    
C41   C42   A    
C35   C36   A    
C69   H50   S    
C40   H34   S    
C71   H26   S    
C29   C30   S    
Ba2   O29   S    
C21   C22   A    
O7    P7    S    
C72   N1    Am   
O17   P1    S    
C31   C32   D    
C70   O28   D    
C44   H41   S    
C1    H14   S    
C61   H53   S    
C21   Cl3   S    
C28   H44   S    
Ba1   O4    S    
C66   H48   S    
C1    C12   S    
C16   H43   S    
C2    N1    Am   
C39   C43   A    
C42   H33   S    
C46   C47   A    
Ba2   O34   S    
O4    P1    S    
C61   H52   S    
C12   H1    S    
C53   C55   A    
Ba2   O6    S    
C38   Cl4   S    
C45   O3    S    
C31   P1    S    
C14   H36   S    
C67   H20   S    
C64   O22   D    
C18   C41   A    
Ba1   O1    S    
C50   C51   A    
C11   C65   S    
C68   H49   S    
C15   C30   S    
C52   H45   S    
C5    C14   S    
C57   H40   S    
O15   P6    S    
C26   N2    Am   
C72   O10   D    
C12   H6    S    
O8    P8    D    
C33   N2    S    
C27   O11   D    
C28   C70   S    
C9    C10   A    
C70   H51   S    
C46   C51   A    
Ba1   P2    S    
C64   H46   S    
O18   P6    S    
Ba2   O4    S    
C62   C63   S    
C2    C13   A    
C7    H27   S    
C28   O32   S    
C3    C8    D    
C50   C60   A    
Ba2   P4    S    
C45   C56   S    
C55   P7    S    
C59   C69   S    
C63   H3    S    
Ba1   O30   S    
C16   H15   S    
Ba2   O5    S    
C44   C51   A    
Ba1   O33   S    
O12   P2    S    
Ba1   O15   S    
C29   C33   D    
O5    P2    S    
O1    P1    D    
Ba1   O5    S    
Ba2   O33   S    
C52   Cl1   S    
O16   P6    D    
C67   H21   S    
C71   H24   S    
O31   P8    S    
C18   C19   A    
C47   C48   A    
O23   P3    S    
C44   C54   A    
O2    P5    D    
C58   P5    S    
C45   H16   S    
C20   C21   A    
C28   C40   S    
C10   C11   A    
C25   C42   A    
Ba2   O31   S    
C60   H42   S    
C12   O18   S    
C40   H12   S    
C15   H37   S    
O21   P3    D    
C25   C26   A    
C3    H29   S    
