data_mof_unit_67464.cif
_audit_creation_date              2013-03-05T15:40:59-0500
_audit_creation_method            fapswitch 2.2
_symmetry_space_group_name_H-M    P1
_symmetry_Int_Tables_number       1
_space_group_crystal_system       triclinic
_cell_length_a                    11.062853
_cell_length_b                    8.876881
_cell_length_c                    7.759704
_cell_angle_alpha                 102.513069
_cell_angle_beta                  95.706375
_cell_angle_gamma                 97.175438
_cell_volume                      731.782911993

loop_
_atom_site_label
_atom_site_type_symbol
_atom_site_description
_atom_site_fract_x
_atom_site_fract_y
_atom_site_fract_z
_atom_type_partial_charge
O1    O     O_R   0.509140 0.286130 0.619770 -0.586172
O2    O     O_R   0.485380 0.256770 0.308360 -0.623499
C1    C     C_R   0.494901 0.200930 0.454140 0.738205
O3    O     O_R   0.329570 0.514650 0.655700 -0.592968
O4    O     O_R   0.305810 0.485300 0.344290 -0.552751
C2    C     C_R   0.259898 0.490695 0.499254 0.938167
Cu1   Cu    Cu3+1 0.514070 0.517380 0.684380 0.935568
Cu2   Cu    Cu3+1 0.485930 0.482620 0.315620 0.947141
O5    O     O_R   0.514620 0.743230 0.691640 -0.607629
O6    O     O_R   0.490860 0.713870 0.380230 -0.563792
O7    O     O_R   0.694190 0.514700 0.655710 -0.600471
O8    O     O_R   0.670430 0.485350 0.344300 -0.612444
C3    C     C_R   0.503996 0.798559 0.545798 0.833720
C4    C     C_R   0.737084 0.487437 0.496376 0.839628
C5    C     C_3   0.064056 0.347950 0.599111 0.437506
C6    C     C_3   0.921042 0.366505 0.614436 -0.180891
H1    H     H_    0.918900 0.434482 0.750312 0.125506
C7    C     C_3   0.090862 0.645242 0.593178 0.355957
C8    C     C_3   0.050759 0.427775 0.303983 0.071345
C9    C     C_3   0.118979 0.475992 0.500305 -0.085440
H2    H     H_    0.077800 0.526435 0.241015 0.174716
C10   C     C_3   0.873957 0.473804 0.487744 -0.201378
C11   C     C_3   0.947724 0.647355 0.550852 0.540230
C12   C     C_3   0.906197 0.394041 0.294332 0.490501
C13   C     C_2   0.478480 0.030585 0.431562 0.191677
C14   C     C_2   0.514724 0.967892 0.569212 0.173734
N1    N     N_2   0.464720 0.456420 0.038520 -0.094169
N2    N     N_2   0.535280 0.543580 0.961480 -0.104038
O9    O     O_3   0.129293 0.384204 0.769554 -0.803394
H3    H     H_    0.077194 0.338869 0.846359 0.300910
C15   C     C_3   0.846928 0.447588 0.129920 -0.408627
C16   C     C_3   0.736468 0.334161 0.018452 -0.684393
H4    H     H_    0.765201 0.225956 0.952748 0.243631
H5    H     H_    0.664555 0.296685 0.095239 0.294121
H6    H     H_    0.696275 0.386168 0.914585 0.266802
H7    H     H_    0.817943 0.561097 0.169406 0.234308
H8    H     H_    0.914945 0.462694 0.037502 0.143330
O10   O     O_3   0.157230 0.752040 0.512642 -0.720533
H9    H     H_    0.131144 0.855224 0.551362 0.370546
O11   O     O_3   0.930566 0.725838 0.412891 -0.760915
H10   H     H_    0.846812 0.755427 0.409988 0.324259
O12   O     O_3   0.414828 0.934670 0.275585 -0.757246
H11   H     H_    0.392516 0.997550 0.189974 0.325214
O13   O     O_3   0.568197 0.064057 0.730438 -0.813445
H12   H     H_    0.578050 0.003512 0.822457 0.325336
C17   C     C_3   0.401934 0.310117 0.930166 -0.094396
C18   C     C_3   0.286780 0.260186 0.000998 -0.782940
H13   H     H_    0.303210 0.202068 0.110397 0.266375
H14   H     H_    0.245412 0.366342 0.043192 0.322822
H15   H     H_    0.222495 0.177398 0.894495 0.214292
H16   H     H_    0.368824 0.324916 0.799765 0.253393
H17   H     H_    0.461459 0.219506 0.926860 0.209075
C19   C     C_3   0.596493 0.693253 0.070640 -0.055179
C20   C     C_3   0.710330 0.759502 0.000747 -0.861253
H18   H     H_    0.763955 0.666040 0.958678 0.257891
H19   H     H_    0.690624 0.815080 0.889919 0.280746
H20   H     H_    0.768102 0.850586 0.108837 0.221125
H21   H     H_    0.531540 0.778620 0.080625 0.224736
H22   H     H_    0.633850 0.679754 0.201022 0.205257
C21   C     C_3   0.081865 0.174244 0.514922 -0.203773
C22   C     C_3   0.205907 0.136997 0.461863 -0.808114
H23   H     H_    0.247060 0.209766 0.380433 0.270753
H24   H     H_    0.270885 0.140900 0.580662 0.221590
H25   H     H_    0.193321 0.016447 0.378314 0.260676
H26   H     H_    0.073339 0.108966 0.619378 0.180961
H27   H     H_    0.010589 0.115469 0.403075 0.259014
C23   C     C_3   0.824430 0.214609 0.605522 -0.313224
C24   C     C_3   0.862478 0.088381 0.697714 -0.876781
H28   H     H_    0.894572 0.996160 0.601801 0.286598
H29   H     H_    0.930740 0.136305 0.817156 0.230236
H30   H     H_    0.782288 0.024210 0.738252 0.273134
H31   H     H_    0.745363 0.254757 0.666043 0.241472
H32   H     H_    0.778735 0.151981 0.472612 0.252499
C25   C     C_3   0.136782 0.695941 0.802059 -0.280363
C26   C     C_3   0.156272 0.871236 0.884716 -0.853440
H33   H     H_    0.078000 0.928162 0.844449 0.284180
H34   H     H_    0.168569 0.891795 0.032302 0.265025
H35   H     H_    0.241818 0.925410 0.844538 0.250772
H36   H     H_    0.075349 0.637957 0.879977 0.180896
H37   H     H_    0.226159 0.662138 0.837883 0.271022
O14   O     O_3   0.902527 0.735193 0.698235 -0.762704
H38   H     H_    0.898944 0.675215 0.790225 0.310086
O15   O     O_3   0.092771 0.296014 0.210181 -0.762581
H39   H     H_    0.055040 0.276094 0.085503 0.306691
O16   O     O_3   0.866548 0.231842 0.263090 -0.759235
H40   H     H_    0.889564 0.172550 0.151039 0.344807

loop_
_geom_bond_atom_site_label_1
_geom_bond_atom_site_label_2
_geom_bond_distance
_ccdc_geom_bond_type
C5    C21   1.583743 S    
C8    C9    1.575324 S    
O14   H38   0.979592 S    
C19   H22   1.091100 S    
C14   O13   1.381203 S    
Cu1   Cu2   2.792200 S    
C18   H14   1.099305 S    
C19   C20   1.521509 S    
Cu1   O7    2.029381 S    
C8    H2    1.115473 S    
C15   H7    1.085560 S    
O4    C2    1.344911 A    
O7    C4    1.352070 A    
C11   O11   1.408285 S    
C17   H17   1.099098 S    
C23   H31   1.095317 S    
C22   H24   1.102673 S    
O5    C3    1.328383 A    
C20   H18   1.091295 S    
C15   C16   1.536331 S    
C6    H1    1.099636 S    
C18   H13   1.096524 S    
C23   H32   1.098155 S    
C12   O16   1.412125 S    
C21   H27   1.100971 S    
C7    C25   1.597130 S    
C25   H37   1.095712 S    
O3    Cu1   2.027601 S    
C8    O15   1.395712 S    
C5    O9    1.393332 S    
C18   H15   1.103730 S    
C5    C9    1.595818 S    
C20   H19   1.097249 S    
C25   C26   1.528215 S    
C23   C24   1.532903 S    
C16   H6    1.096217 S    
C1    C13   1.469854 S    
O3    C2    1.331974 A    
C24   H28   1.100583 S    
C13   C14   1.356293 D    
O16   H40   0.988458 S    
C17   H16   1.082231 S    
Cu1   N2    2.098072 S    
C7    C11   1.588218 S    
C21   C22   1.525988 S    
O1    C1    1.325679 A    
C16   H5    1.101209 S    
C22   H25   1.108621 S    
C26   H33   1.107566 S    
O9    H3    0.981651 S    
O15   H39   0.984178 S    
Cu2   O8    2.027600 S    
C6    C23   1.596895 S    
N2    C19   1.454248 S    
C26   H34   1.111576 S    
N1    C17   1.435760 S    
Cu2   O6    1.997213 S    
O11   H10   0.993584 S    
O8    C4    1.323146 A    
C21   H26   1.098517 S    
C25   H36   1.105248 S    
C10   C12   1.609366 S    
C3    C14   1.462651 S    
O12   H11   0.988083 S    
O13   H12   0.987948 S    
Cu1   O5    1.992624 S    
C17   C18   1.491709 S    
C6    C10   1.604019 S    
C11   O14   1.410889 S    
O1    Cu1   1.997213 S    
O2    Cu2   1.992625 S    
O6    C3    1.324363 A    
C13   O12   1.385606 S    
O4    Cu2   2.029381 S    
C19   H21   1.103743 S    
C2    C9    1.549080 S    
C16   H4    1.086225 S    
C4    C10   1.540906 S    
O2    C1    1.329950 A    
C7    O10   1.415089 S    
C12   C15   1.567731 S    
O10   H9    0.988203 S    
C24   H30   1.103329 S    
C8    C12   1.581067 S    
C7    C9    1.601721 S    
C22   H23   1.088303 S    
C26   H35   1.110880 S    
C15   H8    1.105553 S    
C24   H29   1.104526 S    
N1    N2    1.306780 D    
Cu2   N1    2.098072 S    
C10   C11   1.599601 S    
C5    C6    1.624347 S    
C20   H20   1.111820 S    
