data_mof_unit_57030.cif
_audit_creation_date              2012-12-10T16:46:46-0500
_audit_creation_method            fapswitch 2.2
_symmetry_space_group_name_H-M    P1
_symmetry_Int_Tables_number       1
_space_group_crystal_system       triclinic
_cell_length_a                    15.850463
_cell_length_b                    8.684618
_cell_length_c                    7.523024
_cell_angle_alpha                 102.680467
_cell_angle_beta                  96.095422
_cell_angle_gamma                 92.168895
_cell_volume                      1002.61494201

loop_
_atom_site_label
_atom_site_type_symbol
_atom_type_description
_atom_site_fract_x
_atom_site_fract_y
_atom_site_fract_z
_atom_type_partial_charge
C1    C     C_R   0.497566 0.200060 0.453584 0.898305
C2    C     C_3   0.962666 0.514958 0.698431 -0.441402
C3    C     C_3   0.915899 0.471676 0.500695 -0.149327
C4    C     C_3   0.948414 0.599901 0.402554 0.250495
C5    C     C_3   0.044154 0.585974 0.384106 -0.575659
C6    C     C_1   0.824196 0.482009 0.505548 0.189000
C7    C     C_1   0.174789 0.480393 0.490626 0.135930
C8    C     C_1   0.250572 0.491302 0.494349 -0.064238
C9    C     C_2   0.496495 0.032188 0.427590 -0.329930
C10   C     C_2   0.503895 0.967846 0.572409 -0.340573
C11   C     C_R   0.340407 0.499417 0.499127 0.820170
C12   C     C_R   0.502592 0.799952 0.546416 0.872545
C13   C     C_R   0.659546 0.499362 0.500724 0.808084
C14   C     C_3   0.060704 0.525887 0.695452 0.303694
C15   C     C_3   0.039194 0.299957 0.398691 0.225613
C16   C     C_3   0.939529 0.301077 0.404875 0.199661
C17   C     C_1   0.748910 0.491317 0.503562 -0.006956
C18   C     C_3   0.082721 0.468335 0.494931 -0.113703
Cu1   Cu    Cu3+1 0.509300 0.517380 0.684380 1.000362
Cu2   Cu    Cu3+1 0.490700 0.482620 0.315620 1.005941
H1    H     H_    0.489534 0.961140 0.287874 0.183378
H2    H     H_    0.510881 0.038899 0.712126 0.185355
H3    H     H_    0.941925 0.717890 0.493126 0.179123
N1    N     N_2   0.476670 0.456430 0.038530 -0.205829
N2    N     N_2   0.523330 0.543570 0.961470 -0.211567
O1    O     O_R   0.506050 0.286130 0.619770 -0.583002
O2    O     O_R   0.490330 0.256780 0.308370 -0.577885
O3    O     O_R   0.387300 0.514690 0.655770 -0.563670
O4    O     O_R   0.371580 0.485340 0.344370 -0.576537
O5    O     O_R   0.509670 0.743220 0.691630 -0.584553
O6    O     O_R   0.493950 0.713870 0.380230 -0.585596
O7    O     O_R   0.628420 0.514660 0.655630 -0.578721
O8    O     O_R   0.612700 0.485310 0.344230 -0.566645
H4    H     H_    0.942724 0.430216 0.777071 0.311076
H5    H     H_    0.081037 0.654238 0.737417 0.131494
H6    H     H_    0.943036 0.631752 0.769492 0.211010
S1    S     S_3+6 0.888022 0.608118 0.187507 0.022568
O9    O     O_2   0.936548 0.716284 0.098462 -0.220226
O10   O     O_2   0.873171 0.447506 0.060948 -0.306333
O11   O     O_3   0.793707 0.682967 0.226908 -0.526953
H7    H     H_    0.765208 0.686451 0.104225 0.375194
H8    H     H_    0.434557 0.375425 0.948376 0.243174
H9    H     H_    0.565453 0.624564 0.051620 0.230498
S2    S     S_3+6 0.118792 0.443689 0.870219 0.051502
O12   O     O_2   0.061265 0.337636 0.943672 -0.240610
O13   O     O_2   0.191643 0.351807 0.801184 -0.237913
O14   O     O_3   0.159108 0.596403 0.040774 -0.535657
H10   H     H_    0.201971 0.551071 0.116856 0.365266
H11   H     H_    0.047172 0.286444 0.251463 0.148627
S3    S     S_3+6 0.093200 0.128187 0.443115 0.109851
O15   O     O_2   0.063832 0.988792 0.288615 -0.214117
O16   O     O_2   0.187604 0.153542 0.445422 -0.279794
O17   O     O_3   0.073965 0.084473 0.642240 -0.388805
H12   H     H_    0.102152 0.985022 0.644951 0.357615
S4    S     S_3+6 0.887923 0.143089 0.487621 0.072914
O18   O     O_2   0.908084 0.985422 0.378878 -0.183798
O19   O     O_2   0.914405 0.152680 0.687586 -0.208123
O20   O     O_3   0.781748 0.151803 0.455639 -0.554866
H13   H     H_    0.758498 0.061366 0.499775 0.376761
H14   H     H_    0.910421 0.277532 0.260450 0.170681
H15   H     H_    0.077705 0.705348 0.431970 0.219752
H16   H     H_    0.053291 0.545527 0.238233 0.297347

loop_
_geom_bond_atom_site_label_1
_geom_bond_atom_site_label_2
_ccdc_geom_bond_type
C15   C18   S    
S3    O16   D    
S4    O18   D    
Cu1   O1    S    
N1    N2    D    
C13   O8    A    
S1    O9    D    
Cu2   O2    S    
N1    H8    S    
C9    C10   D    
C14   C18   S    
C13   O7    A    
O14   H10   S    
S2    O14   S    
C13   C17   S    
C7    C18   S    
C2    H4    S    
S4    O19   D    
C2    C3    S    
O20   H13   S    
C16   S4    S    
C5    H15   S    
C7    C8    T    
S1    O10   D    
O17   H12   S    
C10   H2    S    
Cu1   O3    S    
C9    H1    S    
C10   C12   S    
C11   O3    A    
C15   S3    S    
C8    C11   S    
C2    C14   S    
Cu1   O7    S    
N2    H9    S    
S2    O13   D    
C5    H16   S    
S3    O15   D    
S1    O11   S    
Cu2   O4    S    
C15   H11   S    
C12   O6    A    
C1    O1    A    
Cu1   N2    S    
S4    O20   S    
S3    O17   S    
Cu2   O8    S    
C15   C16   S    
Cu2   N1    S    
C1    C9    S    
C4    S1    S    
C11   O4    A    
C14   S2    S    
C16   H14   S    
C3    C6    S    
C2    H6    S    
C14   H5    S    
C1    O2    A    
C6    C17   T    
O11   H7    S    
C5    C18   S    
S2    O12   D    
C12   O5    A    
C4    H3    S    
Cu1   O5    S    
C3    C16   S    
C3    C4    S    
Cu1   Cu2   S    
C4    C5    S    
Cu2   O6    S    
