data_mof_unit_27998.cif
_audit_creation_date              2012-12-10T18:04:28-0500
_audit_creation_method            fapswitch 2.2
_symmetry_space_group_name_H-M    P1
_symmetry_Int_Tables_number       1
_space_group_crystal_system       triclinic
_cell_length_a                    19.696833
_cell_length_b                    17.490656
_cell_length_c                    12.59795
_cell_angle_alpha                 89.980126
_cell_angle_beta                  99.186296
_cell_angle_gamma                 89.825112
_cell_volume                      4284.44055588

loop_
_atom_site_label
_atom_site_type_symbol
_atom_type_description
_atom_site_fract_x
_atom_site_fract_y
_atom_site_fract_z
_atom_type_partial_charge
C1    C     C_R   0.410946 0.102732 0.442688 0.876846
C2    C     C_R   0.413769 0.893938 0.445610 0.924803
C3    C     C_R   0.910934 0.602723 0.442677 0.877068
C4    C     C_R   0.913769 0.393938 0.445611 0.924851
C5    C     C_R   0.729878 0.242785 0.545693 0.031801
C6    C     C_R   0.729501 0.759549 0.534899 0.025496
C7    C     C_R   0.229883 0.742778 0.545687 0.031776
C8    C     C_R   0.229492 0.259556 0.534841 0.025480
C9    C     C_R   0.757577 0.249999 0.656817 -0.096943
C10   C     C_R   0.707842 0.697308 0.593230 -0.155469
C11   C     C_R   0.257578 0.749999 0.656811 -0.096959
C12   C     C_R   0.207835 0.197304 0.593157 -0.155511
C13   C     C_R   0.326779 0.773375 0.685789 -0.054837
C14   C     C_R   0.224680 0.122201 0.564341 -0.060039
C15   C     C_R   0.826777 0.273379 0.685793 -0.054829
C16   C     C_R   0.724679 0.622199 0.564429 -0.060025
C17   C     C_R   0.366713 0.785157 0.603766 -0.077183
C18   C     C_R   0.268500 0.112099 0.486435 0.022767
C19   C     C_R   0.866709 0.285161 0.603770 -0.077204
C20   C     C_R   0.768489 0.612078 0.486513 0.022810
C21   C     C_R   0.672944 0.195970 0.516359 -0.226962
C22   C     C_R   0.691612 0.827017 0.528515 -0.190435
C23   C     C_R   0.172951 0.695960 0.516355 -0.226785
C24   C     C_R   0.191606 0.327025 0.528484 -0.190403
C25   C     C_R   0.659250 0.180034 0.701711 0.565783
C26   C     C_R   0.632832 0.784847 0.670952 0.626780
C27   C     C_R   0.159246 0.680045 0.701707 0.565760
C28   C     C_R   0.132831 0.284831 0.670916 0.626795
C29   C     C_R   0.368079 0.827710 0.415918 -0.062465
C30   C     C_R   0.365524 0.167773 0.408242 -0.057985
C31   C     C_R   0.868077 0.327710 0.415922 -0.062461
C32   C     C_R   0.865471 0.667732 0.408197 -0.057735
C33   C     C_R   0.643566 0.987117 0.135530 -0.239443
C34   C     C_R   0.143567 0.487132 0.135530 -0.239471
C35   C     C_R   0.379453 0.001393 0.761780 0.597645
C36   C     C_R   0.879454 0.501391 0.761780 0.597616
C37   C     C_R   0.353301 0.995977 0.856837 0.596876
C38   C     C_R   0.853303 0.495969 0.856835 0.596854
C39   C     C_R   0.590777 0.899018 0.557800 0.963935
C40   C     C_R   0.589194 0.102574 0.556883 0.923376
C41   C     C_R   0.090777 0.399018 0.557798 0.963887
C42   C     C_R   0.089194 0.602574 0.556883 0.923494
C43   C     C_R   0.398381 0.988063 0.954199 -0.225010
C44   C     C_R   0.898382 0.488043 0.954194 -0.224968
C45   C     C_R   0.471192 0.994548 0.954534 -0.118322
C46   C     C_R   0.971192 0.494532 0.954532 -0.118340
C47   C     C_R   0.494179 0.997145 0.854026 -0.012621
C48   C     C_R   0.994179 0.497139 0.854025 -0.012635
C49   C     C_R   0.522341 0.997484 0.048182 -0.005429
C50   C     C_R   0.022340 0.497467 0.048182 -0.005426
C51   C     C_R   0.593974 0.990114 0.040443 -0.130271
C52   C     C_R   0.093974 0.490114 0.040443 -0.130263
C53   C     C_R   0.613163 0.986512 0.938159 0.633976
C54   C     C_R   0.113164 0.486515 0.938160 0.633949
C55   C     C_R   0.564144 0.994315 0.847981 -0.031599
C56   C     C_R   0.064144 0.494314 0.847981 -0.031648
C57   C     C_R   0.505285 0.010779 0.149647 -0.079555
C58   C     C_R   0.005280 0.510750 0.149647 -0.079632
C59   C     C_R   0.619951 0.989158 0.233871 0.771686
C60   C     C_R   0.119953 0.489176 0.233871 0.771644
C61   C     C_R   0.717913 0.223499 0.733972 0.600222
C62   C     C_R   0.664094 0.713141 0.669730 0.569504
C63   C     C_R   0.217909 0.723510 0.733966 0.600202
C64   C     C_R   0.164087 0.213122 0.669663 0.569502
C65   C     C_R   0.639920 0.161528 0.592934 -0.313959
C66   C     C_R   0.640410 0.837987 0.590531 -0.294824
C67   C     C_R   0.139921 0.661528 0.592932 -0.313931
C68   C     C_R   0.140410 0.337985 0.590514 -0.294833
C69   C     C_R   0.344252 0.810322 0.307089 -0.117212
C70   C     C_R   0.392119 0.231133 0.357490 -0.158510
C71   C     C_R   0.844248 0.310322 0.307095 -0.117201
C72   C     C_R   0.892001 0.731075 0.357319 -0.158585
C73   C     C_R   0.275176 0.791758 0.277378 -0.255864
C74   C     C_R   0.368986 0.304094 0.376544 -0.231966
C75   C     C_R   0.775170 0.291767 0.277386 -0.255800
C76   C     C_R   0.868914 0.804046 0.376438 -0.232255
C77   C     C_R   0.234074 0.780015 0.355885 0.639516
C78   C     C_R   0.318763 0.314654 0.440350 0.682677
C79   C     C_R   0.734068 0.280029 0.355894 0.639503
C80   C     C_R   0.818756 0.814620 0.440357 0.682783
C81   C     C_R   0.264773 0.773010 0.465722 -0.023857
C82   C     C_R   0.283519 0.250919 0.475382 -0.037382
C83   C     C_R   0.764768 0.273019 0.465729 -0.023877
C84   C     C_R   0.783518 0.750895 0.475428 -0.037405
C85   C     C_R   0.333835 0.795070 0.495542 -0.000285
C86   C     C_R   0.305242 0.176274 0.454758 -0.027853
C87   C     C_R   0.833832 0.295074 0.495547 -0.000299
C88   C     C_R   0.805225 0.676245 0.454799 -0.027962
H1    H     H_    0.455461 0.030346 0.162320 0.188413
H2    H     H_    0.955449 0.530287 0.162324 0.188564
H3    H     H_    0.582755 0.996796 0.773349 0.227816
H4    H     H_    0.082756 0.496799 0.773349 0.227811
H5    H     H_    0.658285 0.178908 0.433765 0.258004
H6    H     H_    0.696792 0.868446 0.466851 0.282607
H7    H     H_    0.158298 0.678889 0.433762 0.258002
H8    H     H_    0.196784 0.368462 0.466829 0.282632
H9    H     H_    0.252896 0.786680 0.193297 0.210843
H10   H     H_    0.392677 0.353786 0.346432 0.206113
H11   H     H_    0.752889 0.286691 0.193305 0.210852
H12   H     H_    0.892568 0.853731 0.346241 0.206114
N1    N     N_R   0.552340 1.000000 0.237260 -0.165940
N2    N     N_R   0.052340 0.500000 0.237260 -0.165969
N3    N     N_R   0.448170 1.000000 0.762060 -0.198587
N4    N     N_R   0.948170 0.500000 0.762060 -0.198587
O1    O     O_R   0.448200 0.076800 0.373930 -0.576487
O2    O     O_R   0.448200 0.923200 0.373930 -0.576207
O3    O     O_R   0.948200 0.576800 0.373930 -0.576438
O4    O     O_R   0.948200 0.423200 0.373930 -0.576194
O5    O     O_R   0.414750 0.076790 0.542400 -0.581840
O6    O     O_R   0.414750 0.923210 0.542400 -0.605057
O7    O     O_R   0.914750 0.576790 0.542400 -0.581834
O8    O     O_R   0.914750 0.423210 0.542400 -0.605084
O9    O     O_R   0.585240 0.923200 0.457600 -0.560820
O10   O     O_R   0.585240 0.076800 0.457600 -0.586811
O11   O     O_R   0.085240 0.423200 0.457600 -0.560853
O12   O     O_R   0.085240 0.576800 0.457600 -0.586812
O13   O     O_R   0.551780 0.923190 0.626070 -0.620006
O14   O     O_R   0.551780 0.076810 0.626070 -0.588555
O15   O     O_R   0.051780 0.423190 0.626070 -0.620030
O16   O     O_R   0.051780 0.576810 0.626070 -0.588555
Zn1   Zn    Zn3+2 0.522330 1.000000 0.387520 1.069445
Zn2   Zn    Zn3+2 0.022330 0.500000 0.387520 1.069442
Zn3   Zn    Zn3+2 0.477660 0.000000 0.612480 1.017726
Zn4   Zn    Zn3+2 0.977660 0.500000 0.612480 1.017729
F1    F     F_    0.625210 0.151159 0.778268 -0.608469
F2    F     F_    0.591713 0.799598 0.745077 -0.626622
F3    F     F_    0.125200 0.651181 0.778264 -0.608466
F4    F     F_    0.091715 0.299569 0.745049 -0.626603
F5    F     F_    0.679019 0.975567 0.922422 -0.655992
F6    F     F_    0.179021 0.475579 0.922424 -0.655992
C89   C     C_2   0.719037 0.985205 0.136210 0.619374
H13   H     H_    0.742229 0.019796 0.080362 0.131911
O17   O     O_2   0.756499 0.946137 0.201560 -0.491376
C90   C     C_2   0.219038 0.485235 0.136209 0.619411
H14   H     H_    0.242224 0.519829 0.080358 0.131898
O18   O     O_2   0.256507 0.446177 0.201562 -0.491281
F7    F     F_    0.335826 0.002228 0.667600 -0.686221
F8    F     F_    0.835826 0.502226 0.667602 -0.686252
C91   C     C_2   0.368233 0.960175 0.047506 0.607023
H15   H     H_    0.398272 0.923513 0.105845 0.007584
O19   O     O_2   0.310003 0.977681 0.060245 -0.426008
C92   C     C_2   0.868235 0.460134 0.047489 0.607158
H16   H     H_    0.898274 0.423460 0.105809 0.007538
O20   O     O_2   0.810006 0.477637 0.060238 -0.426012
F9    F     F_    0.284100 0.990793 0.852220 -0.565869
F10   F     F_    0.784103 0.490788 0.852218 -0.565923
C93   C     C_2   0.360977 0.774616 0.799629 0.479738
H17   H     H_    0.403148 0.735658 0.826886 0.070040
O21   O     O_2   0.343779 0.821090 0.862518 -0.503188
C94   C     C_2   0.189619 0.055463 0.603937 0.567217
H18   H     H_    0.197312 0.042019 0.688940 0.208423
O22   O     O_2   0.150965 0.015794 0.541594 -0.537361
C95   C     C_2   0.860973 0.274636 0.799630 0.479740
H19   H     H_    0.903161 0.235707 0.826887 0.070030
O23   O     O_2   0.843753 0.321094 0.862516 -0.503189
C96   C     C_2   0.689600 0.555476 0.604026 0.567111
H20   H     H_    0.697299 0.542025 0.689029 0.208438
O24   O     O_2   0.650921 0.515829 0.541684 -0.537396
F11   F     F_    0.737356 0.233646 0.841204 -0.572673
F12   F     F_    0.649747 0.659974 0.741285 -0.604322
F13   F     F_    0.237344 0.733677 0.841196 -0.572674
F14   F     F_    0.149736 0.159941 0.741199 -0.604310
C97   C     C_2   0.390070 0.804486 0.225197 0.497866
H21   H     H_    0.367999 0.798169 0.141023 0.086500
O25   O     O_2   0.452492 0.801542 0.250626 -0.518065
C98   C     C_2   0.447823 0.225719 0.291646 0.523460
H22   H     H_    0.488339 0.268296 0.300592 0.100355
O26   O     O_2   0.446219 0.177445 0.221414 -0.518651
C99   C     C_2   0.890067 0.304470 0.225208 0.497851
H23   H     H_    0.867997 0.298138 0.141036 0.086498
O27   O     O_2   0.952489 0.301530 0.250638 -0.518081
C100  C     C_2   0.947521 0.725629 0.291130 0.523786
H24   H     H_    0.987906 0.768336 0.299570 0.100266
O28   O     O_2   0.945870 0.677186 0.221122 -0.518975
F15   F     F_    0.665057 0.276575 0.323116 -0.654265
F16   F     F_    0.809386 0.887225 0.473403 -0.617679
F17   F     F_    0.165063 0.776553 0.323103 -0.654245
F18   F     F_    0.309363 0.387257 0.473376 -0.617708
C101  C     C_2   0.442933 0.780303 0.630596 0.461023
H25   H     H_    0.468684 0.798017 0.708979 0.121311
O29   O     O_2   0.477182 0.754754 0.565962 -0.539794
C102  C     C_2   0.272960 0.035703 0.434738 0.507284
H26   H     H_    0.265353 0.983446 0.477585 0.125994
O30   O     O_2   0.283123 0.030597 0.341862 -0.543398
C103  C     C_2   0.942929 0.280310 0.630598 0.461031
H27   H     H_    0.968681 0.298049 0.708966 0.121294
O31   O     O_2   0.977174 0.254732 0.565978 -0.539750
C104  C     C_2   0.772935 0.535672 0.434834 0.507362
H28   H     H_    0.765282 0.483423 0.477679 0.126022
O32   O     O_2   0.783133 0.530545 0.341973 -0.543483
F19   F     F_    0.664852 0.985924 0.327378 -0.613316
F20   F     F_    0.164855 0.485957 0.327379 -0.613315

loop_
_geom_bond_atom_site_label_1
_geom_bond_atom_site_label_2
_ccdc_geom_bond_type
C40   O14   A    
C22   H6    S    
C99   H23   S    
C14   C18   A    
C59   F19   S    
C97   H21   S    
C48   C56   A    
C72   C76   A    
N3    Zn3   S    
N1    Zn1   S    
C28   C68   A    
C74   H10   S    
O15   Zn4   S    
C7    C11   A    
C4    O4    A    
C18   C86   A    
C75   C79   A    
O12   Zn2   S    
C2    C29   S    
C9    C61   A    
C72   C100  S    
C96   H20   S    
C97   O25   D    
O8    Zn4   S    
C35   N3    A    
C61   F11   S    
C12   C64   A    
C103  O31   D    
C34   C90   S    
C11   C63   A    
C48   N4    A    
C11   C13   A    
C49   C57   A    
C104  O32   D    
C26   F2    S    
C45   C47   A    
C23   C67   A    
C25   F1    S    
C70   C74   A    
C38   F10   S    
C55   H3    S    
C1    O5    A    
C102  H26   S    
O10   Zn1   S    
C27   F3    S    
C92   H16   S    
C22   C66   A    
C93   H17   S    
C3    O7    A    
C100  O28   D    
C49   C51   A    
C16   C96   S    
C50   C52   A    
C71   C99   S    
C43   C91   S    
C58   N2    A    
C45   C49   A    
C30   C86   A    
C29   C85   A    
C8    C12   A    
C81   C85   A    
C33   C89   S    
O13   Zn3   S    
C31   C71   A    
C4    O8    A    
C33   C59   A    
O11   Zn2   S    
C62   F12   S    
C34   C60   A    
C99   O27   D    
C47   N3    A    
C10   C62   A    
C41   O11   A    
C60   N2    A    
C30   C70   A    
C44   C46   A    
C38   C44   A    
C41   C68   S    
C29   C69   A    
C53   C55   A    
C54   F6    S    
C46   C48   A    
C93   O21   D    
C6    C84   A    
C80   C84   A    
C59   N1    A    
C79   F15   S    
C98   O26   D    
C31   C87   A    
C80   F16   S    
C32   C72   A    
O5    Zn3   S    
C90   O18   D    
C39   O9    A    
C82   C86   A    
C2    O2    A    
C77   F17   S    
C33   C51   A    
C104  H28   S    
C51   C53   A    
C5    C21   A    
C26   C66   A    
C37   C43   A    
C15   C19   A    
C5    C83   A    
C5    C9    A    
O6    Zn3   S    
C20   C104  S    
C58   H2    S    
C78   C82   A    
C77   C81   A    
C16   C20   A    
C14   C94   S    
C24   H8    S    
C75   H11   S    
C50   C58   A    
O1    Zn1   S    
C25   C61   A    
C41   O15   A    
C69   C73   A    
C43   C45   A    
C95   O23   D    
C57   H1    S    
C28   C64   A    
C64   F14   S    
C7    C81   A    
C12   C14   A    
C73   H9    S    
C40   C65   S    
C69   C97   S    
C98   H22   S    
C39   C66   S    
C17   C85   A    
C60   F20   S    
C53   F5    S    
C13   C93   S    
C89   H13   S    
C92   O20   D    
C100  H24   S    
C35   C37   A    
C47   C55   A    
C42   O12   A    
C63   F13   S    
C2    O6    A    
C73   C77   A    
C6    C22   A    
C21   C65   A    
O7    Zn4   S    
C78   F18   S    
C76   C80   A    
O4    Zn2   S    
C89   O17   D    
C83   C87   A    
C6    C10   A    
C91   H15   S    
C54   C56   A    
C90   H14   S    
N4    Zn4   S    
C76   H12   S    
C57   N1    A    
C46   C50   A    
C34   C52   A    
C13   C17   A    
C36   N4    A    
C3    O3    A    
C70   C98   S    
C9    C15   A    
C19   C87   A    
C39   O13   A    
C35   F7    S    
C36   C38   A    
C71   C75   A    
C91   O19   D    
C17   C101  S    
C103  H27   S    
C42   C67   S    
C84   C88   A    
C21   H5    S    
C7    C23   A    
C20   C88   A    
O2    Zn1   S    
C96   O24   D    
C1    C30   S    
C8    C24   A    
C23   H7    S    
C52   C54   A    
C94   O22   D    
O14   Zn3   S    
C26   C62   A    
C3    C32   S    
C102  O30   D    
C15   C95   S    
C4    C31   S    
C27   C67   A    
C24   C68   A    
C101  H25   S    
C79   C83   A    
C28   F4    S    
C8    C82   A    
O9    Zn1   S    
C44   C92   S    
C74   C78   A    
C42   O16   A    
C25   C65   A    
C18   C102  S    
C94   H18   S    
C27   C63   A    
C10   C16   A    
O3    Zn2   S    
C37   F9    S    
C95   H19   S    
N2    Zn2   S    
C56   H4    S    
C36   F8    S    
C19   C103  S    
O16   Zn4   S    
C40   O10   A    
C1    O1    A    
C101  O29   D    
C32   C88   A    
