data_mof_unit_50363.cif
_audit_creation_date              2012-12-11T15:10:46-0500
_audit_creation_method            fapswitch 2.2
_symmetry_space_group_name_H-M    P1
_symmetry_Int_Tables_number       1
_space_group_crystal_system       triclinic
_cell_length_a                    21.194152
_cell_length_b                    7.236567
_cell_length_c                    18.245814
_cell_angle_alpha                 89.999859
_cell_angle_beta                  93.301576
_cell_angle_gamma                 89.999897
_cell_volume                      2793.76870882

loop_
_atom_site_label
_atom_site_type_symbol
_atom_type_description
_atom_site_fract_x
_atom_site_fract_y
_atom_site_fract_z
_atom_type_partial_charge
O1    O     O_R   0.448880 0.506250 0.415280 -0.529045
O2    O     O_R   0.551120 0.006250 0.584720 -0.529045
O3    O     O_R   0.434830 0.174000 0.557310 -0.521069
O4    O     O_R   0.565170 0.674000 0.442690 -0.521069
C1    C     C_R   0.416979 0.344591 0.579654 0.696856
C2    C     C_R   0.583021 0.844591 0.420346 0.696857
O5    O     O_R   0.441680 0.176440 0.414130 -0.530729
O6    O     O_R   0.558320 0.676440 0.585870 -0.530729
O7    O     O_R   0.558020 0.007570 0.440520 -0.519683
O8    O     O_R   0.441980 0.507570 0.559480 -0.519682
C3    C     C_R   0.428210 0.344772 0.388257 0.679403
C4    C     C_R   0.571790 0.844772 0.611742 0.679402
O9    O     O_3   0.538160 0.339670 0.508820 -0.364699
O10   O     O_3   0.461840 0.839670 0.491180 -0.364699
V1    V     V_3+5 0.492920 0.064260 0.498360 1.426367
V2    V     V_3+5 0.507080 0.564260 0.501640 1.426367
C5    C     C_R   0.876347 0.938567 0.687739 -0.247797
C6    C     C_R   0.123652 0.438541 0.312262 -0.247788
H1    H     H_    0.796870 0.953026 0.570869 0.122076
H2    H     H_    0.203128 0.452990 0.429132 0.122076
H3    H     H_    0.898741 0.949153 0.635951 0.136288
H4    H     H_    0.101258 0.449113 0.364049 0.136295
C7    C     C_R   0.886343 0.939081 0.820501 -0.189179
C8    C     C_R   0.113656 0.439077 0.179499 -0.189187
C9    C     C_R   0.582585 0.797064 0.745022 -0.161255
C10   C     C_R   0.417417 0.297081 0.254976 -0.161257
C11   C     C_R   0.618236 0.772398 0.810557 -0.122450
C12   C     C_R   0.381766 0.272424 0.189441 -0.122450
C13   C     C_R   0.683103 0.804813 0.814334 -0.079608
C14   C     C_R   0.316898 0.304833 0.185665 -0.079608
C15   C     C_R   0.713971 0.872791 0.753280 0.107644
C16   C     C_R   0.286029 0.372797 0.246719 0.107645
C17   C     C_R   0.677710 0.884589 0.684574 0.060682
C18   C     C_R   0.322290 0.384586 0.315426 0.060682
C19   C     C_R   0.780730 0.910964 0.756406 0.008193
C20   C     C_R   0.219270 0.410964 0.243595 0.008194
C21   C     C_R   0.810423 0.927536 0.688799 0.037720
C22   C     C_R   0.189577 0.427520 0.311201 0.037715
C23   C     C_R   0.774280 0.934772 0.622195 -0.148636
C24   C     C_R   0.225719 0.434748 0.377806 -0.148636
C25   C     C_R   0.708872 0.920020 0.620286 -0.182830
C26   C     C_R   0.291127 0.420003 0.379715 -0.182828
C27   C     C_R   0.819645 0.935793 0.822817 0.246501
C28   C     C_R   0.180354 0.435799 0.177184 0.246505
C29   C     C_R   0.914388 0.934131 0.752823 0.339910
C30   C     C_R   0.085611 0.434110 0.247178 0.339906
C31   C     C_R   0.611473 0.849378 0.681246 -0.085728
C32   C     C_R   0.388527 0.349381 0.318753 -0.085727
H5    H     H_    0.532437 0.766737 0.743216 0.114758
H6    H     H_    0.467564 0.266760 0.256782 0.114758
H7    H     H_    0.708682 0.763251 0.864271 0.184112
H8    H     H_    0.291320 0.263278 0.135726 0.184111
H9    H     H_    0.595721 0.721696 0.858396 0.138233
H10   H     H_    0.404282 0.221732 0.141601 0.138233
H11   H     H_    0.683134 0.928174 0.567371 0.105230
H12   H     H_    0.316865 0.428151 0.432630 0.105228
C33   C     C_1   0.864546 0.938688 0.132071 -0.153880
C34   C     C_1   0.135454 0.438688 0.867928 -0.153886
C35   C     C_1   0.821714 0.924510 0.175842 0.015049
C36   C     C_1   0.178286 0.424511 0.824158 0.015052
C37   C     C_1   0.771232 0.905491 0.228065 0.008069
C38   C     C_1   0.228767 0.405491 0.771935 0.008066
C39   C     C_1   0.728707 0.888966 0.272125 0.004775
C40   C     C_1   0.271293 0.388966 0.727875 0.004773
C41   C     C_1   0.678164 0.869948 0.324289 0.002297
C42   C     C_1   0.321836 0.369948 0.675711 0.002297
C43   C     C_1   0.635308 0.855951 0.368053 -0.203441
C44   C     C_1   0.364692 0.355951 0.631947 -0.203441
O11   O     O_R   0.058070 0.289240 0.940580 -0.521546
O12   O     O_R   0.941930 0.789240 0.059420 -0.521548
O13   O     O_R   0.058330 0.616740 0.085880 -0.519276
O14   O     O_R   0.941670 0.116740 0.914120 -0.519277
C45   C     C_R   0.072054 0.448550 0.111562 0.833618
C46   C     C_R   0.927946 0.948550 0.888438 0.833630
O15   O     O_R   0.065180 0.619040 0.942700 -0.523142
O16   O     O_R   0.934820 0.119040 0.057300 -0.523141
O17   O     O_R   0.948870 0.787780 0.915270 -0.544975
O18   O     O_R   0.051130 0.287780 0.084730 -0.544980
C47   C     C_R   0.083174 0.450286 0.920188 0.730129
C48   C     C_R   0.916826 0.950286 0.079812 0.730124
O19   O     O_3   0.961870 0.453310 0.991210 -0.371254
O20   O     O_3   0.038130 0.953310 0.008790 -0.371256
V3    V     V_3+5 0.007070 0.728770 0.001630 1.505631
V4    V     V_3+5 0.992930 0.228770 0.998370 1.505631
O21   O     O_3   0.979339 0.947640 0.750541 -0.556681
C49   C     C_3   0.003601 0.773637 0.731451 0.088883
H13   H     H_    0.986704 0.734002 0.674693 0.122500
H14   H     H_    0.989776 0.664709 0.770691 0.116033
C50   C     C_3   0.075361 0.783821 0.734329 -0.690858
H15   H     H_    0.093862 0.818127 0.790897 0.223711
H16   H     H_    0.094998 0.648552 0.718159 0.176266
H17   H     H_    0.090800 0.891664 0.695923 0.224381
O22   O     O_3   0.020661 0.447607 0.249461 -0.556680
C51   C     C_3   0.996402 0.273586 0.268533 0.088889
H18   H     H_    0.013313 0.233893 0.325280 0.122495
H19   H     H_    0.010217 0.164698 0.229270 0.116039
C52   C     C_3   0.924643 0.283774 0.265681 -0.690865
H20   H     H_    0.906126 0.318147 0.209126 0.223718
H21   H     H_    0.905010 0.148485 0.281833 0.176266
H22   H     H_    0.909216 0.391570 0.304115 0.224377
Cl1   Cl    Cl    0.788335 0.002383 0.906886 -0.687553
Cl2   Cl    Cl    0.211664 0.502408 0.093116 -0.687552

loop_
_geom_bond_atom_site_label_1
_geom_bond_atom_site_label_2
_ccdc_geom_bond_type
C42   C44   T    
C39   C41   S    
O22   C51   S    
C7    C29   A    
C11   C13   A    
O1    C3    A    
O2    C4    A    
O16   V4    S    
C2    O7    A    
C52   H20   S    
C23   C25   A    
O21   C49   S    
O5    C3    A    
C16   C20   A    
C19   C21   A    
C5    C29   A    
C10   H6    S    
H2    C24   S    
C49   H14   S    
C8    C45   S    
C33   C35   T    
O17   V3    S    
C34   C36   T    
C7    C27   A    
C36   C38   S    
C37   C39   T    
C25   H11   S    
C38   C40   T    
C26   H12   S    
C41   C43   T    
C46   O17   A    
C18   C26   A    
C45   O18   A    
C15   C17   A    
C50   H16   S    
C19   C27   A    
C9    C31   A    
C10   C32   A    
O5    V1    S    
O6    V2    S    
C33   C48   S    
C3    C32   S    
C4    C31   S    
C6    C30   A    
C52   H21   S    
C1    C44   S    
O13   V3    S    
C35   C37   S    
O12   C48   A    
C14   C16   A    
O14   C46   A    
O13   C45   A    
C12   H10   S    
C49   H13   S    
C51   C52   S    
C5    H3    S    
C40   C42   S    
O4    V2    S    
C29   O21   S    
C27   Cl1   S    
O12   V3    S    
O6    C4    A    
O1    V2    S    
C5    C21   A    
C50   H17   S    
C51   H19   S    
O2    V1    S    
O14   V4    S    
H1    C23   S    
C34   C47   S    
O4    C2    A    
C2    C43   S    
C17   C31   A    
C15   C19   A    
C20   C28   A    
C18   C32   A    
C7    C46   S    
C20   C22   A    
O19   V4    S    
O3    V1    S    
C13   H7    S    
C14   H8    S    
C28   Cl2   S    
C52   H22   S    
C6    H4    S    
O16   C48   A    
O3    C1    A    
C49   C50   S    
C11   H9    S    
C9    C11   A    
C10   C12   A    
C8    C30   A    
C12   C14   A    
C6    C22   A    
C17   C25   A    
C1    O8    A    
C13   C15   A    
O11   V4    S    
O8    V2    S    
C22   C24   A    
O15   V3    S    
C30   O22   S    
C8    C28   A    
C24   C26   A    
O7    V1    S    
C51   H18   S    
C9    H5    S    
O11   C47   A    
O18   V4    S    
C21   C23   A    
O20   V3    S    
O9    V2    S    
O10   V1    S    
C50   H15   S    
O15   C47   A    
C16   C18   A    
