data_mof_unit_18745.cif
_audit_creation_date              2012-12-10T19:53:50-0500
_audit_creation_method            fapswitch 2.2
_symmetry_space_group_name_H-M    P1
_symmetry_Int_Tables_number       1
_space_group_crystal_system       triclinic
_cell_length_a                    18.25431
_cell_length_b                    18.254311
_cell_length_c                    47.110618
_cell_angle_alpha                 89.999985
_cell_angle_beta                  89.999986
_cell_angle_gamma                 90.0
_cell_volume                      15698.1931496

loop_
_atom_site_label
_atom_site_type_symbol
_atom_type_description
_atom_site_fract_x
_atom_site_fract_y
_atom_site_fract_z
_atom_type_partial_charge
C1    C     C_R   1.000000 0.858988 0.000000 0.913012
C2    C     C_R   0.141012 0.000000 1.000000 0.913012
C3    C     C_R   1.000000 0.141012 1.000000 0.913012
C4    C     C_R   0.858988 0.000000 0.000000 0.913012
C5    C     C_R   0.500000 0.358988 0.500000 0.913012
C6    C     C_R   0.641012 0.500000 0.500000 0.913012
C7    C     C_R   0.500000 0.641012 0.500000 0.913012
C8    C     C_R   0.358988 0.500000 0.500000 0.913013
C9    C     C_R   0.448326 0.043454 0.869029 0.345281
C10   C     C_R   0.956546 0.448326 0.869029 0.345282
C11   C     C_R   0.551674 0.956546 0.869029 0.345281
C12   C     C_R   0.043454 0.551674 0.869029 0.345282
C13   C     C_R   0.448326 0.956546 0.130970 0.345281
C14   C     C_R   0.956546 0.551674 0.130970 0.345281
C15   C     C_R   0.551674 0.043454 0.130970 0.345282
C16   C     C_R   0.043454 0.448326 0.130970 0.345281
C17   C     C_R   0.948326 0.543454 0.369030 0.345282
C18   C     C_R   0.456546 0.948326 0.369030 0.345281
C19   C     C_R   0.051674 0.456546 0.369030 0.345281
C20   C     C_R   0.543454 0.051674 0.369030 0.345281
C21   C     C_R   0.948326 0.456546 0.630970 0.345281
C22   C     C_R   0.456546 0.051674 0.630970 0.345281
C23   C     C_R   0.051674 0.543454 0.630970 0.345282
C24   C     C_R   0.543454 0.948326 0.630970 0.345281
C25   C     C_R   0.446399 0.040100 0.898963 0.273010
C26   C     C_R   0.959901 0.446399 0.898963 0.273010
C27   C     C_R   0.553601 0.959901 0.898963 0.273010
C28   C     C_R   0.040099 0.553601 0.898963 0.273010
C29   C     C_R   0.446399 0.959901 0.101037 0.273011
C30   C     C_R   0.959900 0.553601 0.101037 0.273010
C31   C     C_R   0.553601 0.040099 0.101037 0.273009
C32   C     C_R   0.040099 0.446399 0.101037 0.273010
C33   C     C_R   0.946399 0.540099 0.398963 0.273010
C34   C     C_R   0.459901 0.946399 0.398963 0.273010
C35   C     C_R   0.053601 0.459901 0.398963 0.273010
C36   C     C_R   0.540099 0.053601 0.398963 0.273010
C37   C     C_R   0.946399 0.459900 0.601037 0.273010
C38   C     C_R   0.459900 0.053601 0.601037 0.273011
C39   C     C_R   0.053601 0.540099 0.601037 0.273009
C40   C     C_R   0.540099 0.946399 0.601037 0.273010
C41   C     C_R   0.500000 0.000000 0.913540 -0.248536
C42   C     C_R   0.000000 0.500000 0.913540 -0.248535
C43   C     C_R   0.500000 1.000000 0.086460 -0.248535
C44   C     C_R   1.000000 0.500000 0.086460 -0.248535
C45   C     C_R   1.000000 0.500000 0.413540 -0.248535
C46   C     C_R   0.500000 1.000000 0.413540 -0.248535
C47   C     C_R   0.000000 0.500000 0.586460 -0.248535
C48   C     C_R   0.500000 0.000000 0.586460 -0.248536
C49   C     C_R   0.500000 0.000000 0.854188 -0.081948
C50   C     C_R   0.000000 0.500000 0.854188 -0.081948
C51   C     C_R   0.500000 1.000000 0.145812 -0.081948
C52   C     C_R   1.000000 0.500000 0.145812 -0.081948
C53   C     C_R   1.000000 0.500000 0.354188 -0.081948
C54   C     C_R   0.500000 1.000000 0.354188 -0.081948
C55   C     C_R   0.000000 0.500000 0.645812 -0.081949
C56   C     C_R   0.500000 1.000000 0.645812 -0.081948
C57   C     C_1   0.782508 0.000000 0.000000 -0.140849
C58   C     C_1   1.000000 0.782508 0.000000 -0.140849
C59   C     C_1   0.217492 0.000000 1.000000 -0.140849
C60   C     C_1   0.000000 0.217492 1.000000 -0.140849
C61   C     C_1   0.282508 0.500000 0.500000 -0.140849
C62   C     C_1   0.500000 0.282508 0.500000 -0.140849
C63   C     C_1   0.717492 0.500000 0.500000 -0.140849
C64   C     C_1   0.500000 0.717492 0.500000 -0.140849
C65   C     C_1   0.717707 0.000000 0.000000 -0.121784
C66   C     C_1   1.000000 0.717707 0.000000 -0.121784
C67   C     C_1   0.282293 0.000000 1.000000 -0.121784
C68   C     C_1   1.000000 0.282293 1.000000 -0.121784
C69   C     C_1   0.217707 0.500000 0.500000 -0.121784
C70   C     C_1   0.500000 0.217707 0.500000 -0.121784
C71   C     C_1   0.782293 0.500000 0.500000 -0.121784
C72   C     C_1   0.500000 0.782293 0.500000 -0.121784
C73   C     C_R   0.500000 0.000000 0.944579 1.052200
C74   C     C_R   0.000000 0.500000 0.944579 1.052200
C75   C     C_R   0.500000 0.000000 0.055421 1.052198
C76   C     C_R   1.000000 0.500000 0.055421 1.052198
C77   C     C_R   0.000000 0.500000 0.444579 1.052200
C78   C     C_R   0.500000 0.000000 0.444579 1.052200
C79   C     C_R   0.000000 0.500000 0.555421 1.052198
C80   C     C_R   0.500000 0.000000 0.555421 1.052199
C81   C     C_R   0.641234 0.000000 0.000000 0.934687
C82   C     C_R   1.000000 0.641234 0.000000 0.934688
C83   C     C_R   0.358766 0.000000 1.000000 0.934688
C84   C     C_R   0.000000 0.358766 1.000000 0.934688
C85   C     C_R   0.141234 0.500000 0.500000 0.934688
C86   C     C_R   0.500000 0.141234 0.500000 0.934688
C87   C     C_R   0.858766 0.500000 0.500000 0.934688
C88   C     C_R   0.500000 0.858766 0.500000 0.934688
C89   C     C_R   0.957368 0.450577 0.190263 0.728710
C90   C     C_R   0.549423 0.957368 0.190263 0.728710
C91   C     C_R   0.042632 0.549423 0.190263 0.728710
C92   C     C_R   0.450577 0.042632 0.190263 0.728710
C93   C     C_R   0.957368 0.549423 0.809737 0.728709
C94   C     C_R   0.549423 0.042632 0.809737 0.728710
C95   C     C_R   0.042632 0.450577 0.809737 0.728710
C96   C     C_R   0.450577 0.957368 0.809737 0.728711
C97   C     C_R   0.457368 0.950577 0.690263 0.728709
C98   C     C_R   0.049423 0.457368 0.690263 0.728710
C99   C     C_R   0.542632 0.049423 0.690263 0.728710
C100  C     C_R   0.950577 0.542632 0.690263 0.728710
C101  C     C_R   0.457368 0.049423 0.309737 0.728708
C102  C     C_R   0.049423 0.542632 0.309737 0.728709
C103  C     C_R   0.542632 0.950577 0.309737 0.728710
C104  C     C_R   0.950577 0.457368 0.309737 0.728710
C105  C     C_R   0.048809 0.546513 0.220061 -0.183984
C106  C     C_R   0.453487 0.048809 0.220061 -0.183984
C107  C     C_R   0.951191 0.453487 0.220061 -0.183984
C108  C     C_R   0.546513 0.951191 0.220061 -0.183984
C109  C     C_R   0.048809 0.453487 0.779939 -0.183984
C110  C     C_R   0.453487 0.951191 0.779939 -0.183985
C111  C     C_R   0.951191 0.546513 0.779939 -0.183984
C112  C     C_R   0.546513 0.048809 0.779939 -0.183984
C113  C     C_R   0.548809 0.046513 0.720061 -0.183984
C114  C     C_R   0.953487 0.548809 0.720061 -0.183984
C115  C     C_R   0.451191 0.953487 0.720061 -0.183984
C116  C     C_R   0.046513 0.451191 0.720061 -0.183984
C117  C     C_R   0.548809 0.953487 0.279939 -0.183984
C118  C     C_R   0.953487 0.451191 0.279939 -0.183984
C119  C     C_R   0.451191 0.046513 0.279939 -0.183984
C120  C     C_R   0.046512 0.548809 0.279939 -0.183984
C121  C     C_R   1.000000 0.500000 0.235035 -0.058463
C122  C     C_R   0.500000 1.000000 0.235035 -0.058462
C123  C     C_R   0.000000 0.500000 0.764965 -0.058463
C124  C     C_R   0.500000 0.000000 0.764965 -0.058462
C125  C     C_R   0.500000 0.000000 0.735035 -0.058463
C126  C     C_R   0.000000 0.500000 0.735035 -0.058462
C127  C     C_R   0.500000 1.000000 0.264965 -0.058463
C128  C     C_R   1.000000 0.500000 0.264965 -0.058462
C129  C     C_R   0.099657 0.590372 0.235267 0.270981
C130  C     C_R   0.409628 0.099657 0.235267 0.270981
C131  C     C_R   0.900343 0.409628 0.235267 0.270980
C132  C     C_R   0.590372 0.900342 0.235267 0.270981
C133  C     C_R   0.099657 0.409628 0.764733 0.270980
C134  C     C_R   0.409628 0.900343 0.764733 0.270981
C135  C     C_R   0.900343 0.590371 0.764733 0.270980
C136  C     C_R   0.590372 0.099657 0.764733 0.270981
C137  C     C_R   0.599657 0.090371 0.735267 0.270982
C138  C     C_R   0.909628 0.599657 0.735267 0.270981
C139  C     C_R   0.400342 0.909628 0.735267 0.270981
C140  C     C_R   0.090372 0.400342 0.735267 0.270980
C141  C     C_R   0.599657 0.909628 0.264733 0.270981
C142  C     C_R   0.909628 0.400342 0.264733 0.270982
C143  C     C_R   0.400342 0.090371 0.264733 0.270981
C144  C     C_R   0.090371 0.599658 0.264733 0.270981
N1    N     N_R   1.000000 0.500000 0.176232 -0.315022
N2    N     N_R   0.500000 1.000000 0.176232 -0.315023
N3    N     N_R   0.000000 0.500000 0.823768 -0.315022
N4    N     N_R   0.500000 0.000000 0.823768 -0.315022
N5    N     N_R   0.500000 1.000000 0.676232 -0.315022
N6    N     N_R   0.000000 0.500000 0.676232 -0.315022
N7    N     N_R   0.500000 1.000000 0.323768 -0.315022
N8    N     N_R   1.000000 0.500000 0.323768 -0.315022
O1    O     O_R   0.999960 0.892740 0.023680 -0.606276
O2    O     O_R   0.107260 0.999960 0.023680 -0.606276
O3    O     O_R   0.000040 0.107260 0.023680 -0.606276
O4    O     O_R   0.892740 0.000040 0.023680 -0.606276
O5    O     O_R   0.999960 0.107260 0.976320 -0.606275
O6    O     O_R   0.107260 0.000040 0.976320 -0.606275
O7    O     O_R   0.000040 0.892740 0.976320 -0.606275
O8    O     O_R   0.892740 0.999960 0.976320 -0.606275
O9    O     O_R   0.499960 0.392740 0.523680 -0.606276
O10   O     O_R   0.607260 0.499960 0.523680 -0.606276
O11   O     O_R   0.500040 0.607260 0.523680 -0.606276
O12   O     O_R   0.392740 0.500040 0.523680 -0.606276
O13   O     O_R   0.499960 0.607260 0.476320 -0.606275
O14   O     O_R   0.607260 0.500040 0.476320 -0.606275
O15   O     O_R   0.500040 0.392740 0.476320 -0.606275
O16   O     O_R   0.392740 0.499960 0.476320 -0.606275
O17   O     O_R   0.500020 0.060670 0.958090 -0.588546
O18   O     O_R   0.939330 0.500020 0.958090 -0.588546
O19   O     O_R   0.499980 0.939330 0.958090 -0.588546
O20   O     O_R   0.060670 0.499980 0.958090 -0.588546
O21   O     O_R   0.500020 0.939330 0.041910 -0.588546
O22   O     O_R   0.939330 0.499980 0.041910 -0.588546
O23   O     O_R   0.499980 0.060670 0.041910 -0.588547
O24   O     O_R   0.060670 0.500020 0.041910 -0.588547
O25   O     O_R   0.000020 0.560670 0.458090 -0.588546
O26   O     O_R   0.439330 0.000020 0.458090 -0.588546
O27   O     O_R   0.999980 0.439330 0.458090 -0.588546
O28   O     O_R   0.560670 0.999980 0.458090 -0.588546
O29   O     O_R   0.000020 0.439330 0.541910 -0.588546
O30   O     O_R   0.439330 0.999980 0.541910 -0.588546
O31   O     O_R   0.999980 0.560670 0.541910 -0.588547
O32   O     O_R   0.560670 0.000020 0.541910 -0.588547
O33   O     O_R   0.607320 0.060650 0.000010 -0.610403
O34   O     O_R   0.939350 0.607320 0.000010 -0.610403
O35   O     O_R   0.392680 0.939350 0.000010 -0.610403
O36   O     O_R   0.060650 0.392680 0.000010 -0.610403
O37   O     O_R   0.607320 0.939350 0.999990 -0.610403
O38   O     O_R   0.939350 0.392680 0.999990 -0.610403
O39   O     O_R   0.392680 0.060650 0.999990 -0.610403
O40   O     O_R   0.060650 0.607320 0.999990 -0.610404
O41   O     O_R   0.107320 0.560650 0.500010 -0.610404
O42   O     O_R   0.439350 0.107320 0.500010 -0.610403
O43   O     O_R   0.892680 0.439350 0.500010 -0.610403
O44   O     O_R   0.560650 0.892680 0.500010 -0.610403
O45   O     O_R   0.107320 0.439350 0.499990 -0.610403
O46   O     O_R   0.439350 0.892680 0.499990 -0.610403
O47   O     O_R   0.892680 0.560650 0.499990 -0.610403
O48   O     O_R   0.560650 0.107320 0.499990 -0.610404
O49   O     O_2   0.922939 0.398083 0.175220 -0.424037
O50   O     O_2   0.601917 0.922939 0.175220 -0.424038
O51   O     O_2   0.077060 0.601917 0.175220 -0.424038
O52   O     O_2   0.398083 0.077061 0.175220 -0.424037
O53   O     O_2   0.922939 0.601917 0.824780 -0.424037
O54   O     O_2   0.601917 0.077061 0.824780 -0.424037
O55   O     O_2   0.077061 0.398083 0.824780 -0.424038
O56   O     O_2   0.398083 0.922940 0.824780 -0.424038
O57   O     O_2   0.422939 0.898083 0.675220 -0.424037
O58   O     O_2   0.101917 0.422939 0.675220 -0.424038
O59   O     O_2   0.577060 0.101917 0.675220 -0.424038
O60   O     O_2   0.898083 0.577060 0.675220 -0.424037
O61   O     O_2   0.422939 0.101917 0.324780 -0.424037
O62   O     O_2   0.101917 0.577061 0.324780 -0.424037
O63   O     O_2   0.577061 0.898083 0.324780 -0.424038
O64   O     O_2   0.898083 0.422939 0.324780 -0.424038
Zn1   Zn    Zn3+2 0.000000 0.000000 0.031620 1.076614
Zn2   Zn    Zn3+2 0.000000 0.000000 0.968380 1.076615
Zn3   Zn    Zn3+2 0.500000 0.500000 0.531620 1.076614
Zn4   Zn    Zn3+2 0.500000 0.500000 0.468380 1.076615
Zn5   Zn    Zn3+2 0.500000 0.080980 0.000000 1.106295
Zn6   Zn    Zn3+2 0.919020 0.500000 0.000000 1.106295
Zn7   Zn    Zn3+2 0.500000 0.919020 0.000000 1.106295
Zn8   Zn    Zn3+2 0.080980 0.500000 0.000000 1.106295
Zn9   Zn    Zn3+2 0.000000 0.580980 0.500000 1.106295
Zn10  Zn    Zn3+2 0.419020 0.000000 0.500000 1.106295
Zn11  Zn    Zn3+2 0.000000 0.419020 0.500000 1.106295
Zn12  Zn    Zn3+2 0.580980 0.000000 0.500000 1.106295
S1    S     S_3+6 0.183058 0.620646 0.219142 0.178620
O65   O     O_2   0.170931 0.693164 0.204784 -0.124387
O66   O     O_2   0.242769 0.629100 0.240856 -0.193238
O67   O     O_3   0.211290 0.559416 0.194795 -0.441222
H1    H     H_    0.220255 0.513823 0.205654 0.381584
S2    S     S_3+6 0.379354 0.183058 0.219142 0.178620
O68   O     O_2   0.306836 0.170931 0.204784 -0.124387
O69   O     O_2   0.370900 0.242769 0.240856 -0.193238
O70   O     O_3   0.440584 0.211290 0.194795 -0.441222
H2    H     H_    0.486177 0.220255 0.205654 0.381584
S3    S     S_3+6 0.816942 0.379354 0.219142 0.178620
O71   O     O_2   0.829069 0.306836 0.204784 -0.124387
O72   O     O_2   0.757231 0.370900 0.240856 -0.193238
O73   O     O_3   0.788710 0.440584 0.194795 -0.441221
H3    H     H_    0.779745 0.486177 0.205654 0.381583
S4    S     S_3+6 0.620646 0.816941 0.219142 0.178620
O74   O     O_2   0.693164 0.829068 0.204784 -0.124387
O75   O     O_2   0.629100 0.757231 0.240856 -0.193238
O76   O     O_3   0.559416 0.788710 0.194795 -0.441221
H4    H     H_    0.513823 0.779745 0.205654 0.381583
S5    S     S_3+6 0.183058 0.379354 0.780858 0.178620
O77   O     O_2   0.170931 0.306836 0.795216 -0.124387
O78   O     O_2   0.242769 0.370900 0.759144 -0.193238
O79   O     O_3   0.211290 0.440584 0.805205 -0.441221
H5    H     H_    0.220255 0.486177 0.794346 0.381583
S6    S     S_3+6 0.379354 0.816942 0.780858 0.178620
O80   O     O_2   0.306836 0.829069 0.795216 -0.124387
O81   O     O_2   0.370900 0.757231 0.759144 -0.193238
O82   O     O_3   0.440584 0.788710 0.805205 -0.441222
H6    H     H_    0.486177 0.779745 0.794346 0.381584
S7    S     S_3+6 0.816941 0.620646 0.780858 0.178620
O83   O     O_2   0.829068 0.693164 0.795216 -0.124387
O84   O     O_2   0.757231 0.629099 0.759144 -0.193238
O85   O     O_3   0.788710 0.559416 0.805205 -0.441222
H7    H     H_    0.779745 0.513823 0.794346 0.381584
S8    S     S_3+6 0.620646 0.183058 0.780858 0.178620
O86   O     O_2   0.693164 0.170931 0.795216 -0.124387
O87   O     O_2   0.629100 0.242769 0.759144 -0.193239
O88   O     O_3   0.559416 0.211290 0.805205 -0.441221
H8    H     H_    0.513823 0.220255 0.794346 0.381583
S9    S     S_3+6 0.683059 0.120646 0.719142 0.178620
O89   O     O_2   0.670932 0.193164 0.704784 -0.124387
O90   O     O_2   0.742769 0.129099 0.740856 -0.193238
O91   O     O_3   0.711290 0.059416 0.694795 -0.441222
H9    H     H_    0.720255 0.013823 0.705654 0.381584
S10   S     S_3+6 0.879354 0.683058 0.719142 0.178620
O92   O     O_2   0.806836 0.670931 0.704784 -0.124387
O93   O     O_2   0.870900 0.742769 0.740856 -0.193238
O94   O     O_3   0.940584 0.711290 0.694795 -0.441222
H10   H     H_    0.986177 0.720255 0.705654 0.381584
S11   S     S_3+6 0.316941 0.879354 0.719142 0.178620
O95   O     O_2   0.329068 0.806836 0.704784 -0.124387
O96   O     O_2   0.257231 0.870901 0.740856 -0.193238
O97   O     O_3   0.288710 0.940584 0.694795 -0.441221
H11   H     H_    0.279745 0.986177 0.705654 0.381583
S12   S     S_3+6 0.120646 0.316941 0.719142 0.178620
O98   O     O_2   0.193164 0.329068 0.704784 -0.124387
O99   O     O_2   0.129100 0.257231 0.740856 -0.193238
O100  O     O_3   0.059416 0.288710 0.694795 -0.441221
H12   H     H_    0.013823 0.279745 0.705654 0.381583
S13   S     S_3+6 0.683058 0.879354 0.280858 0.178620
O101  O     O_2   0.670931 0.806836 0.295216 -0.124387
O102  O     O_2   0.742769 0.870900 0.259144 -0.193238
O103  O     O_3   0.711290 0.940584 0.305205 -0.441221
H13   H     H_    0.720255 0.986177 0.294346 0.381583
S14   S     S_3+6 0.879354 0.316941 0.280858 0.178620
O104  O     O_2   0.806836 0.329068 0.295216 -0.124387
O105  O     O_2   0.870901 0.257231 0.259144 -0.193238
O106  O     O_3   0.940584 0.288710 0.305205 -0.441222
H14   H     H_    0.986177 0.279745 0.294346 0.381584
S15   S     S_3+6 0.316941 0.120646 0.280858 0.178620
O107  O     O_2   0.329068 0.193164 0.295216 -0.124387
O108  O     O_2   0.257231 0.129099 0.259144 -0.193238
O109  O     O_3   0.288710 0.059416 0.305205 -0.441222
H15   H     H_    0.279745 0.013823 0.294346 0.381584
S16   S     S_3+6 0.120646 0.683059 0.280858 0.178620
O110  O     O_2   0.193164 0.670932 0.295216 -0.124387
O111  O     O_2   0.129099 0.742769 0.259144 -0.193239
O112  O     O_3   0.059416 0.711290 0.305205 -0.441221
H16   H     H_    0.013823 0.720255 0.294346 0.381583
S17   S     S_3+6 0.386629 0.102625 0.850612 0.095533
O113  O     O_2   0.414019 0.122778 0.821584 -0.285816
O114  O     O_2   0.314105 0.064349 0.847749 -0.233819
O115  O     O_3   0.374970 0.180203 0.869361 -0.480648
H17   H     H_    0.335360 0.206965 0.859410 0.411887
S18   S     S_3+6 0.897375 0.386629 0.850612 0.095533
O116  O     O_2   0.877222 0.414019 0.821584 -0.285816
O117  O     O_2   0.935652 0.314105 0.847749 -0.233819
O118  O     O_3   0.819797 0.374970 0.869361 -0.480649
H18   H     H_    0.793035 0.335359 0.859410 0.411887
S19   S     S_3+6 0.613371 0.897375 0.850612 0.095533
O119  O     O_2   0.585981 0.877222 0.821584 -0.285816
O120  O     O_2   0.685895 0.935652 0.847749 -0.233819
O121  O     O_3   0.625030 0.819797 0.869361 -0.480648
H19   H     H_    0.664640 0.793035 0.859410 0.411887
S20   S     S_3+6 0.102625 0.613371 0.850612 0.095533
O122  O     O_2   0.122778 0.585981 0.821584 -0.285816
O123  O     O_2   0.064348 0.685895 0.847749 -0.233819
O124  O     O_3   0.180203 0.625030 0.869361 -0.480648
H20   H     H_    0.206965 0.664641 0.859410 0.411887
S21   S     S_3+6 0.386629 0.897375 0.149388 0.095533
O125  O     O_2   0.414019 0.877222 0.178416 -0.285816
O126  O     O_2   0.314105 0.935652 0.152251 -0.233819
O127  O     O_3   0.374970 0.819797 0.130639 -0.480648
H21   H     H_    0.335359 0.793035 0.140590 0.411887
S22   S     S_3+6 0.897375 0.613371 0.149388 0.095533
O128  O     O_2   0.877222 0.585981 0.178416 -0.285816
O129  O     O_2   0.935651 0.685895 0.152251 -0.233819
O130  O     O_3   0.819796 0.625029 0.130639 -0.480648
H22   H     H_    0.793034 0.664640 0.140590 0.411887
S23   S     S_3+6 0.613371 0.102624 0.149388 0.095533
O131  O     O_2   0.585981 0.122778 0.178416 -0.285816
O132  O     O_2   0.685895 0.064348 0.152251 -0.233819
O133  O     O_3   0.625030 0.180203 0.130639 -0.480648
H23   H     H_    0.664641 0.206965 0.140590 0.411887
S24   S     S_3+6 0.102625 0.386629 0.149388 0.095533
O134  O     O_2   0.122778 0.414019 0.178416 -0.285816
O135  O     O_2   0.064348 0.314105 0.152251 -0.233819
O136  O     O_3   0.180203 0.374970 0.130639 -0.480648
H24   H     H_    0.206965 0.335359 0.140590 0.411886
S25   S     S_3+6 0.886629 0.602625 0.350612 0.095533
O137  O     O_2   0.914019 0.622778 0.321584 -0.285816
O138  O     O_2   0.814105 0.564348 0.347749 -0.233819
O139  O     O_3   0.874970 0.680203 0.369361 -0.480648
H25   H     H_    0.835359 0.706965 0.359410 0.411887
S26   S     S_3+6 0.397375 0.886629 0.350612 0.095533
O140  O     O_2   0.377222 0.914019 0.321584 -0.285816
O141  O     O_2   0.435652 0.814105 0.347749 -0.233819
O142  O     O_3   0.319797 0.874970 0.369361 -0.480648
H26   H     H_    0.293035 0.835359 0.359410 0.411887
S27   S     S_3+6 0.113371 0.397375 0.350612 0.095533
O143  O     O_2   0.085981 0.377222 0.321584 -0.285816
O144  O     O_2   0.185895 0.435652 0.347749 -0.233819
O145  O     O_3   0.125030 0.319797 0.369361 -0.480647
H27   H     H_    0.164641 0.293035 0.359410 0.411886
S28   S     S_3+6 0.602625 0.113371 0.350612 0.095533
O146  O     O_2   0.622778 0.085981 0.321584 -0.285816
O147  O     O_2   0.564348 0.185895 0.347749 -0.233819
O148  O     O_3   0.680203 0.125030 0.369361 -0.480648
H28   H     H_    0.706965 0.164641 0.359410 0.411887
S29   S     S_3+6 0.886629 0.397375 0.649388 0.095533
O149  O     O_2   0.914019 0.377222 0.678416 -0.285816
O150  O     O_2   0.814105 0.435652 0.652251 -0.233819
O151  O     O_3   0.874970 0.319797 0.630639 -0.480648
H29   H     H_    0.835359 0.293035 0.640590 0.411887
S30   S     S_3+6 0.397375 0.113371 0.649388 0.095533
O152  O     O_2   0.377222 0.085981 0.678416 -0.285816
O153  O     O_2   0.435652 0.185895 0.652251 -0.233819
O154  O     O_3   0.319797 0.125030 0.630639 -0.480648
H30   H     H_    0.293035 0.164641 0.640590 0.411887
S31   S     S_3+6 0.113371 0.602625 0.649388 0.095533
O155  O     O_2   0.085981 0.622778 0.678416 -0.285816
O156  O     O_2   0.185895 0.564348 0.652251 -0.233819
O157  O     O_3   0.125030 0.680203 0.630639 -0.480649
H31   H     H_    0.164641 0.706965 0.640590 0.411887
S32   S     S_3+6 0.602624 0.886629 0.649388 0.095533
O158  O     O_2   0.622778 0.914019 0.678416 -0.285815
O159  O     O_2   0.564348 0.814105 0.652251 -0.233820
O160  O     O_3   0.680203 0.874970 0.630639 -0.480648
H32   H     H_    0.706964 0.835358 0.640590 0.411886
O161  O     O_3   0.392966 0.074916 0.914782 -0.694801
H33   H     H_    0.347091 0.076524 0.903637 0.392623
O162  O     O_3   0.925084 0.392966 0.914782 -0.694802
H34   H     H_    0.923476 0.347091 0.903637 0.392623
O163  O     O_3   0.607033 0.925084 0.914782 -0.694801
H35   H     H_    0.652909 0.923476 0.903637 0.392623
O164  O     O_3   0.074915 0.607034 0.914782 -0.694802
H36   H     H_    0.076524 0.652909 0.903637 0.392623
O165  O     O_3   0.392966 0.925084 0.085218 -0.694802
H37   H     H_    0.347091 0.923476 0.096363 0.392623
O166  O     O_3   0.925084 0.607033 0.085218 -0.694802
H38   H     H_    0.923476 0.652909 0.096363 0.392623
O167  O     O_3   0.607034 0.074915 0.085218 -0.694802
H39   H     H_    0.652909 0.076524 0.096363 0.392623
O168  O     O_3   0.074916 0.392966 0.085218 -0.694802
H40   H     H_    0.076524 0.347091 0.096363 0.392623
O169  O     O_3   0.892966 0.574916 0.414782 -0.694802
H41   H     H_    0.847091 0.576524 0.403637 0.392623
O170  O     O_3   0.425084 0.892966 0.414782 -0.694801
H42   H     H_    0.423476 0.847091 0.403637 0.392623
O171  O     O_3   0.107033 0.425084 0.414782 -0.694801
H43   H     H_    0.152909 0.423476 0.403637 0.392623
O172  O     O_3   0.574916 0.107034 0.414782 -0.694802
H44   H     H_    0.576524 0.152909 0.403637 0.392623
O173  O     O_3   0.892966 0.425084 0.585218 -0.694802
H45   H     H_    0.847091 0.423476 0.596363 0.392623
O174  O     O_3   0.425084 0.107034 0.585218 -0.694802
H46   H     H_    0.423476 0.152909 0.596363 0.392623
O175  O     O_3   0.107034 0.574916 0.585218 -0.694802
H47   H     H_    0.152909 0.576524 0.596363 0.392623
O176  O     O_3   0.574916 0.892966 0.585218 -0.694802
H48   H     H_    0.576524 0.847091 0.596363 0.392623

loop_
_geom_bond_atom_site_label_1
_geom_bond_atom_site_label_2
_ccdc_geom_bond_type
C50   N3    S    
O44   Zn12  S    
O142  H26   S    
C17   C53   A    
C119  C143  A    
C88   O44   A    
O22   Zn6   S    
C29   O165  S    
O130  H22   S    
C99   N5    A    
O97   H11   S    
O157  H31   S    
C138  S10   S    
C139  S11   S    
S12   O98   D    
C140  S12   S    
C112  C124  A    
C96   O56   S    
C9    S17   S    
C22   C38   A    
C33   C45   A    
S4    O74   D    
C62   C70   T    
C40   C48   A    
S10   O92   D    
S6    O81   D    
C8    O16   A    
O13   Zn4   S    
C13   C51   A    
S16   O112  S    
C14   C52   A    
C101  O61   S    
O91   H9    S    
C120  C144  A    
C53   N8    S    
C15   C51   A    
C97   C115  A    
S29   O151  S    
O33   Zn5   S    
C103  C117  A    
S2    O69   D    
C43   C75   S    
C109  C133  A    
C1    O7    A    
C104  O64   S    
C121  C128  A    
C20   C54   A    
C95   C109  A    
C25   C41   A    
C16   S24   S    
C137  S9    S    
O133  H23   S    
C123  C126  A    
C22   C56   A    
C100  N6    A    
S18   O116  D    
C7    O11   A    
C101  N7    A    
S2    O70   S    
C5    O9    A    
C6    C63   S    
C143  S15   S    
S1    O65   D    
C11   C49   A    
C66   C82   S    
C11   C27   A    
O6    Zn2   S    
O139  H25   S    
C10   C26   A    
C95   N3    A    
O16   Zn4   S    
C81   O37   A    
C92   C106  A    
C82   O34   A    
S9    O90   D    
O161  H33   S    
C113  C137  A    
C24   C56   A    
O32   Zn12  S    
O160  H32   S    
C35   C45   A    
C39   C47   A    
C98   N6    A    
C83   O39   A    
C106  C130  A    
C26   O162  S    
C19   S27   S    
S12   O100  S    
C109  C123  A    
C17   S25   S    
S7    O84   D    
S32   O159  D    
O19   Zn7   S    
C23   C55   A    
C142  S14   S    
O163  H35   S    
S4    O76   S    
O43   Zn11  S    
C104  N8    A    
O41   Zn9   S    
C19   C35   A    
O169  H41   S    
S22   O130  S    
S20   O124  S    
O5    Zn2   S    
S11   O96   D    
C87   O43   A    
O106  H14   S    
S27   O143  D    
C15   S23   S    
O171  H43   S    
C115  C139  A    
O46   Zn10  S    
O79   H5    S    
C90   O50   S    
O11   Zn3   S    
S19   O120  D    
C67   C83   S    
S25   O137  D    
C91   C105  A    
O176  H48   S    
C94   O54   S    
O31   Zn9   S    
O167  H39   S    
C129  C144  A    
C99   O59   S    
O29   Zn11  S    
C89   N1    A    
S5    O77   D    
C97   O57   S    
S1    O67   S    
O38   Zn6   S    
C114  C126  A    
O145  H27   S    
O166  H38   S    
S28   O146  D    
O82   H6    S    
C85   O41   A    
C122  C127  A    
C44   C76   S    
S30   O152  D    
C59   C67   T    
O18   Zn6   S    
C132  S4    S    
O8    Zn2   S    
S28   O147  D    
S8    O86   D    
C34   O170  S    
C36   C46   A    
C34   C46   A    
C80   O30   A    
C37   C47   A    
O39   Zn5   S    
O1    Zn1   S    
S16   O111  D    
C2    O2    A    
O94   H10   S    
S21   O126  D    
C112  C136  A    
S17   O114  D    
C94   N4    A    
C92   N2    A    
C100  C114  A    
O127  H21   S    
C8    O12   A    
C134  C139  A    
S22   O128  D    
S20   O122  D    
S31   O157  S    
C18   S26   S    
S6    O82   S    
C77   O25   A    
C49   N4    S    
S30   O154  S    
O47   Zn9   S    
O7    Zn2   S    
C106  C122  A    
S13   O101  D    
O23   Zn5   S    
S3    O72   D    
O2    Zn1   S    
O12   Zn3   S    
S25   O139  S    
C110  C134  A    
C133  S5    S    
C91   N1    A    
C69   C85   S    
C26   C42   A    
C132  C141  A    
S5    O79   S    
O24   Zn8   S    
S9    O91   S    
C136  C137  A    
C12   C50   A    
O88   H8    S    
C15   C31   A    
O85   H7    S    
C39   O175  S    
C25   O161  S    
C135  S7    S    
S28   O148  S    
S12   O99   D    
C90   C108  A    
O165  H37   S    
C86   O42   A    
O35   Zn7   S    
C18   C34   A    
S8    O88   S    
C94   C112  A    
C79   O31   A    
S27   O145  S    
S10   O93   D    
C114  C138  A    
O34   Zn6   S    
S15   O109  S    
C108  C132  A    
C41   C73   S    
S23   O133  S    
S24   O134  D    
C40   O176  S    
S20   O123  D    
S26   O140  D    
C3    O5    A    
C97   N5    A    
C45   C77   S    
C102  N8    A    
S29   O150  D    
C119  C127  A    
C6    O14   A    
O173  H45   S    
S10   O94   S    
S3    O71   D    
C87   O47   A    
C9    C25   A    
S31   O155  D    
C77   O27   A    
C12   C28   A    
C78   O28   A    
C13   C29   A    
S14   O104  D    
C75   O21   A    
S18   O117  D    
S13   O103  S    
C37   O173  S    
O48   Zn12  S    
C88   O46   A    
C110  C124  A    
O10   Zn3   S    
C102  O62   S    
O148  H28   S    
S11   O95   D    
C12   S20   S    
C78   O26   A    
O4    Zn1   S    
C92   O52   S    
C103  N7    A    
C3    C60   S    
S18   O118  S    
O121  H19   S    
C7    O13   A    
C33   O169  S    
S9    O89   D    
C29   C43   A    
C30   C44   A    
C17   C33   A    
C104  C118  A    
C14   S22   S    
C95   O55   S    
C96   N4    A    
C42   C74   S    
C111  C123  A    
O112  H16   S    
C68   C84   S    
C76   O24   A    
O40   Zn8   S    
S14   O106  S    
O136  H24   S    
C46   C78   S    
O30   Zn10  S    
C51   N2    S    
C31   O167  S    
C75   O23   A    
C130  S2    S    
C79   O29   A    
C36   O172  S    
C117  C141  A    
S15   O107  D    
S6    O80   D    
O20   Zn8   S    
C65   C81   S    
S23   O131  D    
S24   O136  S    
C2    O6    A    
C89   C107  A    
C3    O3    A    
O73   H3    S    
C1    O1    A    
C117  C127  A    
C63   C71   T    
C31   C43   A    
C93   C111  A    
C71   C87   S    
C85   O45   A    
C10   S18   S    
C38   O174  S    
C11   S19   S    
C84   O36   A    
C16   C32   A    
S2    O68   D    
C107  C121  A    
C73   O17   A    
C10   C50   A    
C103  O63   S    
C102  C120  A    
C21   C55   A    
C82   O40   A    
C2    C59   S    
C16   C52   A    
C57   C65   T    
C99   C113  A    
O164  H36   S    
C120  C128  A    
C54   N7    S    
O151  H29   S    
O42   Zn10  S    
O124  H20   S    
S1    O66   D    
C111  C135  A    
C28   O164  S    
C96   C110  A    
C76   O22   A    
O67   H1    S    
O28   Zn12  S    
O3    Zn1   S    
S30   O153  D    
S19   O119  D    
C20   C36   A    
C21   C37   A    
C60   C68   T    
C133  C140  A    
S8    O87   D    
O14   Zn4   S    
O172  H44   S    
C91   O51   S    
C30   O166  S    
C135  C138  A    
C89   O49   S    
C52   N1    S    
C136  S8    S    
S21   O125  D    
O168  H40   S    
C47   C79   S    
S7    O85   S    
C93   O53   S    
S32   O158  D    
O175  H47   S    
O162  H34   S    
S17   O113  D    
O115  H17   S    
C98   O58   S    
O103  H13   S    
C13   S21   S    
S22   O129  D    
S31   O156  D    
C113  C125  A    
C129  S1    S    
S11   O97   S    
C22   S30   S    
O45   Zn11  S    
C24   C40   A    
C58   C66   T    
O17   Zn5   S    
O100  H12   S    
C131  S3    S    
C4    C57   S    
O170  H42   S    
C9    C49   A    
C84   O38   A    
C73   O19   A    
C74   O20   A    
C8    C61   S    
C144  S16   S    
C80   O32   A    
S19   O121  S    
S25   O138  D    
C116  C126  A    
O27   Zn11  S    
C83   O35   A    
C118  C128  A    
C14   C30   A    
C81   O33   A    
C72   C88   S    
S5    O78   D    
O26   Zn10  S    
C101  C119  A    
C35   O171  S    
C5    O15   A    
C134  S6    S    
C107  C131  A    
C24   S32   S    
C105  C129  A    
O25   Zn9   S    
C100  O60   S    
C20   S28   S    
C27   C41   A    
C98   C116  A    
O174  H46   S    
C32   C44   A    
C105  C121  A    
S27   O144  D    
C32   O168  S    
C130  C143  A    
S15   O108  D    
O154  H30   S    
C27   O163  S    
C131  C142  A    
O36   Zn8   S    
S16   O110  D    
S23   O132  D    
S24   O135  D    
S26   O141  D    
S21   O127  S    
S7    O83   D    
C70   C86   S    
S32   O160  S    
O15   Zn4   S    
C55   N6    S    
S29   O149  D    
S17   O115  S    
C61   C69   T    
S4    O75   D    
O109  H15   S    
C4    O4    A    
C38   C48   A    
C6    O10   A    
C108  C122  A    
C118  C142  A    
O76   H4    S    
O37   Zn7   S    
C141  S13   S    
S26   O142  S    
C115  C125  A    
C48   C80   S    
O9    Zn3   S    
C90   N2    A    
C1    C58   S    
S14   O105  D    
C19   C53   A    
C4    O8    A    
C23   C39   A    
C28   C42   A    
S13   O102  D    
C5    C62   S    
C93   N3    A    
S3    O73   S    
C64   C72   T    
O118  H18   S    
C7    C64   S    
C74   O18   A    
C18   C54   A    
C21   S29   S    
C23   S31   S    
C56   N5    S    
O70   H2    S    
C86   O48   A    
C124  C125  A    
C116  C140  A    
O21   Zn7   S    
