data_mof_unit_14133.cif
_audit_creation_date              2012-12-10T17:44:36-0500
_audit_creation_method            fapswitch 2.2
_symmetry_space_group_name_H-M    P1
_symmetry_Int_Tables_number       1
_space_group_crystal_system       triclinic
_cell_length_a                    9.886367
_cell_length_b                    10.726162
_cell_length_c                    15.581129
_cell_angle_alpha                 91.473249
_cell_angle_beta                  68.017315
_cell_angle_gamma                 89.219172
_cell_volume                      1531.15310982

loop_
_atom_site_label
_atom_site_type_symbol
_atom_type_description
_atom_site_fract_x
_atom_site_fract_y
_atom_site_fract_z
_atom_type_partial_charge
C1    C     C_R   0.501096 0.740231 0.494737 0.864026
C2    C     C_R   0.708367 0.585097 0.042344 0.161512
C3    C     C_R   0.571804 0.532896 0.093276 0.092256
C4    C     C_R   0.409058 0.492989 0.675751 0.922920
C5    C     C_R   0.809174 0.606643 0.084736 -0.210922
C6    C     C_R   0.776284 0.574008 0.176424 -0.211088
C7    C     C_R   0.546839 0.491787 0.181607 -0.241570
C8    C     C_R   0.246288 0.893311 0.485817 -0.170864
C9    C     C_R   0.111816 0.957098 0.516722 -0.168400
C10   C     C_R   0.094546 0.070336 0.565322 -0.135028
C11   C     C_R   0.215416 0.125472 0.574421 -0.128223
C12   C     C_R   0.407747 0.503859 0.915807 0.009238
C13   C     C_R   0.355469 0.066736 0.535009 0.081796
C14   C     C_R   0.366291 0.942411 0.503702 0.100005
C15   C     C_R   0.497127 0.874316 0.491883 -0.116652
C16   C     C_R   0.494717 0.261207 0.509554 0.885917
C17   C     C_R   0.620931 0.935645 0.492054 -0.227260
C18   C     C_R   0.617132 0.062600 0.503677 -0.195310
C19   C     C_R   0.486520 0.128969 0.522072 -0.116556
C20   C     C_R   0.788387 0.667864 0.619913 -0.126171
C21   C     C_R   0.823809 0.748617 0.679210 -0.243474
C22   C     C_R   0.962727 0.744969 0.680864 -0.150928
C23   C     C_R   0.258622 0.490749 0.970725 0.060886
C24   C     C_R   0.067904 0.662292 0.621819 -0.079258
C25   C     C_R   0.036573 0.580869 0.559740 0.160371
C26   C     C_R   0.892125 0.582084 0.559225 0.207149
C27   C     C_R   0.963021 0.421716 0.443319 -0.123810
C28   C     C_R   0.590876 0.501188 0.324458 0.872569
C29   C     C_R   0.106387 0.421978 0.443171 -0.114173
C30   C     C_R   0.353005 0.481428 0.777086 -0.247354
C31   C     C_R   0.643965 0.517094 0.224924 -0.055504
C32   C     C_R   0.157598 0.474250 0.928457 -0.262519
C33   C     C_R   0.202254 0.475975 0.832318 0.347346
C34   C     C_R   0.506702 0.535847 0.958201 0.096594
C35   C     C_R   0.454628 0.476962 0.820733 0.255672
C36   C     C_R   0.464596 0.521465 0.054166 0.063325
C37   C     C_R   0.315884 0.501280 0.108120 -0.220725
C38   C     C_R   0.213635 0.490658 0.066854 -0.183655
C39   C     C_R   0.642558 0.589240 0.908329 -0.123572
C40   C     C_R   0.740867 0.615989 0.950524 -0.192000
Cl1   Cl    Cl    0.065300 0.458680 0.786342 -0.614970
Cl2   Cl    Cl    0.626928 0.398222 0.765290 -0.570730
H1    H     H_    0.099891 0.479237 0.110095 0.145574
H2    H     H_    0.678581 0.675724 0.624532 0.201835
H3    H     H_    0.742165 0.813460 0.725010 0.159576
H4    H     H_    0.450347 0.440220 0.218573 0.149283
H5    H     H_    0.989558 0.806988 0.727778 0.157751
H6    H     H_    0.172408 0.664429 0.626741 0.206434
H7    H     H_    0.188648 0.358245 0.396799 0.148886
H8    H     H_    0.851464 0.596408 0.209979 0.152814
H9    H     H_    0.843378 0.658380 0.910764 0.176537
H10   H     H_    0.043673 0.461196 0.970057 0.188733
H11   H     H_    0.274469 0.500773 0.182828 0.141205
H12   H     H_    0.911562 0.651007 0.047729 0.143420
H13   H     H_    0.671156 0.615024 0.837250 0.193746
H14   H     H_    0.722278 0.885882 0.481713 0.168984
H15   H     H_    0.254644 0.808531 0.445198 0.170474
H16   H     H_    0.020279 0.917262 0.504531 0.144483
H17   H     H_    0.988795 0.117522 0.593123 0.169544
H18   H     H_    0.198250 0.213912 0.612431 0.195054
H19   H     H_    0.717574 0.108710 0.496296 0.174160
H20   H     H_    0.937210 0.357835 0.397099 0.140936
N1    N     N_R   0.856800 0.501200 0.500850 -0.111508
N2    N     N_R   0.142390 0.501280 0.500880 -0.121103
O1    O     O_R   0.385310 0.683220 0.500000 -0.658634
O2    O     O_R   0.614640 0.683250 0.500010 -0.648725
O3    O     O_R   0.319840 0.499980 0.632240 -0.593245
O4    O     O_R   0.549160 0.500000 0.632250 -0.581978
O5    O     O_R   0.385360 0.316750 0.499990 -0.625428
O6    O     O_R   0.614690 0.316780 0.500000 -0.605194
O7    O     O_R   0.450840 0.500000 0.367750 -0.621374
O8    O     O_R   0.680160 0.500020 0.367760 -0.618902
Zn1   Zn    Zn3+2 0.346880 0.499980 0.499990 0.945821
Zn2   Zn    Zn3+2 0.653120 0.500020 0.500010 0.959974

loop_
_geom_bond_atom_site_label_1
_geom_bond_atom_site_label_2
_ccdc_geom_bond_type
C27   C29   A    
C29   H7    S    
C12   C23   A    
C30   C35   A    
C36   C37   A    
C18   C19   A    
C3    C7    A    
C5    C6    A    
O4    Zn2   S    
O2    Zn2   S    
O1    Zn1   S    
C9    H16   S    
C35   Cl2   S    
C32   H10   S    
C39   H13   S    
C8    C9    A    
O6    Zn2   S    
C1    O1    A    
N2    Zn1   S    
O5    Zn1   S    
C1    C15   S    
C9    C10   A    
C37   H11   S    
C6    C31   A    
C29   N2    A    
C13   C14   A    
C28   O8    A    
C20   H2    S    
C1    O2    A    
C21   H3    S    
C7    C31   A    
C13   C19   A    
C34   C39   A    
C24   H6    S    
C7    H4    S    
C5    H12   S    
C16   O6    A    
C24   C25   A    
O8    Zn2   S    
C39   C40   A    
C4    O4    A    
C25   C26   A    
C25   N2    A    
C26   N1    A    
C37   C38   A    
C27   H20   S    
C8    H15   S    
C17   C18   A    
C6    H8    S    
C12   C35   A    
C17   H14   S    
C27   N1    A    
O3    Zn1   S    
C22   C24   A    
C28   O7    A    
C12   C34   A    
C11   H18   S    
C23   C38   A    
O7    Zn1   S    
C15   C17   A    
C8    C14   A    
C30   C33   A    
C28   C31   S    
C16   O5    A    
C4    O3    A    
C18   H19   S    
N1    Zn2   S    
C40   H9    S    
C33   Cl1   S    
C23   C32   A    
C2    C3    A    
C38   H1    S    
C32   C33   A    
C11   C13   A    
C20   C26   A    
C3    C36   A    
C16   C19   S    
C22   H5    S    
C34   C36   A    
C10   C11   A    
C2    C5    A    
C2    C40   A    
C20   C21   A    
C14   C15   A    
C21   C22   A    
C10   H17   S    
C4    C30   S    
