data_mof_unit_58134.cif
_audit_creation_date              2012-12-10T17:53:18-0500
_audit_creation_method            fapswitch 2.2
_symmetry_space_group_name_H-M    P1
_symmetry_Int_Tables_number       1
_space_group_crystal_system       triclinic
_cell_length_a                    23.377873
_cell_length_b                    10.612917
_cell_length_c                    10.00455
_cell_angle_alpha                 89.361415
_cell_angle_beta                  90.277429
_cell_angle_gamma                 93.088422
_cell_volume                      2478.42163309

loop_
_atom_site_label
_atom_site_type_symbol
_atom_type_description
_atom_site_fract_x
_atom_site_fract_y
_atom_site_fract_z
_atom_type_partial_charge
C1    C     C_R   0.509689 0.263766 0.500861 0.971332
C2    C     C_R   0.970748 0.497278 0.741462 -0.144785
C3    C     C_R   0.030086 0.499401 0.741954 -0.129497
C4    C     C_R   0.060330 0.508716 0.621391 -0.017369
C5    C     C_R   0.030606 0.518392 0.498555 -0.064293
C6    C     C_R   0.061138 0.528184 0.377144 -0.200952
C7    C     C_R   0.030923 0.543990 0.255524 0.475910
C8    C     C_R   0.971037 0.538993 0.253953 0.074563
C9    C     C_R   0.119931 0.507887 0.620657 0.584547
C10   C     C_R   0.120909 0.518165 0.381957 0.613739
C11   C     C_R   0.242137 0.621470 0.482169 0.465000
C12   C     C_R   0.389952 0.500237 0.499473 0.894987
C13   C     C_R   0.302085 0.619118 0.476091 0.249803
C14   C     C_R   0.328121 0.502679 0.496980 -0.313211
C15   C     C_R   0.294391 0.389026 0.516216 0.371256
C16   C     C_R   0.234887 0.393604 0.520290 0.040646
C17   C     C_R   0.209387 0.508920 0.503554 0.117745
C18   C     C_R   0.759569 0.403877 0.456397 -0.172539
C19   C     C_R   0.699923 0.401068 0.454456 0.058621
C20   C     C_R   0.672023 0.506232 0.500961 -0.140474
C21   C     C_R   0.703711 0.614519 0.548378 0.363114
C22   C     C_R   0.763559 0.614942 0.549585 0.125156
C23   C     C_R   0.498113 0.741088 0.499214 0.852919
C24   C     C_R   0.791046 0.509698 0.503660 0.218251
C25   C     C_R   0.546809 0.112775 0.744157 0.357324
C26   C     C_R   0.534500 0.044767 0.863895 0.375246
C27   C     C_R   0.492200 0.946276 0.862905 0.081098
C28   C     C_R   0.471715 0.897559 0.740205 0.040858
C29   C     C_R   0.497301 0.945004 0.619373 -0.099902
C30   C     C_R   0.524014 0.065229 0.622702 -0.051500
C31   C     C_R   0.526096 0.133986 0.502560 -0.120849
C32   C     C_R   0.531386 0.071611 0.381536 -0.058207
C33   C     C_R   0.520737 0.941039 0.378879 0.419388
C34   C     C_R   0.610083 0.501398 0.500254 0.867007
C35   C     C_R   0.500626 0.878049 0.497264 -0.147863
C36   C     C_R   0.406895 0.376959 0.136562 0.538848
C37   C     C_R   0.354282 0.361942 0.068688 -0.103171
C38   C     C_R   0.354787 0.359909 0.929421 -0.098902
C39   C     C_R   0.407744 0.374554 0.864018 0.539084
C40   C     C_R   0.454737 0.439558 0.928287 -0.100560
C41   C     C_R   0.454539 0.440181 0.071877 -0.108516
C42   C     C_R   0.542754 0.560212 0.073069 0.502447
C43   C     C_R   0.542433 0.561918 0.929371 0.303543
C44   C     C_R   0.879467 0.523027 0.381352 0.543691
C45   C     C_R   0.880933 0.501568 0.619489 0.544676
C46   C     C_R   0.940547 0.505319 0.620496 -0.008965
C47   C     C_R   0.970304 0.517022 0.497923 -0.032091
C48   C     C_R   0.939872 0.525864 0.375666 -0.152425
H1    H     H_    0.948628 0.488899 0.836275 0.201018
H2    H     H_    0.052111 0.492418 0.837062 0.226647
H3    H     H_    0.781936 0.323855 0.421360 0.159173
N1    N     N_R   0.852058 0.511143 0.501525 -0.327603
N2    N     N_R   0.148514 0.511560 0.502229 -0.302176
N3    N     N_R   0.499460 0.498800 0.142780 -0.123869
N4    N     N_R   0.499440 0.498720 0.857170 -0.158337
O1    O     O_R   0.500000 0.316780 0.614690 -0.529008
O2    O     O_2   0.851727 0.488037 0.735347 -0.547000
O3    O     O_2   0.149304 0.502375 0.736935 -0.550599
O4    O     O_2   0.151484 0.511668 0.268418 -0.529480
O5    O     O_R   0.500000 0.316750 0.385360 -0.543673
O6    O     O_R   0.416160 0.499970 0.614690 -0.576116
O7    O     O_R   0.416150 0.499950 0.385360 -0.583369
O8    O     O_R   0.500000 0.683250 0.614640 -0.679302
O9    O     O_R   0.500000 0.683220 0.385310 -0.521334
O10   O     O_R   0.583850 0.500050 0.614640 -0.601496
O11   O     O_R   0.583840 0.500030 0.385310 -0.546240
O12   O     O_2   0.847773 0.532844 0.269179 -0.567198
Zn1   Zn    Zn3+2 0.500000 0.500020 0.653130 0.990781
Zn2   Zn    Zn3+2 0.500000 0.499980 0.346870 1.070026
N5    N     N_3   0.667311 0.291727 0.406718 -0.423395
H4    H     H_    0.646898 0.248205 0.489135 0.212167
H5    H     H_    0.694435 0.226122 0.367939 0.194414
O13   O     O_3   0.678505 0.721784 0.591784 -0.751871
H6    H     H_    0.637294 0.718009 0.568753 0.332711
N6    N     N_3   0.797162 0.723480 0.594323 -0.419312
H7    H     H_    0.785737 0.741365 0.692946 0.247296
H8    H     H_    0.786802 0.800902 0.535177 0.217847
N7    N     N_3   0.546664 0.142271 0.262856 -0.396158
H9    H     H_    0.514809 0.124602 0.190827 0.273558
H10   H     H_    0.586615 0.116362 0.229581 0.216632
O14   O     O_3   0.583818 0.218781 0.741467 -0.759081
H11   H     H_    0.581144 0.262743 0.827882 0.352414
O15   O     O_3   0.562429 0.072162 0.982198 -0.810572
H12   H     H_    0.600830 0.111625 0.962303 0.346267
N8    N     N_3   0.471545 0.894104 0.987387 -0.371627
H13   H     H_    0.427290 0.903281 0.991341 0.203884
H14   H     H_    0.479271 0.798015 0.989997 0.196509
N9    N     N_3   0.420909 0.814617 0.740576 -0.432389
H15   H     H_    0.405778 0.798833 0.643651 0.226999
H16   H     H_    0.430188 0.728324 0.784696 0.211008
O16   O     O_3   0.527453 0.874268 0.262334 -0.713837
H17   H     H_    0.552928 0.922262 0.199455 0.372161
O17   O     O_3   0.585295 0.623791 0.145815 -0.692919
H18   H     H_    0.614373 0.663764 0.085114 0.375234
O18   O     O_3   0.414791 0.308743 0.251684 -0.716282
H19   H     H_    0.380902 0.251326 0.270654 0.340155
N10   N     N_3   0.302554 0.333880 0.142434 -0.440955
H20   H     H_    0.285823 0.244160 0.116390 0.202833
H21   H     H_    0.272861 0.400123 0.116068 0.235585
N11   N     N_3   0.303748 0.328593 0.853895 -0.423670
H22   H     H_    0.287237 0.239293 0.883775 0.201834
H23   H     H_    0.273525 0.394739 0.874430 0.230042
O19   O     O_3   0.416481 0.305402 0.751939 -0.712625
H24   H     H_    0.385164 0.239556 0.740994 0.350243
O20   O     O_3   0.585836 0.630719 0.865239 -0.750145
H25   H     H_    0.571503 0.655725 0.776891 0.389568
O21   O     O_3   0.058502 0.567087 0.135595 -0.708852
H26   H     H_    0.087408 0.637380 0.150514 0.368466
N12   N     N_3   0.943776 0.550933 0.125939 -0.390656
H27   H     H_    0.917566 0.470034 0.107514 0.239255
H28   H     H_    0.920103 0.631710 0.124169 0.241677
O22   O     O_3   0.213512 0.731445 0.465935 -0.738741
H29   H     H_    0.241257 0.804352 0.453738 0.391054
O23   O     O_3   0.333173 0.731403 0.449898 -0.777751
H30   H     H_    0.373277 0.715591 0.427997 0.332836
O24   O     O_3   0.317255 0.271883 0.529511 -0.764080
H31   H     H_    0.358596 0.277660 0.508816 0.348803
N13   N     N_3   0.199384 0.280452 0.539090 -0.411130
H32   H     H_    0.210799 0.238662 0.629827 0.236583
H33   H     H_    0.207882 0.218316 0.462174 0.232445

loop_
_geom_bond_atom_site_label_1
_geom_bond_atom_site_label_2
_ccdc_geom_bond_type
C24   N1    S    
C40   C41   A    
O17   H18   S    
C42   O17   S    
O13   H6    S    
C19   C20   A    
C36   O18   S    
C34   O11   A    
C37   N10   S    
N10   H20   S    
C7    C8    A    
C45   C46   A    
C2    C46   A    
C5    C47   A    
C45   O2    S    
C26   C27   A    
C26   O15   S    
O15   H12   S    
C18   C24   A    
C28   C29   A    
C1    O1    A    
C18   C19   A    
N12   H28   S    
N8    H13   S    
C30   C31   A    
N7    H10   S    
O11   Zn2   S    
C15   C16   A    
C21   O13   S    
C1    C31   S    
O24   H31   S    
C9    O3    S    
C43   O20   S    
C27   N8    S    
C10   N2    A    
N13   H32   S    
O19   H24   S    
O8    Zn1   S    
O18   H19   S    
C16   C17   A    
C28   N9    S    
O21   H26   S    
N5    H4    S    
C29   C30   A    
C13   O23   S    
C40   N4    A    
C20   C34   S    
C44   N1    A    
C23   O8    A    
C13   C14   A    
C25   O14   S    
C36   C41   A    
C22   N6    S    
C34   O10   A    
O22   H29   S    
N10   H21   S    
C3    H2    S    
C18   H3    S    
N4    Zn1   S    
N8    H14   S    
C38   C39   A    
C38   N11   S    
C1    O5    A    
O16   H17   S    
N7    H9    S    
C45   N1    A    
C25   C26   A    
O1    Zn1   S    
O14   H11   S    
O7    Zn2   S    
N6    H7    S    
C8    C48   A    
C37   C38   A    
C2    H1    S    
C16   N13   S    
C12   O7    A    
C47   C48   A    
O10   Zn1   S    
N11   H23   S    
O9    Zn2   S    
C20   C21   A    
N6    H8    S    
C8    N12   S    
C43   N4    A    
C23   O9    A    
C12   C14   S    
C23   C35   S    
C22   C24   A    
C9    N2    A    
C42   C43   A    
C3    C4    A    
C17   N2    S    
C39   C40   A    
C25   C30   A    
C46   C47   A    
C11   C17   A    
C11   O22   S    
C14   C15   A    
C31   C32   A    
N9    H16   S    
C4    C5    A    
C44   O12   S    
C6    C10   A    
C39   O19   S    
C6    C7    A    
O20   H25   S    
C29   C35   A    
C32   C33   A    
C33   O16   S    
C2    C3    A    
N12   H27   S    
C42   N3    A    
C12   O6    A    
C11   C13   A    
O6    Zn1   S    
C5    C6    A    
N3    Zn2   S    
O5    Zn2   S    
N11   H22   S    
C33   C35   A    
C10   O4    S    
C7    O21   S    
O23   H30   S    
N13   H33   S    
C41   N3    A    
C32   N7    S    
N9    H15   S    
C36   C37   A    
C27   C28   A    
C15   O24   S    
C19   N5    S    
N5    H5    S    
C4    C9    A    
C21   C22   A    
C44   C48   A    
