data_mof_unit_52408.cif
_audit_creation_date              2012-12-10T18:59:18-0500
_audit_creation_method            fapswitch 2.2
_symmetry_space_group_name_H-M    P1
_symmetry_Int_Tables_number       1
_space_group_crystal_system       triclinic
_cell_length_a                    10.835803
_cell_length_b                    10.850168
_cell_length_c                    9.542052
_cell_angle_alpha                 90.032073
_cell_angle_beta                  88.202399
_cell_angle_gamma                 90.157477
_cell_volume                      1121.30529596

loop_
_atom_site_label
_atom_site_type_symbol
_atom_type_description
_atom_site_fract_x
_atom_site_fract_y
_atom_site_fract_z
_atom_type_partial_charge
C1    C     C_R   0.496523 0.262081 0.499931 0.953562
C2    C     C_R   0.055003 0.445617 0.621784 -0.059111
C3    C     C_R   0.126182 0.505982 0.512825 -0.023064
C4    C     C_R   0.066300 0.557750 0.398894 -0.157911
C5    C     C_R   0.938999 0.552570 0.392734 -0.183908
C6    C     C_R   0.871127 0.483018 0.491240 -0.020997
C7    C     C_R   0.457525 0.062792 0.622489 -0.060507
C8    C     C_R   0.479580 0.128930 0.498415 -0.258716
C9    C     C_R   0.471845 0.064464 0.370258 0.629335
C10   C     C_R   0.460699 0.936208 0.368910 0.298505
C11   C     C_R   0.468356 0.869786 0.496875 -0.236142
C12   C     C_R   0.261527 0.502425 0.503615 0.780912
C13   C     C_R   0.453824 0.936202 0.621460 -0.071775
C14   C     C_3   0.510768 0.925163 0.760934 -0.385061
C15   C     C_3   0.513786 0.065228 0.763822 0.576327
C16   C     C_R   0.560030 0.590946 0.072393 0.005739
C17   C     C_R   0.431179 0.417645 0.076586 0.615194
C18   C     C_R   0.432647 0.416610 0.927863 0.592707
C19   C     C_R   0.561870 0.589816 0.924534 0.001918
C20   C     C_3   0.698942 0.614331 0.922386 0.951540
C21   C     C_3   0.693213 0.622249 0.080982 -0.478918
C22   C     C_R   0.491388 0.737404 0.499628 0.834971
C23   C     C_R   0.737470 0.494606 0.497333 0.882566
C24   C     C_R   0.096396 0.417507 0.758306 0.387608
C25   C     C_R   0.034816 0.323384 0.838099 0.263589
C26   C     C_R   0.926860 0.271681 0.788630 -0.194623
C27   C     C_R   0.873041 0.319922 0.670475 0.582494
C28   C     C_R   0.931948 0.415382 0.593907 -0.084172
Cu1   Cu    Cu3+1 0.499990 0.499980 0.640670 1.100399
Cu2   Cu    Cu3+1 0.500010 0.500020 0.359330 1.043009
H1    H     H_    0.117920 0.606375 0.316893 0.157316
H2    H     H_    0.603908 0.883157 0.753235 0.281229
H3    H     H_    0.452916 0.106298 0.847083 0.159117
H4    H     H_    0.747482 0.549488 0.132516 0.183070
H5    H     H_    0.707247 0.716988 0.122053 0.226878
H6    H     H_    0.880770 0.198143 0.846601 0.241383
H7    H     H_    0.893656 0.603477 0.311586 0.154116
H8    H     H_    0.446333 0.884528 0.841339 0.183764
N1    N     N_R   0.500790 0.500930 0.147930 -0.264265
N2    N     N_R   0.500790 0.500890 0.852020 -0.273221
O1    O     O_R   0.500000 0.319640 0.618810 -0.498589
O2    O     O_R   0.500010 0.319680 0.381230 -0.495514
O3    O     O_R   0.319640 0.499980 0.618820 -0.505751
O4    O     O_R   0.319650 0.500020 0.381230 -0.568750
O5    O     O_R   0.499990 0.680320 0.618770 -0.564871
O6    O     O_R   0.500000 0.680360 0.381190 -0.577926
O7    O     O_R   0.680350 0.499980 0.618770 -0.507266
O8    O     O_R   0.680360 0.500020 0.381180 -0.611601
F1    F     F_    0.633115 0.110292 0.760299 -0.583392
F2    F     F_    0.361232 0.333768 0.148178 -0.582967
F3    F     F_    0.368245 0.328989 0.860348 -0.653833
O9    O     O_3   0.772377 0.516090 0.872611 -0.706902
H9    H     H_    0.740489 0.438565 0.915898 0.294289
F4    F     F_    0.731582 0.724601 0.858967 -0.638673
O10   O     O_3   0.175884 0.498699 0.821137 -0.676786
H10   H     H_    0.160776 0.497307 0.924038 0.326784
O11   O     O_3   0.075635 0.280884 0.964721 -0.671330
H11   H     H_    0.163286 0.303894 0.973731 0.394705
F5    F     F_    0.766599 0.269265 0.626738 -0.615227
F6    F     F_    0.478131 0.123907 0.245016 -0.565913
O12   O     O_3   0.448653 0.879912 0.240683 -0.655615
H12   H     H_    0.381920 0.817720 0.252118 0.330273

loop_
_geom_bond_atom_site_label_1
_geom_bond_atom_site_label_2
_ccdc_geom_bond_type
C17   F2    S    
C18   F3    S    
O10   H10   S    
C16   C21   S    
Cu1   Cu2   S    
C3    C12   S    
C5    H7    S    
C14   H8    S    
C1    C8    S    
C9    C10   A    
C11   C22   S    
C19   C20   S    
C20   O9    S    
C9    F6    S    
C7    C15   S    
C17   C18   A    
C26   C27   A    
C7    C8    A    
C12   O4    A    
C27   F5    S    
C13   C14   S    
C20   C21   S    
C24   O10   S    
C4    C5    A    
C11   C13   A    
Cu2   O4    S    
O11   H11   S    
C5    C6    A    
C25   O11   S    
Cu1   O7    S    
C16   C19   A    
C21   H5    S    
C6    C23   S    
C23   O8    A    
Cu1   N2    S    
C26   H6    S    
C22   O6    A    
C15   H3    S    
Cu2   N1    S    
C2    C3    A    
C12   O3    A    
C19   N2    A    
C15   F1    S    
C2    C24   A    
O12   H12   S    
Cu1   O5    S    
C6    C28   A    
C4    H1    S    
C23   O7    A    
C10   C11   A    
C16   N1    A    
C3    C4    A    
C10   O12   S    
C1    O2    A    
C7    C13   A    
C22   O5    A    
C14   H2    S    
C24   C25   A    
C20   F4    S    
C17   N1    A    
Cu2   O8    S    
C27   C28   A    
C18   N2    A    
C14   C15   S    
Cu2   O2    S    
C2    C28   A    
C21   H4    S    
Cu1   O1    S    
C25   C26   A    
Cu2   O6    S    
Cu1   O3    S    
C1    O1    A    
O9    H9    S    
C8    C9    A    
