data_mof_unit_43986.cif
_audit_creation_date              2012-12-11T16:51:19-0500
_audit_creation_method            fapswitch 2.2
_symmetry_space_group_name_H-M    P1
_symmetry_Int_Tables_number       1
_space_group_crystal_system       triclinic
_cell_length_a                    24.458298
_cell_length_b                    17.230387
_cell_length_c                    15.56474
_cell_angle_alpha                 90.0
_cell_angle_beta                  129.366834
_cell_angle_gamma                 89.999925
_cell_volume                      5071.06633663

loop_
_atom_site_label
_atom_site_type_symbol
_atom_type_description
_atom_site_fract_x
_atom_site_fract_y
_atom_site_fract_z
_atom_type_partial_charge
C1    C     C_R   0.832162 0.893008 0.197927 -0.130057
C2    C     C_R   0.167838 0.893008 0.802073 -0.130057
C3    C     C_R   0.332162 0.393008 0.197927 -0.130057
C4    C     C_R   0.667838 0.393008 0.802073 -0.130057
C5    C     C_R   0.883698 0.102490 0.589953 -0.208450
C6    C     C_R   0.116301 0.102491 0.410046 -0.208452
C7    C     C_R   0.383698 0.602490 0.589953 -0.208451
C8    C     C_R   0.616302 0.602490 0.410047 -0.208452
C9    C     C_R   0.814064 0.114621 0.496104 0.034610
C10   C     C_R   0.185935 0.114623 0.503895 0.034609
C11   C     C_R   0.314063 0.614620 0.496104 0.034612
C12   C     C_R   0.685936 0.614621 0.503896 0.034610
C13   C     C_R   0.885583 0.185108 0.215493 0.138865
C14   C     C_R   0.114419 0.185106 0.784512 0.138866
C15   C     C_R   0.385583 0.685108 0.215493 0.138864
C16   C     C_R   0.614419 0.685105 0.784512 0.138866
C17   C     C_R   0.846565 0.724514 0.607559 0.147033
C18   C     C_R   0.153430 0.724506 0.392442 0.147042
C19   C     C_R   0.346560 0.224522 0.607559 0.147025
C20   C     C_R   0.653435 0.224514 0.392441 0.147031
C21   C     C_R   0.833519 0.741614 0.508358 0.037774
C22   C     C_R   0.166481 0.741612 0.491644 0.037773
C23   C     C_R   0.333519 0.241615 0.508360 0.037776
C24   C     C_R   0.666481 0.241614 0.491642 0.037775
C25   C     C_R   0.784177 0.696337 0.413801 -0.201148
C26   C     C_R   0.215826 0.696339 0.586204 -0.201148
C27   C     C_R   0.284180 0.196335 0.413805 -0.201148
C28   C     C_R   0.715823 0.196337 0.586199 -0.201148
C29   C     C_R   0.239545 0.145767 0.414485 -0.201770
C30   C     C_R   0.760457 0.145768 0.585519 -0.201769
C31   C     C_R   0.739543 0.645768 0.414481 -0.201770
C32   C     C_R   0.260460 0.645769 0.585524 -0.201769
C33   C     C_R   0.244671 0.141096 0.509668 0.035608
C34   C     C_R   0.755327 0.141093 0.490333 0.035608
C35   C     C_R   0.744673 0.641093 0.509667 0.035608
C36   C     C_R   0.255326 0.641089 0.490334 0.035608
C37   C     C_R   0.302874 0.175195 0.608261 0.180582
C38   C     C_R   0.697120 0.175186 0.391738 0.180573
C39   C     C_R   0.802880 0.675185 0.608262 0.180574
C40   C     C_R   0.197115 0.675176 0.391738 0.180567
C41   C     C_3   0.805636 0.724451 0.690495 -0.490828
C42   C     C_3   0.194350 0.724435 0.309490 -0.490825
C43   C     C_3   0.305621 0.224467 0.690481 -0.490834
C44   C     C_3   0.694365 0.224452 0.309505 -0.490826
C45   C     C_R   0.085480 0.855837 0.406736 -0.136426
C46   C     C_R   0.914520 0.855837 0.593264 -0.136423
C47   C     C_R   0.585480 0.355837 0.406736 -0.136423
C48   C     C_R   0.414521 0.355837 0.593265 -0.136419
C49   C     C_3   0.853000 0.778712 0.689007 -0.536869
C50   C     C_3   0.146988 0.778698 0.310980 -0.536878
C51   C     C_3   0.352987 0.278727 0.688995 -0.536860
C52   C     C_3   0.647001 0.278713 0.310993 -0.536867
C53   C     C_2   0.195079 0.849677 0.981821 -0.224161
C54   C     C_2   0.804921 0.849677 0.018179 -0.224159
C55   C     C_2   0.695079 0.349677 0.981821 -0.224160
C56   C     C_2   0.304921 0.349677 0.018179 -0.224159
C57   C     C_2   0.265336 0.848972 0.041586 -0.107486
C58   C     C_2   0.734664 0.848971 0.958415 -0.107486
C59   C     C_2   0.765336 0.348972 0.041586 -0.107486
C60   C     C_2   0.234664 0.348971 0.958415 -0.107485
C61   C     C_2   0.861317 0.258675 0.154812 -0.216329
C62   C     C_2   0.138685 0.258673 0.845193 -0.216329
C63   C     C_2   0.361318 0.758676 0.154813 -0.216328
C64   C     C_2   0.638685 0.758673 0.845193 -0.216329
C65   C     C_2   0.807884 0.297789 0.137587 -0.108842
C66   C     C_2   0.192117 0.297787 0.862416 -0.108843
C67   C     C_2   0.307884 0.797790 0.137587 -0.108841
C68   C     C_2   0.692117 0.797787 0.862416 -0.108843
C69   C     C_R   0.163294 0.856423 0.592008 -0.125090
C70   C     C_R   0.836706 0.856422 0.407992 -0.125094
C71   C     C_R   0.663294 0.356423 0.592008 -0.125094
C72   C     C_R   0.336707 0.356422 0.407992 -0.125097
C73   C     C_R   0.077482 0.894290 0.803931 -0.165678
C74   C     C_R   0.922518 0.894290 0.196069 -0.165679
C75   C     C_R   0.577482 0.394290 0.803931 -0.165676
C76   C     C_R   0.422518 0.394290 0.196069 -0.165678
C77   C     C_R   0.851794 0.875274 0.134192 0.158150
C78   C     C_R   0.148206 0.875273 0.865807 0.158150
C79   C     C_R   0.351794 0.375273 0.134192 0.158149
C80   C     C_R   0.648206 0.375273 0.865807 0.158150
C81   C     C_R   0.138212 0.813250 0.498188 0.069937
C82   C     C_R   0.861789 0.813250 0.501812 0.069937
C83   C     C_R   0.638212 0.313250 0.498188 0.069937
C84   C     C_R   0.361790 0.313250 0.501813 0.069935
C85   C     C_R   0.809176 0.094812 0.405634 0.308496
C86   C     C_R   0.190824 0.094813 0.594366 0.308497
C87   C     C_R   0.309175 0.594811 0.405634 0.308497
C88   C     C_R   0.690824 0.594812 0.594366 0.308498
C89   C     C_R   0.942827 0.141560 0.244438 -0.143264
C90   C     C_R   0.057174 0.141559 0.755564 -0.143263
C91   C     C_R   0.442827 0.641561 0.244439 -0.143264
C92   C     C_R   0.557174 0.641559 0.755564 -0.143264
C93   C     C_R   0.147589 0.143013 0.753124 -0.120661
C94   C     C_R   0.852413 0.143014 0.246879 -0.120659
C95   C     C_R   0.647589 0.643013 0.753124 -0.120660
C96   C     C_R   0.352413 0.643015 0.246880 -0.120657
H1    H     H_    0.196955 0.117339 0.337903 0.128550
H2    H     H_    0.803050 0.117344 0.662103 0.128549
H3    H     H_    0.696950 0.617344 0.337897 0.128549
H4    H     H_    0.303056 0.617349 0.662109 0.128548
H5    H     H_    0.753745 0.750625 0.655950 0.194398
H6    H     H_    0.246237 0.750610 0.344023 0.194398
H7    H     H_    0.253728 0.250639 0.655923 0.194399
H8    H     H_    0.746256 0.250626 0.344051 0.194397
H9    H     H_    0.834592 0.696773 0.773205 0.195298
H10   H     H_    0.165389 0.696750 0.226784 0.195303
H11   H     H_    0.334574 0.196795 0.773193 0.195294
H12   H     H_    0.665409 0.196774 0.226795 0.195298
H13   H     H_    0.828202 0.836347 0.652808 0.208184
H14   H     H_    0.171784 0.836335 0.347170 0.208182
H15   H     H_    0.328188 0.336359 0.652786 0.208185
H16   H     H_    0.671799 0.336348 0.347193 0.208183
H17   H     H_    0.907617 0.780619 0.769873 0.187497
H18   H     H_    0.092368 0.780601 0.230118 0.187498
H19   H     H_    0.407602 0.280639 0.769864 0.187496
H20   H     H_    0.592384 0.280621 0.230127 0.187497
H21   H     H_    0.289952 0.874443 0.009843 0.126720
H22   H     H_    0.710048 0.874442 0.990158 0.126720
H23   H     H_    0.789952 0.374443 0.009843 0.126719
H24   H     H_    0.210048 0.374442 0.990158 0.126719
H25   H     H_    0.881147 0.275239 0.111614 0.129823
H26   H     H_    0.118856 0.275236 0.888392 0.129823
H27   H     H_    0.381147 0.775239 0.111615 0.129823
H28   H     H_    0.618856 0.775236 0.888392 0.129823
H29   H     H_    0.171180 0.823540 0.014579 0.131548
H30   H     H_    0.828820 0.823540 0.985421 0.131547
H31   H     H_    0.671180 0.323540 0.014579 0.131548
H32   H     H_    0.328820 0.323540 0.985421 0.131547
H33   H     H_    0.052992 0.839145 0.320694 0.108964
H34   H     H_    0.947008 0.839145 0.679307 0.108962
H35   H     H_    0.552992 0.339145 0.320693 0.108962
H36   H     H_    0.447007 0.339145 0.679307 0.108960
H37   H     H_    0.205147 0.840970 0.677643 0.094153
H38   H     H_    0.794853 0.840969 0.322358 0.094154
H39   H     H_    0.705147 0.340969 0.677643 0.094154
H40   H     H_    0.294854 0.340969 0.322358 0.094156
H41   H     H_    0.048867 0.898223 0.835441 0.092639
H42   H     H_    0.951133 0.898223 0.164559 0.092639
H43   H     H_    0.548867 0.398223 0.835441 0.092638
H44   H     H_    0.451133 0.398223 0.164559 0.092638
H45   H     H_    0.980036 0.157031 0.231716 0.101125
H46   H     H_    0.019965 0.157029 0.768287 0.101124
H47   H     H_    0.480036 0.657031 0.231716 0.101125
H48   H     H_    0.519965 0.657029 0.768287 0.101124
H49   H     H_    0.193793 0.159218 0.763059 0.101150
H50   H     H_    0.806209 0.159221 0.236946 0.101146
H51   H     H_    0.693793 0.659218 0.763059 0.101147
H52   H     H_    0.306209 0.659221 0.236946 0.101144
H53   H     H_    0.903961 0.101459 0.675075 0.109413
H54   H     H_    0.096039 0.101459 0.324925 0.109415
H55   H     H_    0.403961 0.601458 0.675074 0.109413
H56   H     H_    0.596039 0.601459 0.324925 0.109414
H57   H     H_    0.774911 0.705880 0.336756 0.130459
H58   H     H_    0.225095 0.705886 0.663251 0.130457
H59   H     H_    0.274918 0.205875 0.336763 0.130460
H60   H     H_    0.725088 0.205880 0.663244 0.130458
N1    N     N_R   0.888400 0.921830 0.294620 -0.042725
N2    N     N_R   0.111600 0.921830 0.705380 -0.042725
N3    N     N_R   0.388400 0.421830 0.294620 -0.042724
N4    N     N_R   0.611600 0.421830 0.705380 -0.042725
N5    N     N_R   0.079940 0.922160 0.443410 -0.037935
N6    N     N_R   0.920060 0.922160 0.556590 -0.037935
N7    N     N_R   0.579940 0.422160 0.443410 -0.037935
N8    N     N_R   0.420060 0.422160 0.556590 -0.037935
N9    N     N_R   0.125650 0.922400 0.556620 -0.039498
N10   N     N_R   0.874350 0.922400 0.443380 -0.039498
N11   N     N_R   0.625650 0.422400 0.556620 -0.039498
N12   N     N_R   0.374350 0.422400 0.443380 -0.039499
N13   N     N_R   0.054230 0.922730 0.705400 -0.038897
N14   N     N_R   0.945770 0.922730 0.294600 -0.038897
N15   N     N_R   0.554230 0.422730 0.705400 -0.038897
N16   N     N_R   0.445770 0.422730 0.294600 -0.038897
N17   N     N_R   0.873790 0.077030 0.443380 -0.055851
N18   N     N_R   0.126210 0.077030 0.556620 -0.055851
N19   N     N_R   0.373790 0.577030 0.443380 -0.055851
N20   N     N_R   0.626210 0.577030 0.556620 -0.055851
N21   N     N_R   0.945200 0.076700 0.294600 -0.040252
N22   N     N_R   0.054800 0.076700 0.705400 -0.040252
N23   N     N_R   0.445200 0.576700 0.294600 -0.040252
N24   N     N_R   0.554800 0.576700 0.705400 -0.040252
N25   N     N_R   0.111030 0.077600 0.705380 -0.041998
N26   N     N_R   0.888970 0.077600 0.294620 -0.041998
N27   N     N_R   0.611030 0.577600 0.705380 -0.041998
N28   N     N_R   0.388970 0.577600 0.294620 -0.041997
N29   N     N_R   0.919490 0.077280 0.556590 -0.050693
N30   N     N_R   0.080510 0.077280 0.443410 -0.050693
N31   N     N_R   0.419490 0.577280 0.556590 -0.050693
N32   N     N_R   0.580510 0.577280 0.443410 -0.050693
Ni1   Ni    Ni4+2 0.882160 0.999430 0.370180 0.208232
Ni2   Ni    Ni4+2 0.117840 0.999430 0.629820 0.208232
Ni3   Ni    Ni4+2 0.382160 0.499430 0.370180 0.208232
Ni4   Ni    Ni4+2 0.617840 0.499430 0.629820 0.208232
Ni5   Ni    Ni4+2 0.012460 0.999430 0.370180 0.208186
Ni6   Ni    Ni4+2 0.987540 0.999430 0.629820 0.208186
Ni7   Ni    Ni4+2 0.512460 0.499430 0.370180 0.208186
Ni8   Ni    Ni4+2 0.487540 0.499430 0.629820 0.208186
H61   H     H_    0.779128 0.895447 0.170635 0.081334
H62   H     H_    0.220872 0.895447 0.829365 0.081334
H63   H     H_    0.279128 0.395447 0.170635 0.081335
H64   H     H_    0.720872 0.395448 0.829365 0.081334
H65   H     H_    0.787255 0.281501 0.179554 0.125935
H66   H     H_    0.212745 0.281499 0.820448 0.125936
H67   H     H_    0.287255 0.781501 0.179554 0.125934
H68   H     H_    0.712745 0.781499 0.820448 0.125935
C97   C     C_3   0.745444 0.057843 0.300519 -1.052140
H69   H     H_    0.704885 0.041702 0.308415 0.253575
H70   H     H_    0.721912 0.096625 0.228360 0.235645
H71   H     H_    0.760925 0.003839 0.282161 0.253176
C98   C     C_3   0.254557 0.057846 0.699481 -1.052140
H72   H     H_    0.295113 0.041702 0.691582 0.253576
H73   H     H_    0.278091 0.096629 0.771638 0.235645
H74   H     H_    0.239076 0.003844 0.717844 0.253175
C99   C     C_3   0.245444 0.557841 0.300519 -1.052147
H75   H     H_    0.204885 0.541701 0.308412 0.253576
H76   H     H_    0.221915 0.596621 0.228359 0.235646
H77   H     H_    0.260927 0.503836 0.282164 0.253177
C100  C     C_3   0.754556 0.557843 0.699481 -1.052142
H78   H     H_    0.795114 0.541701 0.691585 0.253576
H79   H     H_    0.778088 0.596625 0.771639 0.235645
H80   H     H_    0.739075 0.503839 0.717839 0.253176

loop_
_geom_bond_atom_site_label_1
_geom_bond_atom_site_label_2
_ccdc_geom_bond_type
C94   H50   S    
C49   H17   S    
C90   N22   A    
C45   H33   S    
C55   C59   D    
N31   Ni8   S    
C27   C29   A    
C1    C77   A    
N30   Ni5   S    
C19   C23   A    
C76   C79   A    
C50   H14   S    
N29   Ni6   S    
C3    C79   A    
N27   Ni4   S    
C94   N26   A    
C44   H8    S    
C85   C97   S    
C39   C41   S    
N23   Ni7   S    
C97   H69   S    
C8    N32   A    
C100  H80   S    
C26   C32   A    
N11   Ni4   S    
C54   H30   S    
N17   N29   A    
N12   Ni3   S    
N21   Ni5   S    
N5    N9    A    
C64   C68   D    
C49   H13   S    
C11   C36   S    
C8    H56   S    
C24   C83   S    
C57   C67   S    
C4    C80   A    
N2    Ni2   S    
N19   Ni3   S    
C72   H40   S    
C2    H62   S    
C68   H68   S    
C6    N30   A    
C52   H16   S    
N21   N26   A    
C14   C62   S    
C29   C33   A    
C58   H22   S    
C98   H74   S    
C5    H53   S    
C88   C100  S    
C61   H25   S    
C17   C39   A    
C59   H23   S    
C76   N16   A    
C45   N5    A    
C14   C90   A    
C36   C40   A    
C18   C40   A    
C19   C37   A    
C9    C85   A    
C46   C82   A    
C93   N25   A    
C20   C24   A    
N32   Ni7   S    
C11   C87   A    
C74   C77   A    
C91   N23   A    
C3    H63   S    
C73   C78   A    
C86   C98   S    
C93   H49   S    
N26   Ni1   S    
C31   H3    S    
N1    Ni1   S    
C92   N24   A    
C75   C80   A    
C14   C93   A    
C71   C83   A    
C85   N17   A    
N24   Ni8   S    
N24   N27   A    
C8    C12   A    
C53   H29   S    
C54   C77   S    
C47   N7    A    
C44   C52   S    
C52   H20   S    
C60   C66   S    
C34   C38   A    
C3    N3    A    
C72   N12   A    
C13   C61   S    
N13   Ni6   S    
C96   N28   A    
C92   H48   S    
C42   H6    S    
C41   C49   S    
C38   C44   S    
N20   N32   A    
C91   H47   S    
C23   C27   A    
C44   H12   S    
C27   H59   S    
C96   H52   S    
C63   C67   D    
C23   C84   S    
C30   C34   A    
C25   H57   S    
N22   N25   A    
C22   C81   S    
N3    Ni3   S    
N8    N12   A    
C95   H51   S    
N4    Ni4   S    
C5    N29   A    
N3    N16   A    
C17   C49   S    
C15   C96   A    
C62   C66   D    
N15   Ni8   S    
C100  H78   S    
C99   H75   S    
N19   N31   A    
C51   H19   S    
C48   C84   A    
C47   H35   S    
C86   N18   A    
C6    H54   S    
C37   C43   S    
C35   C39   A    
C5    C9    A    
C2    C78   A    
C61   C65   D    
N1    N14   A    
C20   C38   A    
N25   Ni2   S    
C7    C11   A    
N7    Ni7   S    
N7    N11   A    
C2    N2    A    
C12   C88   A    
C28   H60   S    
N9    Ni2   S    
N6    Ni6   S    
C98   H72   S    
C87   C99   S    
N28   Ni3   S    
N5    Ni5   S    
C43   H11   S    
C12   C35   S    
C56   C79   S    
C72   C84   A    
C41   H9    S    
C51   H15   S    
C69   C81   A    
C7    H55   S    
C58   C68   S    
C42   H10   S    
C42   C50   S    
C16   C92   A    
C47   C83   A    
C89   N21   A    
C75   N15   A    
C9    C34   S    
C31   C35   A    
C26   H58   S    
C100  H79   S    
C76   H44   S    
C73   N13   A    
C32   C36   A    
N18   Ni2   S    
C18   C50   S    
C57   H21   S    
N23   N28   A    
C54   C58   D    
C97   H71   S    
C7    N31   A    
C21   C25   A    
C10   C86   A    
C16   C95   A    
C53   C57   D    
N22   Ni6   S    
C65   H65   S    
C13   C89   A    
C18   C22   A    
C62   H26   S    
C25   C31   A    
C1    H61   S    
C24   C28   A    
C55   H31   S    
C40   C42   S    
C43   H7    S    
C46   H34   S    
N14   Ni5   S    
C63   H27   S    
N8    Ni8   S    
N2    N13   A    
C99   H77   S    
C48   N8    A    
C69   H37   S    
C90   H46   S    
C87   N19   A    
C30   H2    S    
C88   N20   A    
C29   H1    S    
C13   C94   A    
N10   Ni1   S    
C1    N1    A    
C53   C78   S    
C99   H76   S    
C28   C30   A    
C20   C52   S    
C64   H28   S    
C59   C65   S    
C71   H39   S    
C55   C80   S    
C74   H42   S    
C95   N27   A    
C4    N4    A    
C73   H41   S    
C43   C51   S    
C19   C51   S    
C89   H45   S    
C71   N11   A    
N17   Ni1   S    
C98   H73   S    
N4    N15   A    
C41   H5    S    
C33   C37   A    
C60   H24   S    
C10   C33   S    
C45   C81   A    
C56   H32   S    
C70   C82   A    
C69   N9    A    
C74   N14   A    
C70   N10   A    
C67   H67   S    
C6    C10   A    
C15   C91   A    
C66   H66   S    
C32   H4    S    
N20   Ni4   S    
C4    H64   S    
N6    N10   A    
C56   C60   D    
C21   C82   S    
C22   C26   A    
C70   H38   S    
C15   C63   S    
C48   H36   S    
N16   Ni7   S    
C75   H43   S    
C16   C64   S    
C50   H18   S    
C97   H70   S    
C46   N6    A    
N18   N30   A    
C17   C21   A    
