data_mof_unit_55194.cif
_audit_creation_date              2012-12-10T18:57:11-0500
_audit_creation_method            fapswitch 2.2
_symmetry_space_group_name_H-M    P1
_symmetry_Int_Tables_number       1
_space_group_crystal_system       triclinic
_cell_length_a                    10.72477
_cell_length_b                    9.88531
_cell_length_c                    10.820603
_cell_angle_alpha                 92.322156
_cell_angle_beta                  92.580348
_cell_angle_gamma                 90.733139
_cell_volume                      1144.94810171

loop_
_atom_site_label
_atom_site_type_symbol
_atom_type_description
_atom_site_fract_x
_atom_site_fract_y
_atom_site_fract_z
_atom_type_partial_charge
C1    C     C_R   0.261779 0.499943 0.516038 0.934972
C2    C     C_R   0.505886 0.619388 0.943535 -0.167123
C3    C     C_R   0.490225 0.492850 0.126861 -0.281076
C4    C     C_R   0.473928 0.504155 0.869937 -0.222820
C5    C     C_R   0.449802 0.377070 0.054089 0.373915
C6    C     C_R   0.430919 0.386888 0.926460 0.348036
C7    C     C_3   0.614354 0.717252 0.943049 0.421893
C8    C     C_3   0.625384 0.706201 0.084574 0.393745
C9    C     C_R   0.062940 0.376779 0.530444 0.380011
C10   C     C_R   0.938409 0.375746 0.493315 0.355005
C11   C     C_R   0.875146 0.499819 0.486369 -0.284382
C12   C     C_R   0.740240 0.499987 0.490628 0.955208
C13   C     C_R   0.129553 0.499995 0.536591 -0.283844
C14   C     C_R   0.941881 0.624200 0.496553 0.096315
C15   C     C_R   0.066500 0.624126 0.538327 0.080547
C16   C     C_R   0.584899 0.076817 0.572449 0.386036
C17   C     C_R   0.412434 0.067097 0.430332 0.388612
C18   C     C_R   0.588179 0.933671 0.568266 0.285726
C19   C     C_R   0.412870 0.923557 0.429732 0.366887
C20   C     C_R   0.499148 0.497032 0.259758 0.922575
C21   C     C_R   0.492914 0.501891 0.739368 0.978520
C22   C     C_R   0.512442 0.613851 0.070050 -0.018621
Cl1   Cl    Cl    0.441337 0.213763 0.112983 -0.381348
Cl2   Cl    Cl    0.303569 0.830903 0.332641 -0.409621
Cl3   Cl    Cl    0.355831 0.249360 0.840831 -0.437264
Cl4   Cl    Cl    0.745994 0.653376 0.862700 -0.479321
Cl5   Cl    Cl    0.600070 0.858405 0.175690 -0.477895
Cl6   Cl    Cl    0.128338 0.224806 0.583871 -0.393497
Cl7   Cl    Cl    0.871156 0.217825 0.439516 -0.415112
Cl8   Cl    Cl    0.686802 0.169663 0.677360 -0.374684
Cl9   Cl    Cl    0.293617 0.146857 0.344803 -0.347755
Cl10  Cl    Cl    0.712680 0.857060 0.646283 -0.419943
H1    H     H_    0.498543 0.884100 0.951228 0.243190
H2    H     H_    0.538129 0.837958 0.811349 0.223916
H3    H     H_    0.742947 0.540154 0.087069 0.212701
H4    H     H_    0.729699 0.620915 0.223650 0.165481
H5    H     H_    0.858791 0.733575 0.363842 0.213299
H6    H     H_    0.947923 0.828979 0.460960 0.262141
H7    H     H_    0.193295 0.725435 0.654551 0.202044
H8    H     H_    0.063421 0.805471 0.633879 0.246594
N1    N     N_R   0.500000 0.857200 0.500000 -0.205296
N2    N     N_R   0.500000 0.142810 0.500000 -0.201159
N3    N     N_3   0.574726 0.850523 0.901983 -0.297453
N4    N     N_3   0.737998 0.636803 0.129627 -0.372609
N5    N     N_3   0.884671 0.747625 0.457617 -0.312582
N6    N     N_3   0.127486 0.748419 0.584493 -0.348704
O1    O     O_R   0.316770 0.614620 0.499990 -0.589292
O2    O     O_R   0.683230 0.614620 0.500010 -0.557764
O3    O     O_R   0.316800 0.385290 0.500000 -0.542653
O4    O     O_R   0.683200 0.385290 0.500000 -0.548617
O5    O     O_R   0.500000 0.614690 0.316780 -0.564528
O6    O     O_R   0.500000 0.614690 0.683220 -0.624808
O7    O     O_R   0.500020 0.385360 0.316780 -0.558714
O8    O     O_R   0.499980 0.385360 0.683220 -0.547657
Zn1   Zn    Zn3+2 0.500000 0.653120 0.500000 1.076528
Zn2   Zn    Zn3+2 0.500000 0.346880 0.500000 1.152245

loop_
_geom_bond_atom_site_label_1
_geom_bond_atom_site_label_2
_ccdc_geom_bond_type
C2    C22   A    
O2    Zn1   S    
C8    C22   S    
C11   C12   S    
C4    C21   S    
C7    N3    S    
C20   O5    A    
O3    Zn2   S    
O4    Zn2   S    
C9    C10   A    
C2    C4    A    
C2    C7    S    
C5    Cl1   S    
O6    Zn1   S    
C12   O2    A    
O7    Zn2   S    
C19   Cl2   S    
O1    Zn1   S    
C19   N1    A    
C7    C8    S    
H8    N6    S    
H3    N4    S    
C10   Cl7   S    
C5    C6    A    
C7    Cl4   S    
C1    O3    A    
H7    N6    S    
C4    C6    A    
C17   C19   A    
C14   N5    S    
O5    Zn1   S    
C13   C15   A    
C21   O8    A    
C17   Cl9   S    
C11   C14   A    
O8    Zn2   S    
H4    N4    S    
C6    Cl3   S    
C18   Cl10  S    
C10   C11   A    
H5    N5    S    
H1    N3    S    
C16   N2    A    
C3    C20   S    
C1    C13   S    
C16   C18   A    
C18   N1    A    
C8    Cl5   S    
C9    C13   A    
C14   C15   A    
C1    O1    A    
H6    N5    S    
C3    C5    A    
C15   N6    S    
N2    Zn2   S    
C17   N2    A    
C16   Cl8   S    
C12   O4    A    
C21   O6    A    
N1    Zn1   S    
H2    N3    S    
C8    N4    S    
C9    Cl6   S    
C20   O7    A    
C3    C22   A    
