data_mof_unit_57229.cif
_audit_creation_date              2013-03-05T15:44:27-0500
_audit_creation_method            fapswitch 2.2
_symmetry_space_group_name_H-M    P1
_symmetry_Int_Tables_number       1
_space_group_crystal_system       triclinic
_cell_length_a                    20.437152
_cell_length_b                    7.228927
_cell_length_c                    19.432675
_cell_angle_alpha                 90.0
_cell_angle_beta                  98.260365
_cell_angle_gamma                 89.999956
_cell_volume                      2841.17274845

loop_
_atom_site_label
_atom_site_type_symbol
_atom_site_description
_atom_site_fract_x
_atom_site_fract_y
_atom_site_fract_z
_atom_type_partial_charge
O1    O     O_R   0.673210 0.377390 0.686390 -0.525079
O2    O     O_R   0.326790 0.622610 0.313610 -0.514850
O3    O     O_R   0.826790 0.877390 0.813610 -0.525081
O4    O     O_R   0.173210 0.122610 0.186390 -0.514851
O5    O     O_R   0.810750 0.706450 0.681250 -0.541802
O6    O     O_R   0.189250 0.293550 0.318750 -0.544800
O7    O     O_R   0.689250 0.206450 0.818750 -0.541800
O8    O     O_R   0.310750 0.793550 0.181250 -0.544799
C1    C     C_R   0.830406 0.537461 0.664428 0.832272
C2    C     C_R   0.169498 0.462082 0.335281 0.846540
C3    C     C_R   0.669594 0.037461 0.835572 0.832275
C4    C     C_R   0.330502 0.962082 0.164719 0.846542
O9    O     O_R   0.672750 0.707060 0.678240 -0.552675
O10   O     O_R   0.327250 0.292940 0.321760 -0.549407
O11   O     O_R   0.827250 0.207060 0.821760 -0.552677
O12   O     O_R   0.172750 0.792940 0.178240 -0.549407
O13   O     O_R   0.687800 0.877990 0.810580 -0.520924
O14   O     O_R   0.312200 0.122010 0.189420 -0.526093
O15   O     O_R   0.812200 0.377990 0.689420 -0.520929
O16   O     O_R   0.187800 0.622010 0.310580 -0.526094
C5    C     C_R   0.648789 0.539445 0.661121 0.849388
C6    C     C_R   0.351083 0.461067 0.339258 0.835830
C7    C     C_R   0.851210 0.039445 0.838879 0.849388
C8    C     C_R   0.148917 0.961067 0.160742 0.835831
O17   O     O_3   0.755100 0.544060 0.793420 -0.231088
O18   O     O_3   0.244900 0.455940 0.206580 -0.229590
O19   O     O_3   0.744900 0.044060 0.706580 -0.231089
O20   O     O_3   0.255100 0.955940 0.293420 -0.229590
V1    V     V_3+5 0.749050 0.818670 0.741950 1.312222
V2    V     V_3+5 0.250950 0.181330 0.258050 1.318010
V3    V     V_3+5 0.750950 0.318670 0.758050 1.312222
V4    V     V_3+5 0.249050 0.681330 0.241950 1.318010
C9    C     C_R   0.088521 0.962340 0.106818 -0.163341
C10   C     C_R   0.911539 0.039946 0.892576 -0.168976
C11   C     C_R   0.411478 0.462340 0.393182 -0.163341
C12   C     C_R   0.588460 0.539946 0.607425 -0.168980
C13   C     C_R   0.006034 0.216151 0.948894 -0.003868
C14   C     C_R   0.993273 0.787595 0.050625 -0.021821
C15   C     C_R   0.493966 0.716152 0.551106 -0.003867
C16   C     C_R   0.506726 0.287593 0.449376 -0.021818
C17   C     C_R   0.953418 0.194333 0.895568 -0.086744
C18   C     C_R   0.046176 0.808550 0.103816 -0.099652
C19   C     C_R   0.546582 0.694333 0.604433 -0.086740
C20   C     C_R   0.453824 0.308548 0.396185 -0.099652
C21   C     C_R   0.925868 0.899625 0.943355 0.312535
C22   C     C_R   0.074635 0.102605 0.055545 0.320112
C23   C     C_R   0.574130 0.399624 0.556646 0.312539
C24   C     C_R   0.425365 0.602606 0.444455 0.320113
C25   C     C_R   0.980322 0.920072 0.997544 -0.033762
C26   C     C_R   0.020888 0.080215 0.000541 -0.039504
C27   C     C_R   0.519678 0.420071 0.502457 -0.033761
C28   C     C_R   0.479112 0.580215 0.499459 -0.039508
H1    H     H_    0.054119 0.701924 0.143276 0.140820
H2    H     H_    0.944586 0.302531 0.856770 0.136934
H3    H     H_    0.445880 0.201922 0.356725 0.140824
H4    H     H_    0.555413 0.802530 0.643231 0.136938
H5    H     H_    0.033901 0.343212 0.949432 0.156448
H6    H     H_    0.962567 0.666112 0.051843 0.151010
H7    H     H_    0.466098 0.843213 0.550568 0.156451
H8    H     H_    0.537432 0.166109 0.448159 0.151010
C29   C     C_R   0.575590 0.168820 0.889580 -0.087030
C30   C     C_R   0.424764 0.830986 0.111552 -0.078640
C31   C     C_R   0.924411 0.668820 0.610421 -0.087031
C32   C     C_R   0.075236 0.330986 0.388448 -0.078639
C33   C     C_R   0.620695 0.023833 0.886059 -0.208128
C34   C     C_R   0.379057 0.974342 0.114153 -0.201988
C35   C     C_R   0.879305 0.523834 0.613941 -0.208127
C36   C     C_R   0.120944 0.474342 0.385848 -0.201988
C37   C     C_R   0.616970 0.866040 0.929219 0.348009
C38   C     C_R   0.381968 0.130878 0.070561 0.337885
C39   C     C_R   0.883029 0.366042 0.570780 0.348007
C40   C     C_R   0.118032 0.630877 0.429440 0.337886
C41   C     C_R   0.568798 0.856866 0.974873 -0.027533
C42   C     C_R   0.430513 0.141863 0.025419 -0.030940
C43   C     C_R   0.931202 0.356867 0.525127 -0.027532
C44   C     C_R   0.069487 0.641862 0.474582 -0.030940
C45   C     C_R   0.524217 0.004849 0.977755 -0.062187
C46   C     C_R   0.475908 0.995370 0.023348 -0.062254
C47   C     C_R   0.975784 0.504848 0.522246 -0.062187
C48   C     C_R   0.024093 0.495369 0.476652 -0.062255
C49   C     C_R   0.527359 0.161109 0.934532 0.051200
C50   C     C_R   0.472590 0.838507 0.066302 0.052181
C51   C     C_R   0.972641 0.661108 0.565469 0.051201
C52   C     C_R   0.027410 0.338507 0.433699 0.052180
C53   C     C_R   0.563844 0.700458 0.017180 -0.076316
C54   C     C_R   0.433509 0.294661 0.980970 -0.083238
C55   C     C_R   0.936155 0.200459 0.482820 -0.076315
C56   C     C_R   0.066492 0.794661 0.519031 -0.083238
C57   C     C_R   0.516867 0.690842 0.063215 0.373538
C58   C     C_R   0.481608 0.306201 0.936073 0.370032
C59   C     C_R   0.983133 0.190843 0.436785 0.373538
C60   C     C_R   0.018392 0.806200 0.563928 0.370032
H9    H     H_    0.577147 0.286633 0.855479 0.186384
H10   H     H_    0.423588 0.714024 0.146156 0.183795
H11   H     H_    0.922854 0.786633 0.644521 0.186378
H12   H     H_    0.076412 0.214025 0.353844 0.183796
H13   H     H_    0.595935 0.582645 0.014403 0.139230
H14   H     H_    0.398448 0.406819 0.980649 0.133914
H15   H     H_    0.904064 0.082647 0.485596 0.139230
H16   H     H_    0.101553 0.906818 0.519352 0.133914
N1    N     N_R   0.114890 0.265670 0.058581 0.093154
O21   O     O_R   0.145701 0.307658 0.006617 -0.307702
O22   O     O_R   0.109937 0.389462 0.106091 -0.361136
N2    N     N_R   0.882945 0.743243 0.942645 0.083410
O23   O     O_R   0.904524 0.578060 0.932121 -0.388010
O24   O     O_R   0.821663 0.766653 0.951141 -0.289486
N3    N     N_R   0.385111 0.765675 0.441416 0.093153
O25   O     O_R   0.354300 0.807668 0.493379 -0.307701
O26   O     O_R   0.390066 0.889462 0.393906 -0.361141
N4    N     N_R   0.617051 0.243236 0.557358 0.083408
O27   O     O_R   0.595470 0.078059 0.567885 -0.388018
O28   O     O_R   0.678333 0.266636 0.548859 -0.289479
N5    N     N_R   0.662701 0.716200 0.928293 0.098564
O29   O     O_R   0.704343 0.681692 0.983929 -0.308106
O30   O     O_R   0.649675 0.586651 0.881947 -0.341822
N6    N     N_R   0.333462 0.273966 0.069415 0.087916
O31   O     O_R   0.350271 0.437816 0.093245 -0.354820
O32   O     O_R   0.271529 0.235576 0.050009 -0.295619
N7    N     N_R   0.837295 0.216210 0.571702 0.098562
O33   O     O_R   0.795654 0.181716 0.516064 -0.308107
O34   O     O_R   0.850318 0.086652 0.618045 -0.341817
N8    N     N_R   0.166538 0.773967 0.430585 0.087915
O35   O     O_R   0.149728 0.937816 0.406754 -0.354821
O36   O     O_R   0.228471 0.735580 0.449992 -0.295620
O37   O     O_3   0.513077 0.537527 0.105051 -0.720825
H17   H     H_    0.546964 0.445917 0.096068 0.306133
O38   O     O_3   0.484371 0.457549 0.893051 -0.724098
H18   H     H_    0.449798 0.547838 0.901292 0.306387
O39   O     O_3   0.986923 0.037528 0.394949 -0.720824
H19   H     H_    0.953036 0.945918 0.403932 0.306133
O40   O     O_3   0.015630 0.957548 0.606950 -0.724102
H20   H     H_    0.050202 0.047838 0.598709 0.306387

loop_
_geom_bond_atom_site_label_1
_geom_bond_atom_site_label_2
_geom_bond_distance
_ccdc_geom_bond_type
O17   V3    1.765667 S    
C39   C43   1.418349 A    
O1    C5    1.338724 A    
N1    O21   1.300390 A    
C16   H8    1.081592 S    
C55   C59   1.404869 A    
O19   V1    1.765668 S    
O13   V1    2.002295 S    
O3    C7    1.338722 A    
C40   C44   1.417821 A    
O15   V3    2.002299 S    
N2    O24   1.297661 A    
C14   C25   1.404548 A    
C57   O37   1.383247 S    
C45   C46   1.419787 A    
O7    C3    1.341011 A    
C6    C11   1.500015 S    
C37   N5    1.432452 S    
C50   C57   1.406238 A    
C9    C18   1.404929 A    
C32   C36   1.400947 A    
O9    V1    2.015093 S    
C14   C18   1.392548 A    
C18   H1    1.082919 S    
O4    C8    1.336983 A    
C29   H9    1.082365 S    
C24   N3    1.433846 S    
C31   H11   1.082365 S    
O1    V3    2.001964 S    
N6    O31   1.299881 A    
C12   C23   1.416114 A    
O2    V4    2.001966 S    
O3    V1    2.001968 S    
C38   C42   1.417821 A    
C32   C52   1.406599 A    
N4    O27   1.299259 A    
C1    O15   1.324842 A    
C56   C60   1.407459 A    
C2    O16   1.326088 A    
O2    C6    1.336983 A    
C58   O38   1.383008 S    
C37   C41   1.418348 A    
O14   V2    2.002295 S    
C52   C59   1.406238 A    
C45   C49   1.414604 A    
C44   C56   1.408937 A    
C16   C20   1.392546 A    
C55   H15   1.080988 S    
C48   C52   1.415421 A    
O11   C7    1.331092 A    
C15   C28   1.406256 A    
C30   C50   1.406598 A    
O12   C8    1.335071 A    
C14   H6    1.081591 S    
C9    C22   1.421328 A    
N3    O26   1.300112 A    
C10   C17   1.402559 A    
O10   V2    2.015091 S    
C11   C24   1.421330 A    
N2    O23   1.299262 A    
O5    V1    2.016659 S    
N7    O34   1.300055 A    
C22   N1    1.433844 S    
C31   C35   1.403949 A    
O7    V3    2.016658 S    
C30   C34   1.400947 A    
C27   C28   1.420227 A    
O8    V4    2.016657 S    
C60   O40   1.383007 S    
C32   H12   1.082726 S    
C54   C58   1.407458 A    
C5    C12   1.496438 S    
C53   C57   1.404871 A    
O18   V4    1.765667 S    
C15   C19   1.390993 A    
C38   N6    1.430677 S    
C4    C34   1.496089 S    
O4    V2    2.001968 S    
C31   C51   1.408968 A    
C36   C40   1.419893 A    
C1    C35   1.500892 S    
O5    C1    1.341009 A    
C51   C60   1.408303 A    
C21   N2    1.429763 S    
C46   C50   1.415422 A    
C21   C25   1.425650 A    
O8    C4    1.337045 A    
C7    C10   1.496439 S    
C15   H7    1.080014 S    
O9    C5    1.331092 A    
C10   C21   1.416116 A    
C42   C54   1.408937 A    
C11   C20   1.404929 A    
C41   C53   1.410130 A    
C56   H16   1.081457 S    
C49   C58   1.408302 A    
C43   C55   1.410130 A    
O6    V2    2.016658 S    
C30   H10   1.082726 S    
O37   H17   0.991673 S    
N3    O25   1.300393 A    
N8    O36   1.297752 A    
O38   H18   0.991675 S    
C23   N4    1.429758 S    
N5    O29   1.300397 A    
O16   V4    2.002299 S    
C3    O13   1.324842 A    
C40   N8    1.430676 S    
C3    C33   1.500891 S    
C44   C48   1.412266 A    
O6    C2    1.337044 A    
C23   C27   1.425649 A    
N7    O33   1.300395 A    
O11   V3    2.015091 S    
C59   O39   1.383248 S    
C2    C36   1.496090 S    
O12   V4    2.015091 S    
C16   C27   1.404549 A    
C22   C26   1.427543 A    
C8    C9    1.500015 S    
C39   N7    1.432448 S    
O10   C6    1.335071 A    
O20   V2    1.765666 S    
O39   H19   0.991673 S    
C29   C49   1.408967 A    
C47   C51   1.414603 A    
C13   C26   1.406256 A    
C20   H3    1.082921 S    
C34   C38   1.419893 A    
C33   C37   1.424331 A    
N6    O32   1.297752 A    
C35   C39   1.424328 A    
C13   C17   1.390990 A    
C54   H14   1.081458 S    
N4    O28   1.297661 A    
C17   H2    1.083365 S    
C53   H13   1.080987 S    
C47   C48   1.419787 A    
C29   C33   1.403947 A    
C19   H4    1.083364 S    
C24   C28   1.427541 A    
N1    O22   1.300111 A    
C25   C26   1.420227 A    
C42   C46   1.412266 A    
C4    O14   1.326088 A    
C41   C45   1.411491 A    
C12   C19   1.402558 A    
N8    O35   1.299879 A    
C43   C47   1.411489 A    
C13   H5    1.080015 S    
O40   H20   0.991674 S    
N5    O30   1.300058 A    
