data_mof_unit_34302.cif
_audit_creation_date              2013-03-05T17:03:54-0500
_audit_creation_method            fapswitch 2.2
_symmetry_space_group_name_H-M    P1
_symmetry_Int_Tables_number       1
_space_group_crystal_system       triclinic
_cell_length_a                    10.762406
_cell_length_b                    16.083464
_cell_length_c                    16.716085
_cell_angle_alpha                 88.084526
_cell_angle_beta                  89.365602
_cell_angle_gamma                 93.093985
_cell_volume                      2887.42775918

loop_
_atom_site_label
_atom_site_type_symbol
_atom_site_description
_atom_site_fract_x
_atom_site_fract_y
_atom_site_fract_z
_atom_type_partial_charge
O1    O     O_R   0.494530 0.422540 0.612660 -0.634190
O2    O     O_R   0.505470 0.577460 0.387340 -0.627479
O3    O     O_R   0.504350 0.561840 0.618900 -0.628040
O4    O     O_R   0.495650 0.438160 0.381100 -0.619967
C1    C     C_R   0.489843 0.489451 0.653223 0.888154
C2    C     C_R   0.505831 0.510710 0.347264 0.892505
O5    O     O_R   0.678330 0.430350 0.496870 -0.623409
O6    O     O_R   0.321670 0.569650 0.503130 -0.621020
O7    O     O_R   0.688150 0.569660 0.503110 -0.606870
O8    O     O_R   0.311850 0.430340 0.496890 -0.613962
C3    C     C_R   0.740318 0.500697 0.499207 0.873651
C4    C     C_R   0.259732 0.499218 0.499928 0.859806
Zn1   Zn    Zn3+2 0.493440 0.406980 0.495830 0.934728
Zn2   Zn    Zn3+2 0.506560 0.593020 0.504170 0.942204
H1    H     H_    0.784833 0.879237 0.410826 0.130813
H2    H     H_    0.230922 0.124121 0.592660 0.133410
C5    C     C_R   0.821584 0.758869 0.364001 0.242971
C6    C     C_R   0.218071 0.250982 0.630240 0.237047
C7    C     C_R   0.863176 0.679322 0.383104 -0.168736
C8    C     C_R   0.170585 0.328711 0.610913 -0.114405
H3    H     H_    0.871695 0.634675 0.336626 0.110336
H4    H     H_    0.187116 0.379780 0.650377 0.115232
C9    C     C_R   0.896937 0.658186 0.461709 0.117689
C10   C     C_R   0.103666 0.340873 0.540164 0.102510
C11   C     C_R   0.892027 0.717606 0.520987 -0.144619
C12   C     C_R   0.080842 0.273556 0.490049 -0.171443
H5    H     H_    0.919897 0.702518 0.581593 0.126440
H6    H     H_    0.028552 0.281520 0.435578 0.133126
C13   C     C_R   0.852125 0.796980 0.502106 -0.181555
C14   C     C_R   0.126063 0.195792 0.509657 -0.181989
H7    H     H_    0.848770 0.842689 0.548038 0.141818
H8    H     H_    0.108847 0.144325 0.470451 0.143285
C15   C     C_R   0.816135 0.817485 0.424191 -0.142174
C16   C     C_R   0.194919 0.184520 0.579152 -0.148185
C17   C     C_R   0.073205 0.572371 0.483069 -0.263494
C18   C     C_R   0.926767 0.426787 0.516420 -0.257292
H9    H     H_    0.129931 0.628930 0.468915 0.169505
H10   H     H_    0.869733 0.370394 0.530627 0.168483
C19   C     C_R   0.127223 0.497345 0.501572 -0.085766
C20   C     C_R   0.872834 0.501988 0.498145 -0.085115
C21   C     C_R   0.053858 0.423137 0.519051 0.013050
C22   C     C_R   0.946371 0.575942 0.481220 0.002156
C23   C     C_R   0.465613 0.483457 0.739701 -0.098319
C24   C     C_R   0.524770 0.516404 0.261714 -0.071511
C25   C     C_R   0.394482 0.542382 0.780382 0.109222
C26   C     C_R   0.639572 0.497479 0.225708 0.060818
C27   C     C_R   0.387742 0.536660 0.865236 0.146459
C28   C     C_R   0.650074 0.498717 0.140632 0.135465
C29   C     C_R   0.440251 0.468647 0.905419 0.255709
C30   C     C_R   0.540121 0.510366 0.096183 0.287181
C31   C     C_R   0.499619 0.408292 0.863992 -0.213009
C32   C     C_R   0.429986 0.531812 0.134530 -0.226162
C33   C     C_R   0.514265 0.416421 0.781993 -0.285111
C34   C     C_R   0.423184 0.536002 0.216229 -0.286164
N1    N     N_2   0.443290 0.465214 0.989036 -0.196315
N2    N     N_2   0.539120 0.503150 0.012677 -0.192925
H11   H     H_    0.540188 0.357049 0.896158 0.154021
H12   H     H_    0.347412 0.544128 0.100700 0.165615
H13   H     H_    0.566376 0.370838 0.751511 0.161242
H14   H     H_    0.336220 0.550826 0.244383 0.149649
N3    N     N_R   0.515300 0.716920 0.509720 -0.079885
N4    N     N_R   0.484700 0.283080 0.490280 -0.087292
C35   C     C_R   0.463604 0.763248 0.450329 -0.010512
C36   C     C_R   0.541980 0.237053 0.547492 -0.029050
C37   C     C_R   0.464872 0.850466 0.453520 -0.279455
C38   C     C_R   0.539555 0.149790 0.544678 -0.288383
C39   C     C_R   0.519051 0.890933 0.519332 0.327089
C40   C     C_R   0.477712 0.108949 0.481745 0.322420
C41   C     C_R   0.570629 0.841350 0.579654 -0.319055
C42   C     C_R   0.419528 0.158221 0.423979 -0.306231
C43   C     C_R   0.567936 0.754424 0.573852 0.006733
C44   C     C_R   0.423810 0.245231 0.429270 0.019164
N5    N     N_2   0.524369 0.979686 0.527585 -0.196310
N6    N     N_2   0.471966 0.020170 0.473598 -0.194968
H15   H     H_    0.590194 0.268133 0.595459 0.126704
H16   H     H_    0.420294 0.732446 0.400442 0.125758
H17   H     H_    0.586073 0.115158 0.591036 0.151644
H18   H     H_    0.423482 0.885355 0.405166 0.150689
H19   H     H_    0.613217 0.870010 0.631028 0.138292
H20   H     H_    0.370789 0.129262 0.374953 0.140505
H21   H     H_    0.608243 0.716941 0.620711 0.127816
H22   H     H_    0.378366 0.282563 0.384495 0.135270
C45   C     C_3   0.787734 0.782003 0.279174 -0.468094
C46   C     C_3   0.670106 0.733311 0.253661 -0.825266
H23   H     H_    0.685036 0.665695 0.255185 0.257666
H24   H     H_    0.590996 0.745491 0.293965 0.261834
H25   H     H_    0.646408 0.752728 0.191572 0.243235
H26   H     H_    0.772025 0.849650 0.272773 0.204518
H27   H     H_    0.866006 0.769088 0.238300 0.201751
C47   C     C_3   0.297062 0.240052 0.703380 -0.439360
C48   C     C_3   0.223263 0.251171 0.780442 -0.865993
H28   H     H_    0.192182 0.315745 0.783300 0.259650
H29   H     H_    0.140852 0.206480 0.784014 0.258258
H30   H     H_    0.283241 0.239290 0.832773 0.254426
H31   H     H_    0.335245 0.177158 0.705860 0.200087
H32   H     H_    0.377375 0.286304 0.699749 0.224639
C49   C     C_3   0.749404 0.477118 0.278600 -0.429611
C50   C     C_3   0.755779 0.383385 0.295026 -0.810112
H33   H     H_    0.836488 0.371591 0.333852 0.240204
H34   H     H_    0.670201 0.357340 0.326194 0.281319
H35   H     H_    0.767132 0.350124 0.238617 0.238200
H36   H     H_    0.839194 0.502446 0.252541 0.188871
H37   H     H_    0.742725 0.507939 0.336525 0.193828
C51   C     C_3   0.320014 0.606387 0.734145 -0.403680
C52   C     C_3   0.209793 0.564229 0.692405 -0.836525
H38   H     H_    0.161115 0.610912 0.655702 0.250588
H39   H     H_    0.242203 0.516080 0.653274 0.241124
H40   H     H_    0.143095 0.534072 0.736965 0.245118
H41   H     H_    0.279866 0.653145 0.771957 0.206733
H42   H     H_    0.379294 0.644699 0.691134 0.225927
C53   C     C_3   0.778692 0.487976 0.102381 -0.418374
C54   C     C_3   0.792349 0.489759 0.011176 -0.847411
H43   H     H_    0.739351 0.435981 0.985611 0.269846
H44   H     H_    0.763381 0.549823 0.984698 0.267072
H45   H     H_    0.891881 0.484280 0.994918 0.238402
H46   H     H_    0.842934 0.539059 0.122975 0.198195
H47   H     H_    0.814135 0.428063 0.124431 0.218424
C55   C     C_3   0.328956 0.602720 0.914640 -0.409770
C56   C     C_3   0.190109 0.582508 0.928834 -0.881982
H48   H     H_    0.139480 0.582025 0.871473 0.264922
H49   H     H_    0.174975 0.520677 0.960077 0.261528
H50   H     H_    0.151279 0.630379 0.966848 0.245966
H51   H     H_    0.373789 0.608322 0.973555 0.214222
H52   H     H_    0.346481 0.666251 0.887891 0.183607

loop_
_geom_bond_atom_site_label_1
_geom_bond_atom_site_label_2
_geom_bond_distance
_ccdc_geom_bond_type
C38   C40   1.412681 A    
N1    N2    1.244733 D    
C35   C37   1.404899 A    
N5    N6    1.252236 D    
C17   C19   1.394452 A    
C53   C54   1.529198 S    
C46   H25   1.110204 S    
C54   H44   1.110547 S    
C49   C50   1.528625 S    
C33   H13   1.083828 S    
C47   H31   1.111882 S    
C27   C29   1.411779 A    
C34   H14   1.084498 S    
O5    C3    1.284046 A    
C52   H39   1.098729 S    
C9    C22   1.479913 S    
O1    C1    1.293948 A    
C17   H9    1.085661 S    
C10   C12   1.403868 A    
C51   H41   1.101175 S    
C35   H16   1.081383 S    
C40   N6    1.436945 S    
C13   C15   1.396929 A    
C41   C43   1.403424 A    
C25   C27   1.419145 A    
O4    Zn1   1.965594 S    
N3    C35   1.363041 A    
C17   C22   1.369985 A    
C55   C56   1.526284 S    
C54   H43   1.110372 S    
N4    C36   1.362966 A    
H2    C16   1.082910 S    
C23   C33   1.398069 A    
C27   C55   1.526685 S    
Zn1   N4    1.995192 S    
C8    C10   1.405070 A    
C24   C26   1.420517 A    
C29   C31   1.390039 A    
C30   C32   1.406044 A    
C53   H46   1.111037 S    
C39   N5    1.436819 S    
C14   H8    1.082330 S    
C49   H36   1.107187 S    
N3    C43   1.361545 A    
C28   C30   1.421839 A    
C45   H26   1.111874 S    
C1    C23   1.465133 S    
C2    C24   1.441445 S    
C10   C21   1.487278 S    
C18   C21   1.373354 A    
O2    C2    1.284463 A    
C5    C15   1.404495 A    
O8    C4    1.270673 A    
C51   C52   1.522118 S    
C32   C34   1.370939 A    
C56   H49   1.110923 S    
C11   C13   1.396070 A    
C45   H27   1.111414 S    
C52   H40   1.109866 S    
C26   C28   1.424764 A    
C14   C16   1.396801 A    
C42   H20   1.082767 S    
C6    C47   1.507709 S    
C18   C20   1.395756 A    
C46   H23   1.107347 S    
O4    C2    1.278341 A    
C48   H28   1.110527 S    
C37   C39   1.412436 A    
C29   N1    1.397805 S    
Zn2   N3    1.995190 S    
C30   N2    1.404676 S    
C39   C41   1.402600 A    
C36   C38   1.404698 A    
C7    C9    1.402908 A    
O7    Zn2   2.009945 S    
C25   C51   1.532646 S    
C48   H29   1.110859 S    
O7    C3    1.273181 A    
C45   C46   1.524832 S    
O6    C4    1.285993 A    
N4    C44   1.361368 A    
C55   H52   1.107407 S    
C6    C16   1.403921 A    
C49   H37   1.105825 S    
O3    Zn2   1.965591 S    
C32   H12   1.082341 S    
C31   H11   1.083245 S    
C40   C42   1.402991 A    
C26   C49   1.527029 S    
C8    H4    1.079135 S    
C12   C14   1.396570 A    
C50   H34   1.108316 S    
C41   H19   1.082779 S    
O1    Zn1   1.977270 S    
C56   H50   1.110320 S    
C38   H17   1.082235 S    
O6    Zn2   2.005391 S    
C37   H18   1.082251 S    
C7    H3    1.081898 S    
C46   H24   1.109643 S    
O3    C1    1.281728 A    
O8    Zn1   2.009944 S    
C56   H48   1.108141 S    
C47   H32   1.109323 S    
C11   H5    1.083224 S    
C50   H35   1.108362 S    
C52   H38   1.110577 S    
C12   H6    1.083295 S    
C53   H47   1.108578 S    
C4    C19   1.424753 S    
C18   H10   1.085398 S    
C5    C45   1.507507 S    
C23   C25   1.434052 A    
C48   H30   1.110442 S    
C51   H42   1.105191 S    
C47   C48   1.526545 S    
C20   C22   1.411414 A    
C5    C7    1.406004 A    
C36   H15   1.081674 S    
C6    C8    1.405004 A    
C55   H51   1.105705 S    
C9    C11   1.401990 A    
C3    C20   1.425123 S    
O2    Zn2   1.977274 S    
C24   C34   1.382889 A    
O5    Zn1   2.005391 S    
C28   C53   1.538952 S    
C19   C21   1.415328 A    
C13   H7    1.082250 S    
C50   H33   1.110740 S    
C42   C44   1.403465 A    
C31   C33   1.379047 A    
H1    C15   1.082937 S    
C54   H45   1.111064 S    
C44   H22   1.081526 S    
C43   H21   1.081381 S    
