data_mof_unit_23302.cif
_audit_creation_date              2013-03-05T15:52:32-0500
_audit_creation_method            fapswitch 2.2
_symmetry_space_group_name_H-M    P1
_symmetry_Int_Tables_number       1
_space_group_crystal_system       triclinic
_cell_length_a                    27.809922
_cell_length_b                    10.90162
_cell_length_c                    9.588535
_cell_angle_alpha                 87.520729
_cell_angle_beta                  89.922336
_cell_angle_gamma                 93.607014
_cell_volume                      2898.48825404

loop_
_atom_site_label
_atom_site_type_symbol
_atom_site_description
_atom_site_fract_x
_atom_site_fract_y
_atom_site_fract_z
_atom_type_partial_charge
O1    O     O_R   0.500000 0.319640 0.618810 -0.564218
O2    O     O_R   0.500000 0.319660 0.381240 -0.529515
C1    C     C_R   0.504268 0.263287 0.503567 0.871472
O3    O     O_R   0.430260 0.500010 0.618770 -0.595445
O4    O     O_R   0.430270 0.500030 0.381200 -0.552052
C2    C     C_R   0.407511 0.499866 0.500022 0.809087
Cu1   Cu    Cu3+1 0.500000 0.499990 0.640660 0.945417
Cu2   Cu    Cu3+1 0.500000 0.500010 0.359340 0.962016
O5    O     O_R   0.500000 0.680340 0.618760 -0.602252
O6    O     O_R   0.500000 0.680360 0.381190 -0.605013
O7    O     O_R   0.569730 0.499970 0.618800 -0.558680
O8    O     O_R   0.569740 0.499990 0.381230 -0.609612
C3    C     C_R   0.497214 0.737851 0.497140 0.781597
C4    C     C_R   0.592574 0.499582 0.500106 0.797443
C5    C     C_R   0.175705 0.390607 0.487236 0.540469
O9    O     O_2   0.198303 0.284631 0.486598 -0.535421
N1    N     N_R   0.202111 0.500239 0.493852 -0.469846
C6    C     C_R   0.180530 0.609486 0.492756 0.524346
C7    C     C_R   0.279373 0.504848 0.371756 -0.132991
C8    C     C_R   0.329433 0.504685 0.372624 -0.208668
C9    C     C_R   0.328600 0.496681 0.625890 -0.188621
C10   C     C_R   0.278341 0.496758 0.625528 0.194283
C11   C     C_R   0.253632 0.500828 0.497418 0.323287
C12   C     C_R   0.102089 0.499043 0.481558 -0.047774
C13   C     C_R   0.125206 0.387976 0.481005 -0.047342
C14   C     C_R   0.097745 0.277335 0.468878 -0.198879
C15   C     C_R   0.130147 0.611045 0.486167 -0.007872
C16   C     C_R   0.354539 0.500423 0.499639 -0.093590
H1    H     H_    0.347230 0.493374 0.725026 0.165962
C17   C     C_R   0.645790 0.499079 0.499337 -0.036883
C18   C     C_R   0.972223 0.385762 0.495697 0.053110
C19   C     C_R   0.977669 0.611033 0.455186 0.043280
C20   C     C_R   0.949687 0.498408 0.475392 0.057147
C21   C     C_R   0.943109 0.279837 0.538362 -0.162490
C22   C     C_R   0.893183 0.281083 0.542957 -0.161685
C23   C     C_R   0.870467 0.389237 0.509785 -0.021930
C24   C     C_R   0.898636 0.498671 0.477796 -0.044577
C25   C     C_R   0.875719 0.608593 0.449848 -0.021494
C26   C     C_R   0.825189 0.606662 0.452589 0.537167
N2    N     N_R   0.798502 0.499095 0.483375 -0.463330
C27   C     C_R   0.820063 0.391416 0.511808 0.541684
C28   C     C_R   0.720769 0.520818 0.366663 -0.095607
C29   C     C_R   0.670705 0.520366 0.371790 -0.278031
C30   C     C_R   0.672406 0.477179 0.622907 0.122064
C31   C     C_R   0.722745 0.477947 0.616200 -0.159326
C32   C     C_R   0.746944 0.499579 0.488705 0.330061
O10   O     O_2   0.792773 0.286662 0.541140 -0.534617
C33   C     C_R   0.023111 0.384285 0.479899 0.037411
C34   C     C_R   0.051059 0.498275 0.476876 0.021674
C35   C     C_R   0.028490 0.611757 0.468258 0.056068
C36   C     C_R   0.047457 0.274398 0.463873 0.135145
H2    H     H_    0.958169 0.196012 0.575989 0.176926
O11   O     O_2   0.207787 0.716098 0.497602 -0.536329
C37   C     C_R   0.107452 0.721824 0.484052 -0.146467
H3    H     H_    0.260433 0.507990 0.273183 0.147842
H4    H     H_    0.128163 0.809058 0.489286 0.187435
C38   C     C_R   0.953653 0.719397 0.423856 -0.207145
C39   C     C_R   0.903634 0.717843 0.420660 -0.141810
O12   O     O_2   0.802903 0.711659 0.426566 -0.533418
C40   C     C_R   0.057625 0.722450 0.474740 -0.205199
C41   C     C_R   0.504710 0.095178 0.771509 0.146994
C42   C     C_R   0.481176 0.027921 0.882388 -0.204453
C43   C     C_R   0.454417 0.918412 0.859410 0.192653
C44   C     C_R   0.455722 0.869250 0.727164 -0.155764
H5    H     H_    0.435784 0.782581 0.710980 0.155957
C45   C     C_R   0.482386 0.931567 0.616953 -0.012308
C46   C     C_R   0.498811 0.055062 0.633131 0.039115
C47   C     C_R   0.510152 0.129674 0.510746 -0.149173
C48   C     C_R   0.519401 0.073673 0.385330 0.153202
C49   C     C_R   0.510915 0.947390 0.375351 0.080508
C50   C     C_R   0.494208 0.873319 0.493040 -0.157831
C51   C     C_R   0.568175 0.653572 0.135698 -0.216313
C52   C     C_R   0.602951 0.727387 0.060332 0.155486
C53   C     C_R   0.601798 0.729918 0.916280 -0.205246
C54   C     C_R   0.567167 0.658047 0.847946 -0.150249
C55   C     C_R   0.533189 0.577040 0.921193 0.219757
C56   C     C_R   0.533400 0.576079 0.070511 0.141075
N3    N     N_R   0.500460 0.501210 0.147910 -0.183003
C57   C     C_R   0.468086 0.426638 0.077573 0.259510
H6    H     H_    0.442280 0.367750 0.876017 0.146636
C58   C     C_R   0.468089 0.427573 0.929205 -0.164836
N4    N     N_R   0.500480 0.501290 0.852040 -0.201770
H7    H     H_    0.972650 0.806700 0.397987 0.142526
N5    N     N_3   0.648786 0.452089 0.754883 -0.557759
H8    H     H_    0.658038 0.365611 0.793601 0.227390
H9    H     H_    0.662110 0.517500 0.824015 0.221686
H10   H     H_    0.886922 0.803307 0.396492 0.188830
H11   H     H_    0.743165 0.461372 0.710564 0.144345
H12   H     H_    0.042799 0.811360 0.477193 0.134703
N6    N     N_3   0.540863 0.145201 0.269168 -0.550941
H13   H     H_    0.517765 0.138525 0.183808 0.226590
H14   H     H_    0.573565 0.109239 0.243538 0.227858
N7    N     N_3   0.541490 0.187811 0.803170 -0.544747
H15   H     H_    0.527168 0.247713 0.871977 0.228958
H16   H     H_    0.568930 0.144472 0.856589 0.211001
H17   H     H_    0.484495 0.059673 0.987274 0.141844
N8    N     N_3   0.252985 0.492246 0.755865 -0.596585
H18   H     H_    0.228945 0.414487 0.759407 0.236674
H19   H     H_    0.232919 0.570012 0.758930 0.238484
N9    N     N_3   0.429414 0.853510 0.973938 -0.596138
H20   H     H_    0.401560 0.906977 0.003865 0.222090
H21   H     H_    0.413217 0.770278 0.941904 0.215999
N10   N     N_3   0.521558 0.898294 0.244168 -0.604717
H22   H     H_    0.552794 0.852310 0.257856 0.220036
H23   H     H_    0.492479 0.842166 0.210131 0.277706
N11   N     N_3   0.434116 0.346139 0.154259 -0.518272
H24   H     H_    0.399536 0.367084 0.122352 0.191237
H25   H     H_    0.439273 0.256079 0.126887 0.189120
H26   H     H_    0.568416 0.663333 0.244802 0.191977
N12   N     N_3   0.639285 0.802069 0.128994 -0.574385
H27   H     H_    0.637515 0.785140 0.237120 0.208722
H28   H     H_    0.631783 0.894053 0.109818 0.224638
H29   H     H_    0.627765 0.788862 0.856252 0.164799
H30   H     H_    0.568891 0.670356 0.737661 0.203654
H31   H     H_    0.115232 0.191997 0.459145 0.188269
H32   H     H_    0.651542 0.536982 0.275307 0.182155
H33   H     H_    0.739279 0.537120 0.267526 0.153708
H34   H     H_    0.872480 0.196952 0.574611 0.191053
N13   N     N_3   0.022220 0.161594 0.427565 -0.611558
H35   H     H_    0.034700 0.137696 0.330076 0.230546
H36   H     H_    0.030848 0.092574 0.500806 0.207429
H37   H     H_    0.348411 0.508012 0.273728 0.166861

loop_
_geom_bond_atom_site_label_1
_geom_bond_atom_site_label_2
_geom_bond_distance
_ccdc_geom_bond_type
C12   C13   1.406374 A    
N7    H15   1.043862 S    
C42   H17   1.079870 S    
C52   C53   1.380792 A    
C1    C47   1.474633 S    
C12   C15   1.409440 A    
C39   H10   1.083449 S    
C58   N4    1.363948 A    
C38   C39   1.390449 A    
C15   C37   1.396800 A    
C52   N12   1.435937 S    
C37   C40   1.389097 A    
C56   N3    1.381233 A    
Cu1   O7    1.950213 S    
C42   C43   1.392465 A    
C23   C24   1.407526 A    
C24   C25   1.408101 A    
N5    H9    1.045708 S    
O4    C2    1.302458 A    
O7    C4    1.302949 A    
C41   N7    1.433734 S    
C5    C13   1.404266 A    
N11   H24   1.045432 S    
C5    O9    1.349688 S    
Cu1   O5    1.968236 S    
C21   C22   1.390022 A    
C28   C32   1.397482 A    
O5    C3    1.304650 A    
C14   H31   1.083983 S    
C6    O11   1.349633 S    
C25   C39   1.397753 A    
C33   C36   1.426469 A    
C2    C16   1.473548 S    
C7    C8    1.392310 A    
C47   C48   1.402652 A    
C36   N13   1.433595 S    
C18   C20   1.419578 A    
C49   C50   1.419120 A    
C8    H37   1.082740 S    
C45   C46   1.409287 A    
N7    H16   1.045646 S    
C10   N8    1.431574 S    
C9    C10   1.397769 A    
Cu2   N3    2.026798 S    
C17   C30   1.417371 A    
C23   C27   1.403544 A    
C41   C42   1.402341 A    
C19   C38   1.414561 A    
C4    C17   1.480297 S    
O3    Cu1   1.951087 S    
N9    H21   1.045765 S    
N8    H19   1.045298 S    
N8    H18   1.045394 S    
N13   H36   1.046120 S    
C37   H4    1.083492 S    
C53   C54   1.386335 A    
C46   C47   1.422077 A    
Cu1   Cu2   2.697437 S    
C31   H11   1.083514 S    
C55   C56   1.431341 A    
O3    C2    1.303336 A    
C55   N4    1.379699 A    
C26   N2    1.368571 A    
C57   C58   1.422231 A    
N3    C57   1.372336 A    
C51   C52   1.398207 A    
C8    C16   1.405127 A    
C43   N9    1.434867 S    
C13   C14   1.395728 A    
C31   C32   1.398520 A    
C53   H29   1.083599 S    
C9    H1    1.083521 S    
C20   C24   1.420069 A    
N12   H27   1.045719 S    
C57   N11   1.428723 S    
O1    C1    1.296186 A    
C22   C23   1.397236 A    
C44   C45   1.414391 A    
C7    C11   1.398342 A    
C54   C55   1.416174 A    
C51   C56   1.408598 A    
C29   H32   1.082428 S    
C41   C46   1.421425 A    
N6    H14   1.045829 S    
C45   C50   1.418973 A    
Cu2   O8    1.951081 S    
C26   O12   1.349646 S    
C38   H7    1.078148 S    
N1    C6    1.366594 A    
C27   O10   1.349730 S    
C18   C21   1.413132 A    
N10   H23   1.044332 S    
C54   H30   1.060815 S    
N1    C11   1.432861 S    
N5    H8    1.045610 S    
C19   C35   1.418613 A    
N2    C27   1.368636 A    
C9    C16   1.406102 A    
O8    C4    1.305518 A    
C18   C33   1.424240 A    
C17   C29   1.408036 A    
C28   C29   1.392762 A    
N2    C32   1.435012 S    
C48   N6    1.438534 S    
C30   C31   1.400773 A    
C7    H3    1.082948 S    
C12   C34   1.419410 A    
C5    N1    1.366737 A    
C40   H12   1.078075 S    
C51   H26   1.056103 S    
C33   C34   1.422837 A    
O1    Cu1   1.986230 S    
O2    Cu2   1.968236 S    
C6    C15   1.403800 A    
H6    C58   1.082337 S    
C30   N5    1.432785 S    
O6    C3    1.304242 A    
O4    Cu2   1.950216 S    
N13   H35   1.045799 S    
C28   H33   1.082931 S    
C3    C50   1.483256 S    
C21   H2    1.077363 S    
C35   C40   1.414270 A    
C44   H5    1.082244 S    
O2    C1    1.309484 A    
C14   C36   1.397791 A    
C19   C20   1.417521 A    
N6    H13   1.043325 S    
C25   C26   1.404281 A    
N11   H25   1.045598 S    
N9    H20   1.045364 S    
C48   C49   1.389499 A    
N12   H28   1.045638 S    
C43   C44   1.399144 A    
Cu1   N4    2.027544 S    
Cu2   O6    1.986230 S    
C34   C35   1.421369 A    
N10   H22   1.035632 S    
C10   C11   1.408723 A    
C22   H34   1.083431 S    
C49   N10   1.425980 S    
