data_mof_unit_38745.cif
_audit_creation_date              2012-12-10T17:21:09-0500
_audit_creation_method            fapswitch 2.2
_symmetry_space_group_name_H-M    P1
_symmetry_Int_Tables_number       1
_space_group_crystal_system       triclinic
_cell_length_a                    10.148164
_cell_length_b                    10.627403
_cell_length_c                    10.849746
_cell_angle_alpha                 90.223543
_cell_angle_beta                  95.509734
_cell_angle_gamma                 81.136092
_cell_volume                      1150.74336234

loop_
_atom_site_label
_atom_site_type_symbol
_atom_type_description
_atom_site_fract_x
_atom_site_fract_y
_atom_site_fract_z
_atom_type_partial_charge
C1    C     C_R   0.443600 0.505701 0.267663 0.945205
C2    C     C_3   0.499085 0.878987 0.500079 0.176900
C3    C     C_3   0.599300 0.913859 0.606878 -0.399674
C4    C     C_3   0.356590 0.949900 0.518779 -0.391632
C5    C     C_2   0.410930 0.501981 0.135927 -0.412423
C6    C     C_2   0.510081 0.462315 0.066558 -0.123512
C7    C     C_2   0.589141 0.460575 0.863827 0.308330
C8    C     C_2   0.487175 0.473353 0.934657 -0.270658
C9    C     C_2   0.075493 0.488251 0.489381 -0.124699
C10   C     C_2   0.929959 0.508298 0.508571 -0.016571
C11   C     C_R   0.499550 0.257834 0.499903 0.815756
C12   C     C_R   0.556386 0.485991 0.732361 0.806805
C13   C     C_R   0.499921 0.742328 0.500049 0.836790
C14   C     C_3   0.539889 0.065984 0.374645 -0.403704
C15   C     C_3   0.539965 0.921535 0.374622 -0.397742
C16   C     C_3   0.598662 0.058427 0.607113 -0.417372
C17   C     C_3   0.356251 0.092789 0.518510 -0.392499
C18   C     C_3   0.498586 0.121617 0.500027 0.193704
H1    H     H_    0.641677 0.085522 0.358843 0.175947
H2    H     H_    0.324569 0.920821 0.608442 0.176742
H3    H     H_    0.569701 0.098033 0.697538 0.154868
H4    H     H_    0.571337 0.882825 0.697443 0.160330
H5    H     H_    0.383609 0.498041 0.895531 0.164545
H6    H     H_    0.611256 0.428495 0.107523 0.216649
H7    H     H_    0.309034 0.534332 0.095757 0.159809
H8    H     H_    0.894817 0.577755 0.576380 0.123105
H9    H     H_    0.114703 0.419513 0.422719 0.189624
H10   H     H_    0.468917 0.111387 0.297056 0.155654
H11   H     H_    0.118340 0.616950 0.614004 0.155475
H12   H     H_    0.468781 0.896418 0.297209 0.158241
H13   H     H_    0.641700 0.871981 0.358606 0.182874
H14   H     H_    0.701612 0.078298 0.596703 0.174874
H15   H     H_    0.702378 0.864424 0.595645 0.175662
H16   H     H_    0.323838 0.132333 0.607929 0.178261
H17   H     H_    0.282167 0.137624 0.442765 0.174782
H18   H     H_    0.282353 0.925943 0.443339 0.177730
N1    N     N_2   0.157300 0.551950 0.551120 -0.210535
N2    N     N_2   0.842730 0.448000 0.448950 -0.075329
O1    O     O_R   0.568940 0.489540 0.307530 -0.613839
O2    O     O_R   0.348880 0.522880 0.340350 -0.607848
O3    O     O_R   0.610030 0.298130 0.483570 -0.633777
O4    O     O_R   0.389960 0.331470 0.516390 -0.624784
O5    O     O_R   0.651120 0.477120 0.659650 -0.600209
O6    O     O_R   0.431060 0.510460 0.692470 -0.633248
O7    O     O_R   0.610040 0.668530 0.483610 -0.621620
O8    O     O_R   0.389970 0.701870 0.516430 -0.618422
Zn1   Zn    Zn3+2 0.646940 0.477740 0.478080 0.931342
Zn2   Zn    Zn3+2 0.353060 0.522260 0.521920 0.923728
O9    O     O_3   0.721430 0.432183 0.914695 -0.645105
C19   C     C_3   0.776633 0.306856 0.882865 0.104782
H19   H     H_    0.886439 0.303991 0.882031 0.167660
H20   H     H_    0.739170 0.277940 0.788612 0.125218
C20   C     C_3   0.752198 0.210278 0.979456 -0.394008
H21   H     H_    0.792004 0.238201 0.072922 0.223905
H22   H     H_    0.642846 0.209515 0.979543 0.218394
C21   C     C_3   0.820250 0.076218 0.951960 -0.965456
H23   H     H_    0.780717 0.045405 0.859576 0.262213
H24   H     H_    0.800117 0.008663 0.023117 0.268928
H25   H     H_    0.930312 0.073436 0.954030 0.263812
N3    N     N_3   0.888449 0.358745 0.362755 -0.424552
H26   H     H_    0.861493 0.272210 0.388279 0.190258
H27   H     H_    0.834123 0.385931 0.277867 0.200314

loop_
_geom_bond_atom_site_label_1
_geom_bond_atom_site_label_2
_ccdc_geom_bond_type
C19   H20   S    
C4    H18   S    
C11   C18   S    
C15   H13   S    
C16   H3    S    
C16   H14   S    
C9    C10   S    
C14   C18   S    
C19   H19   S    
C2    C4    S    
C21   H25   S    
C10   N2    D    
C6    H6    S    
C10   H8    S    
O7    Zn1   S    
C17   C18   S    
O3    Zn1   S    
C7    C8    D    
C12   O6    A    
O4    Zn2   S    
C20   H21   S    
N1    Zn2   S    
C13   O7    A    
C2    C15   S    
C7    O9    S    
N2    Zn1   S    
C5    C6    D    
C15   H12   S    
N2    N3    S    
C4    C17   S    
N3    H27   S    
C21   H24   S    
C11   O3    A    
C12   O5    A    
C2    C3    S    
C20   H22   S    
C13   O8    A    
C5    H7    S    
C7    C12   S    
C19   C20   S    
C17   H16   S    
C1    O1    A    
C4    H2    S    
O8    Zn2   S    
C1    C5    S    
C8    H5    S    
C21   H23   S    
C9    H9    S    
C11   O4    A    
C16   C18   S    
O9    C19   S    
C20   C21   S    
H11   N1    S    
O2    Zn2   S    
C2    C13   S    
C3    H15   S    
C14   C15   S    
C3    H4    S    
C6    C8    S    
C17   H17   S    
C1    O2    A    
C14   H10   S    
O1    Zn1   S    
O5    Zn1   S    
C14   H1    S    
C3    C16   S    
O6    Zn2   S    
N3    H26   S    
C9    N1    D    
