data_mof_unit_32658.cif
_audit_creation_date              2012-12-11T14:59:43-0500
_audit_creation_method            fapswitch 2.2
_symmetry_space_group_name_H-M    P1
_symmetry_Int_Tables_number       1
_space_group_crystal_system       triclinic
_cell_length_a                    8.234735
_cell_length_b                    15.02344
_cell_length_c                    18.784306
_cell_angle_alpha                 99.723265
_cell_angle_beta                  91.431159
_cell_angle_gamma                 99.728352
_cell_volume                      2254.13453228

loop_
_atom_site_label
_atom_site_type_symbol
_atom_type_description
_atom_site_fract_x
_atom_site_fract_y
_atom_site_fract_z
_atom_type_partial_charge
Ba1   Ba    Ba6+2 0.854120 0.540280 0.465540 1.679296
Ba2   Ba    Ba6+2 0.335710 0.459790 0.534460 1.760525
C1    C     C_3   0.702565 0.864336 0.283961 -0.272294
C2    C     C_R   0.891186 0.416879 0.096825 -0.073897
C3    C     C_R   0.758522 0.439842 0.956254 -0.079507
C4    C     C_3   0.137009 0.721516 0.268684 0.383536
C5    C     C_R   0.926820 0.468949 0.978870 0.027703
C6    C     C_R   0.702758 0.437874 0.885525 -0.056504
C7    C     C_R   0.812180 0.463512 0.833851 0.001590
C8    C     C_R   0.977183 0.503844 0.856804 0.007762
C9    C     C_R   0.034883 0.506967 0.929774 0.033382
C10   C     C_R   0.760990 0.451520 0.760029 0.063427
C11   C     C_R   0.870756 0.484443 0.710904 -0.234347
C12   C     C_3   0.667702 0.771807 0.308185 0.301659
C13   C     C_R   0.027633 0.534107 0.733557 0.030226
C14   C     C_R   0.082367 0.543867 0.807530 -0.049205
C15   C     C_R   0.154364 0.503145 0.072311 0.020471
C16   C     C_3   0.131098 0.746810 0.193456 -0.105138
C17   C     C_R   0.214296 0.500867 0.144126 0.003528
C18   C     C_R   0.108927 0.458890 0.192498 -0.035420
C19   C     C_R   0.950666 0.414162 0.166095 -0.018877
C20   C     C_R   0.236426 0.594622 0.834617 -0.018974
C21   C     C_R   0.295023 0.595711 0.905009 -0.084537
C22   C     C_R   0.199459 0.548581 0.953086 0.008603
C23   C     C_3   0.564709 0.309574 0.302647 0.219740
C24   C     C_R   0.260823 0.544695 0.024107 0.020804
C25   C     C_R   0.427352 0.578277 0.047962 -0.096256
C26   C     C_R   0.379760 0.540191 0.167326 -0.031848
C27   C     C_R   0.484834 0.576344 0.117777 -0.083937
C28   C     C_3   0.256109 0.740958 0.622257 0.263624
C29   C     C_R   0.435391 0.542090 0.239436 -0.002966
C30   C     C_R   0.327864 0.504145 0.287148 -0.288278
C31   C     C_R   0.166626 0.460968 0.265070 -0.030140
C32   C     C_R   0.780455 0.230781 0.501577 -0.124158
C33   C     C_R   0.874941 0.172311 0.526452 0.092009
C34   C     C_3   0.503233 0.299067 0.223388 -0.128047
C35   C     C_R   0.816379 0.077176 0.512116 -0.051399
C36   C     C_R   0.653096 0.041025 0.483117 0.045938
C37   C     C_R   0.558589 0.103518 0.461326 -0.117367
C38   C     C_R   0.623529 0.196556 0.468495 0.001081
C39   C     C_R   0.423997 0.903715 0.441533 -0.145507
C40   C     C_3   0.325827 0.842736 0.643730 -0.320195
C41   C     C_R   0.350712 0.812971 0.440379 0.002673
C42   C     C_R   0.587600 0.787328 0.507265 0.063716
C43   C     C_R   0.658385 0.880437 0.512338 -0.094329
C44   C     C_R   0.579929 0.940422 0.477756 0.002126
C45   C     C_3   0.039058 0.106758 0.671243 0.305226
C46   C     C_R   0.436155 0.753788 0.469358 -0.292149
C47   C     C_3   0.077459 0.240755 0.291935 0.678561
C48   C     C_3   0.037746 0.222816 0.210107 -0.343065
C49   C     C_3   0.726912 0.683815 0.690696 0.328282
C50   C     C_3   0.700069 0.719147 0.769940 -0.130005
C51   C     C_3   0.032556 0.086644 0.748430 -0.035975
C52   C     C_3   0.476306 0.231416 0.755010 0.589197
C53   C     C_3   0.465930 0.210936 0.832714 0.311030
C54   C     C_R   0.988390 0.463898 0.049376 0.008233
H1    H     H_    0.740801 0.776707 0.359663 0.090803
H2    H     H_    0.642319 0.617423 0.672553 0.055243
H3    H     H_    0.836253 0.883094 0.275732 0.189887
H4    H     H_    0.771927 0.789759 0.786892 0.117251
H5    H     H_    0.567200 0.722820 0.775502 0.113123
H6    H     H_    0.534124 0.756071 0.317276 -0.041417
H7    H     H_    0.666055 0.917685 0.325790 0.102666
H8    H     H_    0.565225 0.381923 0.328381 0.048071
H9    H     H_    0.689011 0.292228 0.303268 0.080256
H10   H     H_    0.381300 0.320110 0.220220 0.067326
H11   H     H_    0.587994 0.346225 0.195978 0.081042
H12   H     H_    0.437095 0.852900 0.680822 0.170201
H13   H     H_    0.631026 0.861546 0.232483 0.132416
H14   H     H_    0.149852 0.686988 0.152927 0.062209
H15   H     H_    0.920111 0.073029 0.642884 0.075040
H16   H     H_    0.140878 0.076596 0.644212 0.011643
H17   H     H_    0.960277 0.132310 0.781434 0.228881
H18   H     H_    0.158102 0.100280 0.774337 0.101221
H19   H     H_    0.386576 0.177706 0.719895 0.043374
H20   H     H_    0.564106 0.257575 0.868758 0.052255
H21   H     H_    0.047984 0.657042 0.268051 0.063077
H22   H     H_    0.345766 0.224431 0.853605 -0.016521
H23   H     H_    0.359290 0.873342 0.595326 0.058537
H24   H     H_    0.829212 0.476851 0.654756 0.062401
H25   H     H_    0.572445 0.415330 0.871954 0.065620
H26   H     H_    0.870995 0.374700 0.198290 0.073754
H27   H     H_    0.314883 0.633984 0.801815 0.105111
H28   H     H_    0.613916 0.603019 0.131871 0.110012
H29   H     H_    0.371540 0.506865 0.342413 0.073702
H30   H     H_    0.665419 0.419436 0.992477 0.068472
H31   H     H_    0.768971 0.378675 0.081259 0.075594
H32   H     H_    0.415379 0.636189 0.920595 0.063380
H33   H     H_    0.263183 0.709236 0.280948 -0.061185
H34   H     H_    0.232311 0.878828 0.671379 0.136920
H35   H     H_    0.518508 0.605156 0.013334 0.068833
H36   H     H_    0.354351 0.943605 0.414251 0.103825
H37   H     H_    0.898867 0.032757 0.524581 0.030702
H38   H     H_    0.771426 0.904839 0.545266 0.083941
H39   H     H_    0.433966 0.082897 0.438714 0.110920
H40   H     H_    0.379050 0.682942 0.467077 0.071208
H41   H     H_    0.827908 0.303659 0.509555 0.058527
H42   H     H_    0.007949 0.763406 0.180975 0.124267
H43   H     H_    0.355289 0.704997 0.600328 0.013040
H44   H     H_    0.154914 0.731726 0.580159 0.068308
H45   H     H_    0.206213 0.274482 0.304551 -0.019910
H46   H     H_    0.784251 0.117824 0.329418 0.316879
H47   H     H_    0.701675 0.676121 0.867066 0.183209
H48   H     H_    0.877747 0.675073 0.824912 0.167017
H49   H     H_    0.606082 0.184364 0.190543 0.191461
H50   H     H_    0.404258 0.161713 0.207293 0.247486
H51   H     H_    0.029731 0.948674 0.721347 0.179423
H52   H     H_    0.955606 0.981118 0.801968 0.207921
H53   H     H_    0.912978 0.299879 0.759581 0.352948
H54   H     H_    0.682579 0.024633 0.860415 0.357531
H55   H     H_    0.228980 0.883510 0.219356 0.245319
H56   H     H_    0.902564 0.211358 0.197990 0.105609
H57   H     H_    0.260806 0.834594 0.135097 0.192000
H58   H     H_    0.086019 0.161830 0.182985 0.157415
H59   H     H_    0.098993 0.280454 0.185783 0.017276
H60   H     H_    0.856835 0.674594 0.684745 -0.008660
N1    N     N_3   0.749429 0.659068 0.816500 -0.533637
N2    N     N_3   0.492552 0.205268 0.184375 -0.463932
N3    N     N_3   0.955430 0.991706 0.748361 -0.469676
N4    N     N_3   0.260799 0.824621 0.188857 -0.491874
O1    O     O_2   0.871030 0.438240 0.324420 -0.478605
O2    O     O_2   0.222550 0.189513 0.555312 -0.462774
O3    O     O_3   0.062083 0.202246 0.672779 -0.586016
O4    O     O_3   0.120590 0.445310 0.413740 -0.462230
O5    O     O_3   0.582100 0.611510 0.537680 -0.497228
O6    O     O_2   0.334040 0.276520 0.462890 -0.391022
O7    O     O_3   0.463279 0.248513 0.337850 -0.630833
O8    O     O_2   0.457266 0.486025 0.753423 -0.482145
O9    O     O_3   0.417549 0.315097 0.753941 -0.645056
O10   O     O_3   0.663040 0.605930 0.370050 -0.485554
O11   O     O_2   0.773461 0.539534 0.244739 -0.500737
O12   O     O_3   0.694529 0.751112 0.651984 -0.650414
O13   O     O_3   0.970573 0.293464 0.329412 -0.664889
O14   O     O_3   0.713741 0.705082 0.254560 -0.606058
O15   O     O_2   0.855660 0.723510 0.537160 -0.467432
O16   O     O_3   0.086340 0.654970 0.406630 -0.493145
O17   O     O_2   0.016981 0.820082 0.455151 -0.483312
O18   O     O_2   0.163229 0.073556 0.284131 -0.305654
O19   O     O_2   0.082638 0.144495 0.401368 -0.317094
O20   O     O_3   0.852559 0.078571 0.300335 -0.530932
O21   O     O_2   0.676735 0.117165 0.701570 -0.266275
O22   O     O_2   0.702540 0.258226 0.653073 -0.412859
O23   O     O_3   0.093246 0.792364 0.319518 -0.589193
O24   O     O_3   0.824096 0.266709 0.784629 -0.561357
O25   O     O_2   0.387515 0.070251 0.904079 -0.287709
O26   O     O_2   0.415015 0.029149 0.773616 -0.321292
O27   O     O_3   0.682231 0.089534 0.856516 -0.457849
O28   O     O_2   0.318670 0.561790 0.675630 -0.461378
O29   O     O_3   0.069120 0.554770 0.586270 -0.496945
O30   O     O_3   0.526680 0.394150 0.629950 -0.420581
O31   O     O_3   0.196276 0.707777 0.683530 -0.639026
O32   O     O_3   0.607620 0.388570 0.462320 -0.490516
O33   O     O_3   0.103380 0.345110 0.593380 -0.451202
P1    P     P_3+3 0.038110 0.412300 0.335300 0.956119
P2    P     P_3+3 0.679950 0.711710 0.558590 0.975854
P3    P     P_3+3 0.136363 0.771861 0.406331 0.966005
P4    P     P_3+3 0.151600 0.587780 0.664700 0.974857
P5    P     P_3+3 0.065973 0.224476 0.583900 1.092622
P6    P     P_3+3 0.645403 0.596761 0.276502 0.930592
P7    P     P_3+3 0.509579 0.275133 0.431383 1.017250
P8    P     P_3+3 0.546151 0.406416 0.724610 1.069594
S1    S     S_3+6 0.048446 0.132022 0.321282 -0.071972
S2    S     S_3+6 0.674463 0.218012 0.720454 -0.104453
S3    S     S_3+6 0.482774 0.095470 0.841044 -0.046528

loop_
_geom_bond_atom_site_label_1
_geom_bond_atom_site_label_2
_ccdc_geom_bond_type
C16   H14   S    
C42   C46   A    
O32   P7    S    
Ba2   O30   S    
O4    P1    S    
C25   C27   A    
C51   H18   S    
O12   P2    S    
C28   O31   S    
C34   H11   S    
C2    H31   S    
C43   C44   A    
C5    C9    A    
C24   C25   A    
C32   C38   A    
C15   C24   A    
O31   P4    S    
C26   C27   A    
C33   C35   A    
Ba1   O5    S    
C53   S3    S    
C13   P4    S    
C50   H5    S    
C47   H45   S    
C36   C37   A    
O16   P3    S    
C34   H10   S    
Ba2   O28   S    
C13   C14   A    
C12   H6    S    
C28   H44   S    
C9    C22   A    
C2    C54   A    
C32   H41   S    
O15   P2    D    
Ba1   O32   S    
C32   C33   A    
O33   P5    S    
Ba1   P2    S    
C50   H4    S    
C10   P8    S    
C17   C18   A    
C6    C7    A    
C21   C22   A    
C25   H35   S    
C52   S2    S    
Ba1   O16   S    
C34   N2    S    
C41   C46   A    
C45   C51   S    
C50   N1    S    
Ba2   O29   S    
O14   P6    S    
C11   H24   S    
C40   H23   S    
H50   N2    S    
C40   H12   S    
C39   C41   A    
H52   N3    S    
H47   N1    S    
C5    C54   A    
C43   H38   S    
H51   N3    S    
C38   P7    S    
C26   C29   A    
Ba2   O32   S    
C4    C16   S    
C36   C44   S    
O1    P1    D    
O9    P8    S    
C6    H25   S    
C23   H9    S    
C27   H28   S    
Ba1   O10   S    
C37   C38   A    
C3    C5    A    
C53   H22   S    
C31   P1    S    
C4    H21   S    
C12   O14   S    
O26   S3    D    
C28   H43   S    
O13   P1    S    
O17   P3    D    
H55   N4    S    
C48   H58   S    
C23   H8    S    
C12   H1    S    
C35   C36   A    
C19   H26   S    
H57   N4    S    
C45   O3    S    
C29   C30   A    
C39   C44   A    
C45   H15   S    
C48   H56   S    
O2    P5    D    
C35   H37   S    
O18   S1    D    
C49   H2    S    
H46   O20   S    
C18   C19   A    
O11   P6    D    
C17   C26   A    
C15   C54   A    
C37   H39   S    
C47   S1    S    
C1    C12   S    
C3    H30   S    
Ba2   O6    S    
O3    P5    S    
O21   S2    D    
Ba2   O33   S    
C1    H7    S    
C21   H32   S    
C11   C13   A    
O24   S2    S    
H49   N2    S    
C18   C31   A    
C41   P3    S    
C16   N4    S    
O22   S2    D    
C42   C43   A    
H48   N1    S    
C7    C8    A    
O30   P8    S    
C47   O13   S    
C52   C53   S    
C14   C20   A    
C46   H40   S    
C1    H13   S    
C42   P2    S    
C52   O9    S    
O19   S1    D    
C51   H17   S    
C22   C24   A    
Ba1   O29   S    
C3    C6    A    
C49   O12   S    
C51   N3    S    
O25   S3    D    
Ba2   O4    S    
C4    H33   S    
C49   H60   S    
O10   P6    S    
O27   S3    S    
C30   C31   A    
C23   O7    S    
Ba1   O4    S    
C49   C50   S    
C8    C14   A    
C48   H59   S    
C20   H27   S    
C2    C19   A    
O23   P3    S    
O29   P4    S    
Ba2   P4    S    
C30   H29   S    
Ba1   Ba2   S    
C53   H20   S    
O8    P8    D    
C15   C17   A    
H53   O24   S    
O28   P4    D    
Ba1   P1    S    
C7    C10   A    
Ba1   O1    S    
C45   H16   S    
C33   P5    S    
C8    C9    A    
C23   C34   S    
C52   H19   S    
Ba2   O5    S    
O5    P2    S    
C39   H36   S    
C10   C11   A    
C47   C48   S    
C20   C21   A    
C28   C40   S    
C16   H42   S    
C40   H34   S    
C4    O23   S    
Ba1   O15   S    
O20   S1    S    
O7    P7    S    
C29   P6    S    
H54   O27   S    
O6    P7    D    
C1    H3    S    
