data_mof_unit_20344.cif
_audit_creation_date              2012-10-26T20:25:34-0400
_audit_creation_method            fapswitch 2.2
_symmetry_space_group_name_H-M    P1
_symmetry_Int_Tables_number       1
_space_group_crystal_system       triclinic
_cell_length_a                    23.54737
_cell_length_b                    10.776227
_cell_length_c                    9.508769
_cell_angle_alpha                 88.95552
_cell_angle_beta                  89.884262
_cell_angle_gamma                 89.377996
_cell_volume                      2412.32021819

loop_
_atom_site_label
_atom_site_type_symbol
_atom_type_description
_atom_site_fract_x
_atom_site_fract_y
_atom_site_fract_z
_atom_type_partial_charge
C1    C     C_R   0.505781 0.260564 0.501134 0.562389
C2    C     C_R   0.704359 0.576258 0.420870 0.247813
C3    C     C_R   0.236505 0.411591 0.532742 0.298478
C4    C     C_R   0.762259 0.593325 0.450823 0.281211
C5    C     C_R   0.209534 0.528733 0.541983 0.160707
C6    C     C_R   0.790766 0.509127 0.540015 0.201139
C7    C     C_3   0.545734 0.028982 0.590950 -0.000636
C8    C     C_3   0.462434 0.971419 0.412727 -0.023158
C9    C     C_3   0.553039 0.947148 0.459411 -0.029535
C10   C     C_3   0.455120 0.052068 0.544352 -0.059656
C11   C     C_3   0.498603 0.876888 0.499703 -0.026181
C12   C     C_R   0.497459 0.740084 0.499436 0.563649
C13   C     C_3   0.508877 0.123595 0.503871 -0.040862
C14   C     C_3   0.491447 0.958133 0.630282 0.240448
C15   C     C_3   0.516800 0.042153 0.372674 0.217735
C16   C     C_R   0.391067 0.498445 0.500377 0.596753
C17   C     C_R   0.608998 0.498998 0.500212 0.546672
C18   C     C_3   0.490755 0.609448 0.046300 0.098784
C19   C     C_3   0.509384 0.390746 0.953354 0.090490
C20   C     C_3   0.451403 0.538264 0.948211 -0.031294
C21   C     C_3   0.548654 0.461834 0.051248 -0.091769
C22   C     C_3   0.538693 0.571585 0.947792 0.095038
C23   C     C_R   0.244747 0.625026 0.588067 0.048457
C24   C     C_3   0.461356 0.428596 0.051435 0.142065
C25   C     C_R   0.879099 0.598879 0.615928 0.463265
C26   C     C_R   0.120217 0.456166 0.438394 0.448806
C27   C     C_R   0.880975 0.428248 0.459269 0.425832
C28   C     C_R   0.116507 0.642776 0.561728 0.431606
C29   C     C_R   0.941162 0.427137 0.456691 0.011220
C30   C     C_R   0.057456 0.631835 0.585629 0.000740
C31   C     C_R   0.969572 0.522222 0.529461 -0.030008
C32   C     C_R   0.029324 0.532302 0.521776 -0.041128
C33   C     C_R   0.938265 0.609243 0.607639 0.010072
C34   C     C_R   0.760428 0.418019 0.616674 -0.003369
C35   C     C_R   0.060839 0.447140 0.442652 0.005191
C36   C     C_R   0.974026 0.339340 0.379894 0.008147
C37   C     C_R   0.025483 0.718016 0.666044 0.008403
C38   C     C_R   0.033059 0.352523 0.372067 -0.077916
C39   C     C_R   0.966367 0.705273 0.675461 -0.090598
C40   C     C_2   0.949687 0.228081 0.313722 0.294612
C41   C     C_2   0.052544 0.815039 0.751805 0.288909
C42   C     C_2   0.476739 0.735378 0.096571 0.313808
C43   C     C_2   0.523266 0.265509 0.900186 0.271157
C44   C     C_2   0.584244 0.649865 0.882893 0.285878
C45   C     C_R   0.302634 0.622502 0.548730 -0.099954
C46   C     C_2   0.416472 0.346182 0.111778 0.306568
C47   C     C_2   0.230128 0.691822 0.719502 0.293769
C48   C     C_2   0.791507 0.324220 0.705038 0.297386
C49   C     C_2   0.336353 0.737072 0.554969 0.226631
C50   C     C_2   0.666395 0.328003 0.693157 0.233507
C51   C     C_3   0.296155 0.233966 0.346439 0.038574
C52   C     C_3   0.254615 0.128858 0.385539 -0.239234
C53   C     C_3   0.256668 0.021413 0.283845 -0.452653
C54   C     C_3   0.683603 0.587455 0.186052 0.010174
C55   C     C_3   0.740629 0.614399 0.113325 -0.261012
C56   C     C_R   0.700404 0.414711 0.604599 -0.114004
C57   C     C_3   0.740358 0.577845 0.959227 -0.447295
C58   C     C_3   0.201052 0.298285 0.719151 -0.005107
C59   C     C_3   0.255636 0.250509 0.790904 -0.251071
C60   C     C_3   0.247117 0.234186 0.948966 -0.454006
C61   C     C_3   0.773174 0.804159 0.431002 0.060979
C62   C     C_3   0.821685 0.897179 0.427824 -0.267128
C63   C     C_3   0.802200 0.022301 0.484908 -0.438661
C64   C     C_2   0.604698 0.874328 0.416797 0.257581
C65   C     C_2   0.399685 0.108278 0.589511 0.248705
C66   C     C_2   0.591560 0.047927 0.697267 0.302239
C67   C     C_R   0.328191 0.509823 0.504695 -0.044832
C68   C     C_2   0.415192 0.948933 0.312741 0.237311
C69   C     C_3   0.426743 0.880861 0.796455 0.047430
C70   C     C_3   0.400279 0.960041 0.911722 -0.246705
C71   C     C_3   0.340772 0.916191 0.949272 -0.495449
C72   C     C_3   0.582269 0.094861 0.193471 0.058007
C73   C     C_3   0.619158 0.182537 0.279603 -0.316408
C74   C     C_3   0.678762 0.193157 0.217778 -0.470178
C75   C     C_R   0.672174 0.493695 0.504924 -0.070014
C76   C     C_R   0.294253 0.403183 0.494664 0.256892
Cu1   Cu    Cu3+1 0.500010 0.499990 0.643150 0.997077
Cu2   Cu    Cu3+1 0.499990 0.500010 0.356850 0.999016
H1    H     H_    0.410364 0.569475 0.901593 0.114172
H2    H     H_    0.428224 0.265603 0.175554 0.146083
H3    H     H_    0.251754 0.775870 0.747542 0.148543
H4    H     H_    0.774510 0.231804 0.720154 0.160933
H5    H     H_    0.382183 0.732019 0.555448 0.128888
H6    H     H_    0.626977 0.292606 0.652583 0.136800
H7    H     H_    0.332460 0.194131 0.287242 0.144978
H8    H     H_    0.275202 0.302129 0.272921 0.171536
H9    H     H_    0.263661 0.091952 0.493044 0.218908
H10   H     H_    0.210439 0.165333 0.382835 0.238241
H11   H     H_    0.245569 0.054195 0.176306 0.131619
H12   H     H_    0.589240 0.427353 0.096492 0.086679
H13   H     H_    0.225549 0.949965 0.317332 0.211323
H14   H     H_    0.299331 0.977958 0.283754 0.204734
H15   H     H_    0.648957 0.624580 0.118333 0.169885
H16   H     H_    0.677220 0.485244 0.195961 0.117466
H17   H     H_    0.750249 0.714887 0.119550 0.207771
H18   H     H_    0.774887 0.560106 0.166816 0.216781
H19   H     H_    0.725364 0.481274 0.948859 0.197055
H20   H     H_    0.784079 0.583563 0.915958 0.228478
H21   H     H_    0.712737 0.642245 0.897261 0.160654
H22   H     H_    0.166571 0.231353 0.742257 0.179546
H23   H     H_    0.057782 0.284882 0.314347 0.202724
H24   H     H_    0.187011 0.388178 0.764624 0.167244
H25   H     H_    0.268390 0.159901 0.745889 0.188154
H26   H     H_    0.290592 0.317322 0.772740 0.213492
H27   H     H_    0.236266 0.324633 0.996985 0.196189
H28   H     H_    0.286966 0.197886 0.997305 0.174441
H29   H     H_    0.212472 0.167421 0.970810 0.153566
H30   H     H_    0.755717 0.800636 0.540451 0.198114
H31   H     H_    0.739744 0.838504 0.357367 0.201000
H32   H     H_    0.857509 0.860907 0.492980 0.207817
H33   H     H_    0.837063 0.910124 0.317991 0.183342
H34   H     H_    0.942134 0.770403 0.737807 0.203951
H35   H     H_    0.767746 0.062809 0.418448 0.170648
H36   H     H_    0.838292 0.087444 0.485142 0.167960
H37   H     H_    0.786506 0.011163 0.594618 0.188079
H38   H     H_    0.603953 0.822248 0.320485 0.175241
H39   H     H_    0.360372 0.065205 0.559488 0.146360
H40   H     H_    0.581563 0.044004 0.808480 0.179196
H41   H     H_    0.401162 0.023005 0.242051 0.097978
H42   H     H_    0.427499 0.782252 0.831130 0.131196
H43   H     H_    0.399132 0.886802 0.703120 0.122088
H44   H     H_    0.427569 0.957108 0.006380 0.220600
H45   H     H_    0.913964 0.180659 0.360815 0.148501
H46   H     H_    0.397336 0.058184 0.876366 0.242467
H47   H     H_    0.312311 0.927624 0.856917 0.163749
H48   H     H_    0.323698 0.973340 0.035440 0.151205
H49   H     H_    0.341617 0.817345 0.984442 0.164477
H50   H     H_    0.583441 0.128144 0.082782 0.175487
H51   H     H_    0.600501 0.000153 0.189488 0.153837
H52   H     H_    0.599357 0.276066 0.279962 0.189567
H53   H     H_    0.622939 0.148513 0.389841 0.186465
H54   H     H_    0.699468 0.100173 0.213848 0.169657
H55   H     H_    0.704756 0.254043 0.284591 0.161634
H56   H     H_    0.096229 0.805030 0.786066 0.185555
H57   H     H_    0.676844 0.234375 0.109948 0.188906
H58   H     H_    0.432635 0.759818 0.109678 0.120836
H59   H     H_    0.563028 0.251573 0.845908 0.091234
H60   H     H_    0.619955 0.605435 0.831921 0.106062
N1    N     N_R   0.851852 0.510527 0.541242 -0.325739
N2    N     N_R   0.147937 0.542110 0.518073 -0.363252
N3    N     N_3   0.500040 0.499970 0.858290 -0.288579
N4    N     N_3   0.499960 0.500030 0.141710 -0.287795
O1    O     O_R   0.500030 0.316850 0.620870 -0.465070
O2    O     O_2   0.149563 0.382749 0.349921 -0.493891
O3    O     O_2   0.851248 0.351398 0.377648 -0.540324
O4    O     O_2   0.140211 0.755651 0.566196 -0.492588
O5    O     O_2   0.970731 0.185507 0.207199 -0.465500
O6    O     O_2   0.025741 0.906722 0.788151 -0.480721
O7    O     O_2   0.513938 0.809699 0.121485 -0.462368
O8    O     O_2   0.490822 0.179416 0.918877 -0.495677
O9    O     O_2   0.581793 0.762803 0.887197 -0.440016
O10   O     O_2   0.366500 0.368782 0.088164 -0.562880
O11   O     O_2   0.195310 0.649576 0.802355 -0.530180
O12   O     O_R   0.499970 0.683150 0.379130 -0.467917
O13   O     O_2   0.836068 0.349126 0.762979 -0.478423
O14   O     O_2   0.313212 0.839053 0.551721 -0.559513
O15   O     O_2   0.680346 0.299561 0.813128 -0.562387
O16   O     O_3   0.319270 0.288808 0.468383 -0.550633
O17   O     O_3   0.678753 0.648013 0.316613 -0.560822
O18   O     O_3   0.207657 0.305055 0.571176 -0.556491
O19   O     O_3   0.793299 0.687119 0.386092 -0.574568
O20   O     O_2   0.646385 0.868298 0.492205 -0.482103
O21   O     O_2   0.398429 0.198512 0.665069 -0.446571
O22   O     O_2   0.640555 0.063958 0.660243 -0.499453
O23   O     O_R   0.500000 0.316860 0.379090 -0.503690
O24   O     O_2   0.391515 0.849132 0.312182 -0.538782
O25   O     O_3   0.483216 0.917843 0.771289 -0.487640
O26   O     O_3   0.524585 0.094086 0.235871 -0.533791
O27   O     O_R   0.500000 0.683140 0.620910 -0.484316
O28   O     O_R   0.417890 0.499960 0.620920 -0.498477
O29   O     O_R   0.582110 0.500040 0.379080 -0.499069
O30   O     O_R   0.417870 0.499970 0.379140 -0.477575
O31   O     O_R   0.582130 0.500030 0.620860 -0.540761
O32   O     O_2   0.848778 0.677430 0.696466 -0.524030

loop_
_geom_bond_atom_site_label_1
_geom_bond_atom_site_label_2
_ccdc_geom_bond_type
C46   O10   D    
C73   H53   S    
C34   C56   A    
C23   C45   A    
C74   H54   S    
C27   C29   A    
C9    C64   S    
C73   C74   S    
C49   O14   D    
C28   N2    A    
C61   H31   S    
C51   H7    S    
Cu1   O1    S    
C50   H6    S    
C72   H51   S    
Cu1   Cu2   S    
C29   C36   A    
C76   O16   S    
C33   C39   A    
C72   H50   S    
C64   H38   S    
C59   H26   S    
C25   N1    A    
C21   N4    S    
C38   H23   S    
C26   N2    A    
Cu2   N4    S    
C68   H41   S    
C8    C10   S    
C11   C14   S    
C57   H21   S    
C74   H55   S    
C64   O20   D    
C42   H58   S    
C6    N1    S    
C61   H30   S    
C42   O7    D    
C16   O30   A    
C54   H15   S    
C54   O17   S    
C73   H52   S    
C63   H36   S    
C25   O32   S    
C7    C14   S    
C22   C44   S    
C62   H33   S    
C20   C24   S    
C24   N4    S    
C2    O17   S    
C5    C23   A    
C45   C67   A    
C44   H60   S    
C31   C33   A    
C71   H48   S    
C70   C71   S    
C58   H24   S    
C1    O23   A    
C20   H1    S    
C63   H37   S    
C59   C60   S    
C19   N3    S    
C56   C75   A    
C21   C22   S    
C72   O26   S    
C71   H49   S    
C61   C62   S    
C26   O2    S    
C51   H8    S    
C41   H56   S    
C17   O31   A    
Cu1   N3    S    
C21   H12   S    
C50   O15   D    
C37   C39   A    
C44   O9    D    
C23   C47   S    
C51   C52   S    
C32   C35   A    
C52   H10   S    
C35   C38   A    
C58   H22   S    
C55   H17   S    
C10   C14   S    
Cu2   O12   S    
C47   O11   D    
C58   C59   S    
C50   C56   S    
C6    C34   A    
C30   C37   A    
C2    C4    A    
C69   O25   S    
C53   H13   S    
C62   C63   S    
C1    O1    A    
C16   O28   A    
C70   H44   S    
C31   C32   A    
C62   H32   S    
C13   C15   S    
C69   H43   S    
C27   O3    S    
C57   H19   S    
C74   H57   S    
C65   O21   D    
C53   H14   S    
Cu2   O30   S    
C45   C49   S    
C18   N4    S    
C66   O22   D    
C16   C67   S    
C3    C76   A    
C9    C11   S    
C60   H29   S    
C4    C6    A    
C39   H34   S    
C48   O13   D    
C8    C68   S    
C8    C15   S    
C55   C57   S    
C53   H11   S    
C3    O18   S    
C61   O19   S    
C15   O26   S    
C34   C48   S    
C36   C40   S    
C60   H28   S    
C52   C53   S    
C5    N2    S    
C10   C65   S    
C7    C9    S    
C40   H45   S    
C54   C55   S    
C55   H18   S    
Cu2   O23   S    
Cu1   O31   S    
C69   H42   S    
C40   O5    D    
C19   C21   S    
C18   C22   S    
C20   N3    S    
C52   H9    S    
C12   O12   A    
C72   C73   S    
C3    C5    A    
C10   C13   S    
C11   C12   S    
C17   O29   A    
C12   O27   A    
C19   C43   S    
C51   O16   S    
C28   O4    S    
C59   H25   S    
C49   H5    S    
C18   C42   S    
C19   C24   S    
C9    C15   S    
C24   C46   S    
C28   C30   A    
C29   C31   A    
C58   O18   S    
C7    C66   S    
C30   C32   A    
C41   O6    D    
C8    C11   S    
C57   H20   S    
C22   N3    S    
C36   C38   A    
Cu2   O29   S    
C48   H4    S    
C43   H59   S    
C18   C20   S    
C47   H3    S    
C37   C41   S    
C69   C70   S    
C27   N1    A    
C54   H16   S    
C2    C75   A    
C63   H35   S    
C70   H46   S    
C26   C35   A    
C7    C13   S    
C1    C13   S    
Cu1   O27   S    
C66   H40   S    
C25   C33   A    
C17   C75   S    
C65   H39   S    
C4    O19   S    
C71   H47   S    
C67   C76   A    
C46   H2    S    
C14   O25   S    
Cu1   O28   S    
C60   H27   S    
C43   O8    D    
C68   O24   D    
