data_mof_unit_61539.cif
_audit_creation_date              2012-12-10T17:18:52-0500
_audit_creation_method            fapswitch 2.2
_symmetry_space_group_name_H-M    P1
_symmetry_Int_Tables_number       1
_space_group_crystal_system       triclinic
_cell_length_a                    21.807364
_cell_length_b                    21.782011
_cell_length_c                    23.660942
_cell_angle_alpha                 89.99591
_cell_angle_beta                  89.965537
_cell_angle_gamma                 89.998792
_cell_volume                      11239.1404118

loop_
_atom_site_label
_atom_site_type_symbol
_atom_type_description
_atom_site_fract_x
_atom_site_fract_y
_atom_site_fract_z
_atom_type_partial_charge
C1    C     C_R   0.118501 0.499999 0.000006 0.818744
C2    C     C_R   0.500000 0.881533 0.999999 0.804072
C3    C     C_R   0.881498 0.500000 0.999994 0.818748
C4    C     C_R   0.500026 0.118462 0.999922 0.812361
C5    C     C_R   0.618505 0.000002 0.500015 0.817497
C6    C     C_R   0.000001 0.381285 0.499999 0.775510
C7    C     C_R   0.381495 0.000003 0.499985 0.817507
C8    C     C_R   0.999972 0.618462 0.500096 0.809983
C9    C     C_R   1.000000 0.500003 0.108058 0.819928
C10   C     C_R   0.499984 0.000001 0.108042 0.812991
C11   C     C_R   0.000002 0.500004 0.891942 0.819885
C12   C     C_R   0.500016 0.999901 0.891958 0.815461
C13   C     C_R   0.500002 0.999995 0.608059 0.819234
C14   C     C_R   0.999986 0.499989 0.608043 0.809131
C15   C     C_R   0.499998 0.000002 0.391941 0.819284
C16   C     C_R   0.000013 0.500067 0.391957 0.806490
C17   C     C_1   0.000008 0.500030 0.168948 -0.173853
C18   C     C_1   0.499955 0.999998 0.168934 -0.168778
C19   C     C_1   0.999995 0.500017 0.831052 -0.173802
C20   C     C_1   0.500043 0.999823 0.831066 -0.170774
C21   C     C_1   0.500016 0.999965 0.668952 -0.173308
C22   C     C_1   0.999967 0.499987 0.668938 -0.169869
C23   C     C_1   0.499982 0.000005 0.331048 -0.173367
C24   C     C_1   0.000034 0.500124 0.331062 -0.167984
C25   C     C_1   0.000018 0.500087 0.220046 -0.005023
C26   C     C_1   0.499953 1.000000 0.220034 -0.002455
C27   C     C_1   0.999986 0.500025 0.779953 -0.004496
C28   C     C_1   0.500044 0.999833 0.779966 -0.003281
C29   C     C_1   0.500031 0.999903 0.720052 -0.004901
C30   C     C_1   0.999973 0.500011 0.720039 0.000308
C31   C     C_1   0.499966 0.000004 0.279949 -0.005462
C32   C     C_1   0.000030 0.500134 0.279960 0.001162
C33   C     C_R   0.216780 0.471985 0.954511 0.067917
C34   C     C_R   0.472741 0.783253 0.954178 0.070390
C35   C     C_R   0.783282 0.528002 0.954471 0.068113
C36   C     C_R   0.527776 0.216691 0.954321 0.069820
C37   C     C_R   0.216715 0.527984 0.045534 0.068197
C38   C     C_R   0.472761 0.216700 0.045825 0.068645
C39   C     C_R   0.783220 0.471971 0.045486 0.068089
C40   C     C_R   0.527264 0.783243 0.045815 0.070400
C41   C     C_R   0.716792 0.971922 0.454552 0.068146
C42   C     C_R   0.961920 0.282074 0.461477 0.130152
C43   C     C_R   0.283266 0.028141 0.454532 0.073404
C44   C     C_R   0.027163 0.716710 0.454156 0.069536
C45   C     C_R   0.716734 0.028148 0.545460 0.073325
C46   C     C_R   0.972273 0.716684 0.545714 0.070944
C47   C     C_R   0.283211 0.971938 0.545459 0.067951
C48   C     C_R   0.038086 0.282066 0.538515 0.130120
C49   C     C_R   0.281160 0.468703 0.956642 -0.031983
C50   C     C_R   0.468254 0.718901 0.956964 -0.028254
C51   C     C_R   0.718895 0.531246 0.956574 -0.030908
C52   C     C_R   0.531275 0.281112 0.956560 -0.032045
C53   C     C_R   0.281102 0.531231 0.043430 -0.031192
C54   C     C_R   0.468707 0.281076 0.043317 -0.027548
C55   C     C_R   0.718839 0.468686 0.043351 -0.032245
C56   C     C_R   0.531757 0.718893 0.043024 -0.028265
C57   C     C_R   0.781173 0.968650 0.456690 -0.032026
C58   C     C_R   0.954943 0.218170 0.468750 -0.001909
C59   C     C_R   0.218880 0.031413 0.456667 -0.035434
C60   C     C_R   0.031337 0.781077 0.456727 -0.027820
C61   C     C_R   0.781120 0.031422 0.543323 -0.035103
C62   C     C_R   0.968747 0.781103 0.543463 -0.032154
C63   C     C_R   0.218831 0.968668 0.543326 -0.031709
C64   C     C_R   0.045064 0.218162 0.531239 -0.001891
C65   C     C_R   0.313281 0.499969 0.000036 -0.123156
C66   C     C_R   0.500005 0.686715 0.999995 -0.120881
C67   C     C_R   0.686718 0.499968 0.999963 -0.123274
C68   C     C_R   0.499979 0.313265 0.999949 -0.122678
C69   C     C_R   0.813290 0.000026 0.500015 -0.141187
C70   C     C_R   0.000003 0.186100 0.499995 -0.212187
C71   C     C_R   0.186711 0.000029 0.499987 -0.141028
C72   C     C_R   0.000040 0.813265 0.500076 -0.128311
C73   C     C_R   0.500001 0.619344 0.999998 0.955851
C74   C     C_R   0.619347 0.499986 0.999985 0.950884
C75   C     C_R   0.499986 0.380650 0.999989 0.951017
C76   C     C_R   0.380653 0.499989 0.000014 0.952448
C77   C     C_R   0.000000 0.119139 0.499998 0.801975
C78   C     C_R   0.119344 0.000022 0.499991 0.917679
C79   C     C_R   0.000016 0.880650 0.500017 0.965740
C80   C     C_R   0.880656 0.000019 0.500010 0.915967
C81   C     C_R   0.185099 0.499996 0.000015 -0.058603
C82   C     C_R   0.500002 0.814974 0.999997 -0.064613
C83   C     C_R   0.814900 0.499999 0.999987 -0.058555
C84   C     C_R   0.500099 0.185026 0.000005 -0.061010
C85   C     C_R   0.685110 0.000018 0.500014 -0.057618
C86   C     C_R   0.000002 0.314252 0.499997 -0.144512
C87   C     C_R   0.314891 0.000021 0.499987 -0.057654
C88   C     C_R   0.999883 0.685022 0.500002 -0.061404
Cu1   Cu    Cu3+1 0.000000 0.561790 0.000000 0.951785
Cu2   Cu    Cu3+1 0.561790 0.000000 0.000000 0.955377
Cu3   Cu    Cu3+1 0.000000 0.438210 0.000000 0.953785
Cu4   Cu    Cu3+1 0.438210 0.000000 0.000000 0.954918
Cu5   Cu    Cu3+1 0.500000 0.061790 0.500000 0.959111
Cu6   Cu    Cu3+1 0.061790 0.500000 0.500000 0.961698
Cu7   Cu    Cu3+1 0.500000 0.938210 0.500000 0.952679
Cu8   Cu    Cu3+1 0.938210 0.500000 0.500000 0.962128
Cu9   Cu    Cu3+1 0.500000 0.500000 0.944220 1.050175
Cu10  Cu    Cu3+1 0.500000 0.500000 0.055780 1.050125
Cu11  Cu    Cu3+1 0.000000 0.000000 0.444220 1.019701
Cu12  Cu    Cu3+1 0.000000 0.000000 0.555780 1.019834
O1    O     O_R   0.090160 0.552180 0.999990 -0.593916
O2    O     O_R   0.552180 0.909840 0.999990 -0.590734
O3    O     O_R   0.909840 0.447820 0.999990 -0.593507
O4    O     O_R   0.447820 0.090160 0.999990 -0.592982
O5    O     O_R   0.090160 0.447820 0.000010 -0.593550
O6    O     O_R   0.552180 0.090160 0.000010 -0.591280
O7    O     O_R   0.909840 0.552180 0.000010 -0.593916
O8    O     O_R   0.447820 0.909840 0.000010 -0.590380
O9    O     O_R   0.590160 0.052180 0.499990 -0.592349
O10   O     O_R   0.052180 0.409840 0.499990 -0.582461
O11   O     O_R   0.409840 0.947820 0.499990 -0.593883
O12   O     O_R   0.947820 0.590160 0.499990 -0.591313
O13   O     O_R   0.590160 0.947820 0.500010 -0.593835
O14   O     O_R   0.052180 0.590160 0.500010 -0.592765
O15   O     O_R   0.409840 0.052180 0.500010 -0.592342
O16   O     O_R   0.947820 0.409840 0.500010 -0.582792
O17   O     O_R   0.999980 0.552180 0.081400 -0.580914
O18   O     O_R   0.552180 0.000020 0.081400 -0.581538
O19   O     O_R   0.000020 0.447820 0.081400 -0.580001
O20   O     O_R   0.447820 0.999980 0.081400 -0.580565
O21   O     O_R   0.999980 0.447820 0.918600 -0.579979
O22   O     O_R   0.552180 0.999980 0.918600 -0.578573
O23   O     O_R   0.000020 0.552180 0.918600 -0.580865
O24   O     O_R   0.447820 0.000020 0.918600 -0.582957
O25   O     O_R   0.499980 0.052180 0.581400 -0.579428
O26   O     O_R   0.052180 0.500020 0.581400 -0.582343
O27   O     O_R   0.500020 0.947820 0.581400 -0.580823
O28   O     O_R   0.947820 0.499980 0.581400 -0.576425
O29   O     O_R   0.499980 0.947820 0.418600 -0.580844
O30   O     O_R   0.052180 0.499980 0.418600 -0.578229
O31   O     O_R   0.500020 0.052180 0.418600 -0.579473
O32   O     O_R   0.947820 0.500020 0.418600 -0.580951
O33   O     O_R   0.499980 0.590270 0.952910 -0.576942
O34   O     O_R   0.590270 0.500020 0.952910 -0.577644
O35   O     O_R   0.500020 0.409730 0.952910 -0.577909
O36   O     O_R   0.409730 0.499980 0.952910 -0.577580
O37   O     O_R   0.499980 0.409730 0.047090 -0.576518
O38   O     O_R   0.590270 0.499980 0.047090 -0.577464
O39   O     O_R   0.500020 0.590270 0.047090 -0.577003
O40   O     O_R   0.409730 0.500020 0.047090 -0.577401
O41   O     O_R   0.999980 0.090270 0.452910 -0.591990
O42   O     O_R   0.090270 0.000020 0.452910 -0.559552
O43   O     O_R   0.000020 0.909730 0.452910 -0.569955
O44   O     O_R   0.909730 0.999980 0.452910 -0.604379
O45   O     O_R   0.999980 0.909730 0.547090 -0.571332
O46   O     O_R   0.090270 0.999980 0.547090 -0.604505
O47   O     O_R   0.000020 0.090270 0.547090 -0.591921
O48   O     O_R   0.909730 0.000020 0.547090 -0.559746
C89   C     C_3   0.182198 0.447713 0.902758 -0.424377
C90   C     C_3   0.170001 0.499406 0.860740 -0.825356
H1    H     H_    0.141277 0.535645 0.880479 0.256381
H2    H     H_    0.213961 0.519940 0.846399 0.255470
H3    H     H_    0.145348 0.480953 0.823368 0.246482
H4    H     H_    0.207329 0.410434 0.880904 0.197413
H5    H     H_    0.138301 0.425584 0.913998 0.232864
C91   C     C_3   0.449983 0.817276 0.901554 -0.425920
C92   C     C_3   0.498485 0.815940 0.855036 -0.830601
H6    H     H_    0.540632 0.839878 0.869517 0.261189
H7    H     H_    0.510265 0.767984 0.843454 0.252065
H8    H     H_    0.480807 0.839818 0.816907 0.247338
H9    H     H_    0.406387 0.797449 0.885748 0.199229
H10   H     H_    0.438476 0.865848 0.909500 0.228735
C93   C     C_3   0.817931 0.552297 0.902726 -0.425871
C94   C     C_3   0.830042 0.500651 0.860633 -0.824261
H11   H     H_    0.858699 0.464332 0.880305 0.256761
H12   H     H_    0.786050 0.480215 0.846307 0.255823
H13   H     H_    0.854735 0.519120 0.823260 0.246048
H14   H     H_    0.792871 0.589668 0.880956 0.196898
H15   H     H_    0.861873 0.574313 0.913949 0.232809
C95   C     C_3   0.551589 0.182087 0.902359 -0.425847
C96   C     C_3   0.499854 0.171048 0.860205 -0.824073
H16   H     H_    0.463203 0.142679 0.879724 0.257417
H17   H     H_    0.480037 0.215484 0.846181 0.256007
H18   H     H_    0.517964 0.146389 0.822663 0.246190
H19   H     H_    0.589321 0.206836 0.880812 0.197124
H20   H     H_    0.572871 0.137642 0.913247 0.232425
C97   C     C_3   0.182065 0.552260 0.097283 -0.425735
C98   C     C_3   0.169976 0.500603 0.139376 -0.824698
H21   H     H_    0.141327 0.464282 0.119705 0.256772
H22   H     H_    0.213975 0.480175 0.153695 0.255649
H23   H     H_    0.145283 0.519059 0.176752 0.246095
H24   H     H_    0.207116 0.589635 0.119049 0.196879
H25   H     H_    0.138114 0.574265 0.086067 0.232767
C99   C     C_3   0.449797 0.182542 0.098339 -0.427331
C100  C     C_3   0.499090 0.181618 0.144096 -0.828364
H26   H     H_    0.540303 0.156768 0.128621 0.260528
H27   H     H_    0.512354 0.229042 0.156176 0.253002
H28   H     H_    0.481368 0.157573 0.182139 0.247488
H29   H     H_    0.407151 0.203413 0.115203 0.199701
H30   H     H_    0.436444 0.134566 0.089824 0.229703
C101  C     C_3   0.817802 0.447682 0.097235 -0.424298
C102  C     C_3   0.830025 0.499368 0.139247 -0.825458
H31   H     H_    0.858756 0.535599 0.119501 0.256371
H32   H     H_    0.786074 0.519916 0.153595 0.255480
H33   H     H_    0.854680 0.480904 0.176616 0.246441
H34   H     H_    0.792663 0.410413 0.119099 0.197414
H35   H     H_    0.861688 0.425535 0.085988 0.232862
C103  C     C_3   0.550017 0.817254 0.098443 -0.425818
C104  C     C_3   0.501525 0.815877 0.144969 -0.830690
H36   H     H_    0.459364 0.839804 0.130501 0.261255
H37   H     H_    0.489769 0.767912 0.156543 0.252027
H38   H     H_    0.519200 0.839746 0.183100 0.247258
H39   H     H_    0.593626 0.797439 0.114234 0.199190
H40   H     H_    0.561495 0.865836 0.090507 0.228756
C105  C     C_3   0.682212 0.947564 0.402833 -0.425491
C106  C     C_3   0.669860 0.999221 0.360815 -0.827195
H41   H     H_    0.641092 0.035414 0.380571 0.257780
H42   H     H_    0.713765 0.019834 0.346425 0.253302
H43   H     H_    0.645200 0.980710 0.323473 0.246474
H44   H     H_    0.707397 0.910343 0.380950 0.197030
H45   H     H_    0.638383 0.925328 0.414121 0.233153
C107  C     C_3   0.932668 0.314422 0.410647 -0.341679
C108  C     C_3   0.954297 0.286782 0.354635 -0.817531
H46   H     H_    0.005172 0.287762 0.352251 0.254710
H47   H     H_    0.938242 0.238802 0.349644 0.259821
H48   H     H_    0.935632 0.314145 0.318961 0.243165
H49   H     H_    0.881966 0.313294 0.413346 0.253279
H50   H     H_    0.945094 0.363566 0.408120 0.197356
C109  C     C_3   0.317906 0.052531 0.402821 -0.423234
C110  C     C_3   0.330165 0.000932 0.360716 -0.827101
H51   H     H_    0.358871 0.964656 0.380393 0.256577
H52   H     H_    0.286227 0.980418 0.346344 0.255837
H53   H     H_    0.354857 0.019469 0.323373 0.246347
H54   H     H_    0.292792 0.089849 0.381029 0.198081
H55   H     H_    0.361781 0.074650 0.414093 0.233210
C111  C     C_3   0.050028 0.682594 0.401589 -0.426352
C112  C     C_3   0.001003 0.682516 0.355577 -0.830895
H56   H     H_    0.959446 0.657992 0.370712 0.260890
H57   H     H_    0.988275 0.730142 0.343686 0.252337
H58   H     H_    0.018699 0.658540 0.317490 0.247212
H59   H     H_    0.093031 0.703080 0.385091 0.199532
H60   H     H_    0.062689 0.634384 0.409891 0.229264
C113  C     C_3   0.682095 0.052541 0.597169 -0.423402
C114  C     C_3   0.669856 0.000946 0.639291 -0.826634
H61   H     H_    0.641158 0.964659 0.619627 0.256573
H62   H     H_    0.713802 0.980447 0.653664 0.256033
H63   H     H_    0.645161 0.019484 0.676631 0.246298
H64   H     H_    0.707204 0.089869 0.618944 0.198096
H65   H     H_    0.638212 0.074649 0.585898 0.233257
C115  C     C_3   0.948584 0.682128 0.597752 -0.425557
C116  C     C_3   0.000177 0.672165 0.640282 -0.826946
H66   H     H_    0.037330 0.644136 0.621148 0.257995
H67   H     H_    0.019300 0.716973 0.654107 0.255306
H68   H     H_    0.982160 0.647550 0.677890 0.246129
H69   H     H_    0.910302 0.706531 0.618821 0.197210
H70   H     H_    0.928094 0.637250 0.587111 0.232164
C117  C     C_3   0.317795 0.947590 0.597185 -0.425583
C118  C     C_3   0.330117 0.999249 0.639199 -0.827090
H71   H     H_    0.358878 0.035451 0.619445 0.257795
H72   H     H_    0.286202 0.019850 0.653578 0.253291
H73   H     H_    0.354775 0.980745 0.676549 0.246519
H74   H     H_    0.292621 0.910357 0.619065 0.197036
H75   H     H_    0.361637 0.925375 0.585906 0.233149
C119  C     C_3   0.067336 0.314402 0.589347 -0.341683
C120  C     C_3   0.045710 0.286749 0.645358 -0.817404
H76   H     H_    0.994834 0.287728 0.647742 0.254711
H77   H     H_    0.061767 0.238768 0.650345 0.259831
H78   H     H_    0.064375 0.314105 0.681033 0.243191
H79   H     H_    0.118038 0.313276 0.586647 0.253305
H80   H     H_    0.054908 0.363545 0.591877 0.197273
C121  C     C_2   0.314498 0.431262 0.913958 0.387592
H81   H     H_    0.306750 0.438648 0.869180 0.068336
O49   O     O_2   0.349920 0.390945 0.928812 -0.526324
C122  C     C_2   0.428107 0.685983 0.916032 0.384053
H82   H     H_    0.430763 0.695779 0.871177 0.071520
O50   O     O_2   0.390209 0.648814 0.932598 -0.528848
C123  C     C_2   0.685614 0.568661 0.913864 0.387864
H83   H     H_    0.693469 0.561286 0.869092 0.067711
O51   O     O_2   0.650139 0.608958 0.928687 -0.525459
C124  C     C_2   0.568831 0.314428 0.913941 0.387311
H84   H     H_    0.561689 0.306555 0.869149 0.068775
O52   O     O_2   0.608988 0.349976 0.928872 -0.527744
C125  C     C_2   0.314379 0.568637 0.086144 0.387508
H85   H     H_    0.306522 0.561253 0.130915 0.067654
O53   O     O_2   0.349852 0.608938 0.071324 -0.525547
C126  C     C_2   0.429444 0.314049 0.084954 0.386044
H86   H     H_    0.433468 0.304637 0.129800 0.071337
O54   O     O_2   0.390848 0.350809 0.069036 -0.528543
C127  C     C_2   0.685501 0.431222 0.086022 0.387364
H87   H     H_    0.693242 0.438587 0.130803 0.068609
O55   O     O_2   0.650082 0.390913 0.071152 -0.527072
C128  C     C_2   0.571917 0.685968 0.083947 0.384074
H88   H     H_    0.569278 0.695761 0.128802 0.071484
O56   O     O_2   0.609806 0.648795 0.067374 -0.528745
C129  C     C_2   0.814523 0.931111 0.414086 0.389097
H89   H     H_    0.806810 0.938415 0.369291 0.062549
O57   O     O_2   0.849927 0.890818 0.429029 -0.521971
C130  C     C_2   0.900255 0.185128 0.445625 0.403211
H90   H     H_    0.901598 0.136511 0.436461 0.086952
O58   O     O_2   0.851353 0.211401 0.439131 -0.540873
C131  C     C_2   0.185581 0.068950 0.414064 0.389021
H91   H     H_    0.193390 0.061686 0.369271 0.072824
O59   O     O_2   0.150122 0.109211 0.429003 -0.542846
C132  C     C_2   0.070845 0.814020 0.415256 0.385717
H92   H     H_    0.067212 0.804480 0.370411 0.070811
O60   O     O_2   0.109254 0.850895 0.431327 -0.525580
C133  C     C_2   0.814418 0.068970 0.585913 0.389422
H93   H     H_    0.806610 0.061719 0.630709 0.072897
O61   O     O_2   0.849877 0.109224 0.570958 -0.542767
C134  C     C_2   0.931136 0.814382 0.586064 0.387168
H94   H     H_    0.938131 0.806375 0.630852 0.068279
O62   O     O_2   0.891041 0.850000 0.571115 -0.524899
C135  C     C_2   0.185486 0.931153 0.585955 0.389349
H95   H     H_    0.193209 0.938477 0.630745 0.062221
O63   O     O_2   0.150079 0.890854 0.571040 -0.521088
C136  C     C_2   0.099754 0.185113 0.554360 0.403172
H96   H     H_    0.098417 0.136492 0.563508 0.086862
O64   O     O_2   0.148652 0.211387 0.560867 -0.540896

loop_
_geom_bond_atom_site_label_1
_geom_bond_atom_site_label_2
_ccdc_geom_bond_type
C120  H77   S    
C55   C127  S    
C92   H6    S    
Cu2   O22   S    
C131  H91   S    
C42   C58   A    
C47   C117  S    
C135  O63   D    
C95   H20   S    
C117  H74   S    
C68   C75   S    
C96   H17   S    
C128  H88   S    
C46   C62   A    
Cu11  O43   S    
C72   C79   S    
C59   C131  S    
C105  H45   S    
C97   H24   S    
C14   O28   A    
C101  H34   S    
C36   C84   A    
C52   C124  S    
C51   C123  S    
C42   C86   A    
C64   C136  S    
C77   O47   A    
C8    O14   A    
C5    O13   A    
Cu6   O26   S    
C104  H36   S    
C37   C81   A    
C114  H62   S    
C118  H72   S    
C108  H47   S    
C11   O23   A    
C101  C102  S    
C102  H33   S    
C106  H41   S    
C58   C70   A    
C20   C28   T    
C21   C29   T    
C35   C93   S    
C114  H63   S    
C23   C31   T    
C24   C32   T    
C39   C101  S    
Cu2   Cu4   S    
C135  H95   S    
C4    C84   S    
C12   C20   S    
C136  H96   S    
C13   C21   S    
C67   C74   S    
Cu6   Cu8   S    
C6    O16   A    
Cu10  O38   S    
C92   H8    S    
C3    C83   S    
C115  H69   S    
C124  O52   D    
C1    O1    A    
C134  H94   S    
C3    O3    A    
C94   H11   S    
Cu1   O1    S    
Cu11  O41   S    
Cu3   O3    S    
C36   C95   S    
C14   O26   A    
C17   C25   T    
Cu4   O24   S    
C89   H5    S    
C129  O57   D    
C33   C89   S    
C119  H79   S    
C10   C18   S    
C56   C66   A    
C4    O4    A    
C2    O8    A    
C75   O35   A    
C127  O55   D    
C113  H65   S    
C77   O41   A    
Cu4   O4    S    
C41   C57   A    
C13   O27   A    
C80   O48   A    
C107  C108  S    
C54   C126  S    
C60   C72   A    
Cu8   O16   S    
C33   C49   A    
C1    O5    A    
Cu3   O5    S    
Cu9   O33   S    
Cu9   Cu10  S    
C58   C130  S    
Cu6   O30   S    
C131  O59   D    
C121  H81   S    
C111  H60   S    
C100  H27   S    
C54   C68   A    
C95   C96   S    
C2    O2    A    
C74   O34   A    
C38   C99   S    
C99   C100  S    
C116  H66   S    
Cu2   O2    S    
C109  H54   S    
Cu4   O8    S    
C79   O43   A    
C122  H82   S    
C80   O44   A    
C104  H38   S    
Cu1   Cu3   S    
C53   C65   A    
C113  C114  S    
C36   C52   A    
C43   C59   A    
C5    C85   S    
Cu5   Cu7   S    
C70   C77   S    
C133  O61   D    
C93   H15   S    
C110  H51   S    
C39   C55   A    
C61   C133  S    
C40   C82   A    
C57   C129  S    
C73   O39   A    
C4    O6    A    
C8    C88   S    
C130  O58   D    
Cu12  O45   S    
C35   C51   A    
C51   C67   A    
C112  H57   S    
Cu1   O17   S    
C91   H9    S    
Cu3   O19   S    
Cu9   O35   S    
C42   C107  S    
C104  H37   S    
C22   C30   T    
C38   C84   A    
C73   O33   A    
C123  H83   S    
C34   C91   S    
C37   C97   S    
C128  O56   D    
C6    C86   S    
Cu10  O39   S    
C116  H68   S    
C14   C22   S    
C93   H14   S    
Cu4   O20   S    
C13   O25   A    
C40   C103  S    
C105  H44   S    
C115  C116  S    
C125  O53   D    
C8    O12   A    
C48   C86   A    
C15   O31   A    
C126  H86   S    
C111  C112  S    
Cu3   O21   S    
C90   H1    S    
C34   C82   A    
C44   C111  S    
C110  H53   S    
Cu5   O9    S    
C18   C26   T    
C103  H40   S    
C50   C122  S    
C108  H46   S    
C74   O38   A    
C11   C19   S    
C65   C76   S    
Cu2   O18   S    
C28   C29   S    
C45   C113  S    
C78   O42   A    
C47   C63   A    
C132  H92   S    
C106  H42   S    
C48   C64   A    
C107  H49   S    
Cu12  O47   S    
C1    C81   S    
C9    O17   A    
Cu8   O28   S    
C56   C128  S    
C7    C87   S    
C40   C56   A    
C90   H3    S    
C136  O64   D    
C127  H87   S    
C16   O30   A    
C120  H78   S    
C92   H7    S    
C115  H70   S    
C134  O62   D    
C98   H21   S    
C95   H19   S    
Cu6   O14   S    
C96   H18   S    
Cu10  O37   S    
Cu11  O44   S    
Cu2   O6    S    
C75   O37   A    
C109  C110  S    
C35   C83   A    
C97   H25   S    
Cu6   O10   S    
C113  H64   S    
C129  H89   S    
C38   C54   A    
C119  H80   S    
Cu1   O7    S    
C2    C82   S    
C114  H61   S    
C78   O46   A    
C48   C119  S    
C118  H71   S    
C108  H48   S    
C49   C121  S    
C94   H13   S    
C43   C109  S    
C98   H22   S    
C39   C83   A    
C89   C90   S    
C102  H31   S    
C123  O51   D    
C100  H26   S    
C5    O9    A    
C44   C60   A    
C45   C61   A    
C7    O11   A    
C16   O32   A    
Cu5   O25   S    
C98   H23   S    
C10   O20   A    
Cu7   O27   S    
C12   O22   A    
C122  O50   D    
C97   C98   S    
C103  H39   S    
Cu7   O29   S    
C124  H84   S    
Cu5   O31   S    
C47   C87   A    
C96   H16   S    
C63   C135  S    
C62   C134  S    
C133  H93   S    
Cu11  O42   S    
C93   C94   S    
C89   H4    S    
C110  H52   S    
C76   O36   A    
C79   O45   A    
C105  C106  S    
Cu8   O12   S    
C119  C120  S    
C49   C65   A    
C91   C92   S    
Cu12  O48   S    
C111  H59   S    
Cu5   O15   S    
C7    O15   A    
C60   C132  S    
C112  H56   S    
Cu12  O46   S    
C15   O29   A    
C103  C104  S    
C64   C70   A    
C19   C27   T    
C52   C68   A    
C118  H73   S    
Cu8   O32   S    
C25   C32   S    
C15   C23   S    
C91   H10   S    
C26   C31   S    
C16   C24   S    
C27   C30   S    
C6    O10   A    
C11   O21   A    
Cu9   O34   S    
C46   C88   A    
C76   O40   A    
C34   C50   A    
C121  O49   D    
C100  H28   S    
Cu1   O23   S    
C3    O7    A    
C66   C73   S    
Cu10  O40   S    
C116  H67   S    
C45   C85   A    
C10   O18   A    
Cu11  Cu12  S    
C12   O24   A    
C125  H85   S    
C62   C72   A    
C109  H55   S    
C50   C66   A    
C117  H75   S    
C9    C17   S    
C126  O54   D    
C46   C115  S    
C9    O19   A    
C90   H2    S    
C120  H76   S    
C61   C69   A    
C99   H30   S    
C101  H35   S    
C63   C71   A    
C55   C67   A    
C117  C118  S    
C41   C85   A    
C43   C87   A    
C130  H90   S    
C94   H12   S    
C37   C53   A    
Cu7   O11   S    
C132  O60   D    
C106  H43   S    
C107  H50   S    
Cu7   O13   S    
C53   C125  S    
C41   C105  S    
C112  H58   S    
C99   H29   S    
C69   C80   S    
Cu9   O36   S    
C57   C69   A    
C44   C88   A    
C33   C81   A    
C71   C78   S    
C59   C71   A    
C102  H32   S    
