data_mof_unit_50745.cif
_audit_creation_date              2012-12-11T14:52:44-0500
_audit_creation_method            fapswitch 2.2
_symmetry_space_group_name_H-M    P1
_symmetry_Int_Tables_number       1
_space_group_crystal_system       triclinic
_cell_length_a                    18.882187
_cell_length_b                    10.892599
_cell_length_c                    18.716967
_cell_angle_alpha                 89.729479
_cell_angle_beta                  91.255879
_cell_angle_gamma                 89.753179
_cell_volume                      3848.62750259

loop_
_atom_site_label
_atom_site_type_symbol
_atom_type_description
_atom_site_fract_x
_atom_site_fract_y
_atom_site_fract_z
_atom_type_partial_charge
C1    C     C_R   0.271982 0.042602 0.853338 0.550062
C2    C     C_R   0.699792 0.527553 0.037258 -0.145869
C3    C     C_3   0.996527 0.329907 0.073458 0.050950
C4    C     C_R   0.807573 0.040910 0.963603 -0.151570
C5    C     C_R   0.199769 0.027592 0.037249 -0.145861
C6    C     C_R   0.300923 0.528497 0.037179 -0.152884
C7    C     C_R   0.703959 0.511419 0.963743 -0.145361
C8    C     C_R   0.800926 0.028511 0.037181 -0.152900
C9    C     C_R   0.203935 0.011464 0.963734 -0.145359
C10   C     C_R   0.237074 0.560816 0.068977 0.029456
C11   C     C_R   0.752296 0.581032 0.924324 0.026811
C12   C     C_R   0.737074 0.060818 0.068977 0.029456
C13   C     C_R   0.725485 0.037676 0.144233 0.556882
C14   C     C_R   0.252297 0.081043 0.924322 0.026815
C15   C     C_R   0.178478 0.596030 0.026149 -0.146412
C16   C     C_R   0.793177 0.670959 0.958056 -0.137240
C17   C     C_R   0.678477 0.096022 0.026148 -0.146413
C18   C     C_R   0.293201 0.170935 0.958062 -0.137234
C19   C     C_R   0.184304 0.604253 0.953222 -0.142060
C20   C     C_R   0.790381 0.684638 0.030868 -0.137722
C21   C     C_R   0.684303 0.104246 0.953221 -0.142066
C22   C     C_R   0.290407 0.184605 0.030874 -0.137725
C23   C     C_R   0.249723 0.583246 0.921783 0.030323
C24   C     C_R   0.771983 0.542600 0.853339 0.550061
C25   C     C_R   0.744718 0.611730 0.071356 0.026864
C26   C     C_R   0.749724 0.083247 0.921783 0.030321
C27   C     C_R   0.244720 0.111728 0.071355 0.026868
C28   C     C_R   0.515904 0.719375 0.542583 -0.128318
C29   C     C_R   0.520399 0.717174 0.469485 -0.127279
C30   C     C_R   0.015903 0.219375 0.542582 -0.128318
C31   C     C_R   0.020399 0.217174 0.469485 -0.127278
C32   C     C_R   0.514183 0.826420 0.429600 0.026933
C33   C     C_R   0.501651 0.829963 0.577363 0.026617
C34   C     C_R   0.014182 0.326420 0.429600 0.026933
C35   C     C_R   0.225485 0.537675 0.144233 0.556884
C36   C     C_R   0.001650 0.329962 0.577363 0.026617
C37   C     C_R   0.505031 0.937880 0.464691 -0.128814
C38   C     C_R   0.499757 0.939811 0.538598 -0.119855
C39   C     C_R   0.005031 0.437880 0.464691 -0.128814
C40   C     C_R   0.999756 0.439810 0.538597 -0.119854
C41   C     C_R   0.438097 0.817039 0.862329 0.567161
C42   C     C_R   0.526794 0.822266 0.146013 0.548630
C43   C     C_R   0.938097 0.317039 0.862329 0.567159
C44   C     C_R   0.026795 0.322266 0.146013 0.548631
C45   C     C_R   0.172014 0.583543 0.547062 0.095974
C46   C     C_3   0.509610 0.732029 0.974614 -0.104534
C47   C     C_R   0.828159 0.583151 0.452958 0.095131
C48   C     C_R   0.672013 0.083547 0.547061 0.095972
C49   C     C_R   0.328159 0.083151 0.452958 0.095131
C50   C     C_R   0.163810 0.558389 0.475602 -0.080519
C51   C     C_R   0.836112 0.558918 0.524594 -0.082666
C52   C     C_R   0.663810 0.058391 0.475602 -0.080518
C53   C     C_R   0.336112 0.058916 0.524594 -0.082665
C54   C     C_R   0.219072 0.508326 0.437546 -0.001760
C55   C     C_R   0.781186 0.508341 0.562687 -0.000593
C56   C     C_R   0.719072 0.008325 0.437546 -0.001760
C57   C     C_3   0.458103 0.722495 0.037102 -0.118532
C58   C     C_R   0.281186 0.008340 0.562686 -0.000593
C59   C     C_R   0.282460 0.473811 0.472711 -0.139003
C60   C     C_R   0.718277 0.472740 0.527491 -0.141068
C61   C     C_R   0.782457 0.973806 0.472712 -0.139003
C62   C     C_R   0.218278 0.972737 0.527490 -0.141068
C63   C     C_R   0.293136 0.504587 0.543919 -0.153732
C64   C     C_R   0.707632 0.503180 0.456074 -0.156562
C65   C     C_R   0.793134 0.004584 0.543920 -0.153733
C66   C     C_R   0.207633 0.003177 0.456073 -0.156562
C67   C     C_R   0.239689 0.566580 0.580319 0.040049
C68   C     C_3   0.009618 0.232039 0.974611 -0.104536
C69   C     C_R   0.760741 0.565636 0.419591 0.041960
C70   C     C_R   0.739689 0.066581 0.580318 0.040048
C71   C     C_R   0.260741 0.065635 0.419590 0.041959
C72   C     C_R   0.260495 0.634000 0.851024 0.538984
C73   C     C_R   0.738048 0.641199 0.146492 0.546359
C74   C     C_R   0.760496 0.134001 0.851024 0.538981
C75   C     C_R   0.238048 0.141199 0.146491 0.546364
C76   C     C_R   0.291197 0.994965 0.639000 0.572938
C77   C     C_R   0.708923 0.994710 0.361257 0.569752
C78   C     C_R   0.791197 0.494965 0.639000 0.572938
C79   C     C_3   0.958112 0.222487 0.037099 -0.118531
C80   C     C_R   0.208924 0.494710 0.361257 0.569751
C81   C     C_R   0.471675 0.823529 0.647999 0.547587
C82   C     C_R   0.532490 0.822693 0.354710 0.539278
C83   C     C_R   0.971675 0.323529 0.647999 0.547587
C84   C     C_R   0.032489 0.322693 0.354710 0.539279
C85   C     C_R   0.258073 0.632214 0.645474 0.545524
C86   C     C_R   0.742059 0.631955 0.354426 0.543415
C87   C     C_R   0.758073 0.132215 0.645473 0.545523
C88   C     C_R   0.242059 0.131955 0.354426 0.543416
C89   C     C_3   0.446158 0.923560 0.037728 -0.127897
C90   C     C_R   0.307571 0.540899 0.963601 -0.151557
C91   C     C_3   0.497476 0.932972 0.974418 -0.109404
C92   C     C_3   0.946151 0.423550 0.037731 -0.127896
C93   C     C_3   0.997468 0.432980 0.974420 -0.109400
C94   C     C_3   0.407185 0.815778 0.999994 -0.140668
C95   C     C_3   0.548139 0.839655 0.011400 -0.110617
C96   C     C_3   0.907186 0.315762 0.999994 -0.140671
C97   C     C_3   0.048139 0.339672 0.011400 -0.110622
C98   C     C_3   0.459157 0.824916 0.938233 0.051060
C99   C     C_3   0.496527 0.829907 0.073459 0.050950
C100  C     C_3   0.959158 0.324917 0.938233 0.051061
Cr1   Cr    Cr6+3 0.229630 0.835900 0.747350 1.000109
Cr2   Cr    Cr6+3 0.614200 0.677120 0.250660 1.011961
Cr3   Cr    Cr6+3 0.885800 0.177120 0.749340 1.006178
Cr4   Cr    Cr6+3 0.114200 0.177120 0.250660 1.011959
Cr5   Cr    Cr6+3 0.770370 0.835900 0.252650 1.003604
Cr6   Cr    Cr6+3 0.729630 0.335900 0.747350 1.000109
Cr7   Cr    Cr6+3 0.270370 0.335900 0.252650 1.003604
Cr8   Cr    Cr6+3 0.387410 0.989850 0.750850 1.006391
Cr9   Cr    Cr6+3 0.612590 0.989850 0.249150 1.007838
Cr10  Cr    Cr6+3 0.887410 0.489850 0.750850 1.006392
Cr11  Cr    Cr6+3 0.112590 0.489850 0.249150 1.007841
Cr12  Cr    Cr6+3 0.385800 0.677120 0.749340 1.006180
H1    H     H_    0.348859 0.806185 0.993694 0.121406
H2    H     H_    0.675695 0.429450 0.555929 0.136339
H3    H     H_    0.825289 0.930947 0.444348 0.137891
H4    H     H_    0.175696 0.929446 0.555928 0.136340
H5    H     H_    0.344656 0.487647 0.568715 0.136595
H6    H     H_    0.656343 0.485773 0.431179 0.131013
H7    H     H_    0.844653 0.987640 0.568717 0.136594
H8    H     H_    0.156344 0.985769 0.431178 0.131013
H9    H     H_    0.420365 0.001581 0.065039 0.121409
H10   H     H_    0.513792 0.019105 0.947587 0.117603
H11   H     H_    0.920351 0.501563 0.065043 0.121415
H12   H     H_    0.606520 0.849224 0.017261 0.125086
H13   H     H_    0.013777 0.519119 0.947591 0.117607
H14   H     H_    0.536073 0.653435 0.948466 0.132415
H15   H     H_    0.442712 0.636466 0.064428 0.117860
H16   H     H_    0.036088 0.153454 0.948461 0.132410
H17   H     H_    0.942729 0.136451 0.064423 0.117859
H18   H     H_    0.358660 0.523993 0.940252 0.128855
H19   H     H_    0.662673 0.473507 0.067369 0.127471
H20   H     H_    0.858664 0.024011 0.940255 0.128860
H21   H     H_    0.162629 0.973573 0.067355 0.127474
H22   H     H_    0.345513 0.495321 0.069190 0.113584
H23   H     H_    0.848861 0.306156 0.993694 0.121405
H24   H     H_    0.672089 0.440667 0.938562 0.135948
H25   H     H_    0.845517 0.995344 0.069193 0.113582
H26   H     H_    0.172044 0.940743 0.938546 0.135929
H27   H     H_    0.127260 0.615441 0.048632 0.136888
H28   H     H_    0.830305 0.726484 0.928790 0.133966
H29   H     H_    0.627257 0.115425 0.048631 0.136888
H30   H     H_    0.330348 0.226435 0.928803 0.133968
H31   H     H_    0.138492 0.634891 0.922011 0.129099
H32   H     H_    0.823817 0.754120 0.055146 0.138692
H33   H     H_    0.638491 0.134877 0.922009 0.129095
H34   H     H_    0.106519 0.349255 0.017261 0.125087
H35   H     H_    0.323864 0.254057 0.055157 0.138675
H36   H     H_    0.519230 0.632745 0.571200 0.134948
H37   H     H_    0.530313 0.629258 0.444704 0.135790
H38   H     H_    0.019229 0.132745 0.571200 0.134948
H39   H     H_    0.030313 0.129258 0.444704 0.135791
H40   H     H_    0.503622 0.023063 0.435105 0.152810
H41   H     H_    0.491961 0.026138 0.565290 0.149576
H42   H     H_    0.003622 0.523062 0.435105 0.152811
H43   H     H_    0.991960 0.526138 0.565290 0.149576
H44   H     H_    0.107039 0.591764 0.632777 0.251731
H45   H     H_    0.115041 0.585128 0.448717 0.144847
H46   H     H_    0.115782 0.728177 0.586348 0.252475
H47   H     H_    0.893236 0.592604 0.367290 0.251063
H48   H     H_    0.883826 0.728380 0.413737 0.253798
H49   H     H_    0.607038 0.091771 0.632776 0.251731
H50   H     H_    0.615785 0.228183 0.586347 0.252476
H51   H     H_    0.393238 0.092604 0.367290 0.251061
H52   H     H_    0.383825 0.228380 0.413737 0.253800
H53   H     H_    0.884184 0.587299 0.551541 0.142607
H54   H     H_    0.615041 0.085133 0.448716 0.144848
H55   H     H_    0.384184 0.087297 0.551541 0.142608
H56   H     H_    0.325293 0.430956 0.444347 0.137891
N1    N     N_3   0.111658 0.632826 0.582483 -0.657553
N2    N     N_3   0.888285 0.632933 0.417543 -0.661084
N3    N     N_3   0.611658 0.132832 0.582482 -0.657551
N4    N     N_3   0.388286 0.132934 0.417544 -0.661083
O1    O     O_R   0.214270 0.709000 0.827470 -0.525783
O2    O     O_R   0.543270 0.717630 0.330160 -0.523177
O3    O     O_R   0.956730 0.217630 0.669840 -0.517343
O4    O     O_R   0.043270 0.217630 0.330160 -0.523177
O5    O     O_R   0.320620 0.625640 0.672920 -0.505250
O6    O     O_R   0.679380 0.625640 0.327080 -0.508905
O7    O     O_R   0.820620 0.125640 0.672920 -0.505249
O8    O     O_R   0.179380 0.125640 0.327080 -0.508904
O9    O     O_3   0.334280 0.834290 0.749180 -0.286083
O10   O     O_3   0.665720 0.834290 0.250820 -0.269232
O11   O     O_3   0.834280 0.334290 0.749180 -0.286083
O12   O     O_R   0.785730 0.709000 0.172530 -0.531263
O13   O     O_3   0.165720 0.334290 0.250820 -0.269232
O14   O     O_R   0.236160 0.958490 0.823130 -0.502459
O15   O     O_R   0.763840 0.958490 0.176870 -0.501496
O16   O     O_R   0.736160 0.458490 0.823130 -0.502462
O17   O     O_R   0.263840 0.458490 0.176870 -0.501493
O18   O     O_R   0.332080 0.075470 0.831280 -0.524945
O19   O     O_R   0.667920 0.075470 0.168720 -0.520361
O20   O     O_R   0.832080 0.575470 0.831280 -0.524939
O21   O     O_R   0.167920 0.575470 0.168720 -0.520360
O22   O     O_R   0.446300 0.918110 0.826620 -0.500540
O23   O     O_R   0.714270 0.209000 0.827470 -0.525786
O24   O     O_R   0.553700 0.918110 0.173380 -0.505469
O25   O     O_R   0.946300 0.418110 0.826620 -0.500540
O26   O     O_R   0.053700 0.418110 0.173380 -0.505467
O27   O     O_R   0.457110 0.716200 0.831760 -0.520114
O28   O     O_R   0.542890 0.716200 0.168240 -0.516314
O29   O     O_R   0.957110 0.216200 0.831760 -0.520115
O30   O     O_R   0.042890 0.216200 0.168240 -0.516318
O31   O     O_R   0.320980 0.624310 0.823030 -0.520304
O32   O     O_R   0.679020 0.624310 0.176970 -0.498977
O33   O     O_R   0.820980 0.124310 0.823030 -0.520304
O34   O     O_R   0.285730 0.209000 0.172530 -0.531263
O35   O     O_R   0.179020 0.124310 0.176970 -0.498982
O36   O     O_R   0.213890 0.710430 0.665540 -0.537816
O37   O     O_R   0.786110 0.710430 0.334460 -0.537937
O38   O     O_R   0.713890 0.210430 0.665540 -0.537817
O39   O     O_R   0.286110 0.210430 0.334460 -0.537937
O40   O     O_R   0.235810 0.959820 0.673020 -0.500770
O41   O     O_R   0.764190 0.959820 0.326980 -0.500073
O42   O     O_R   0.735810 0.459820 0.673020 -0.500769
O43   O     O_R   0.264190 0.459820 0.326980 -0.500074
O44   O     O_R   0.331700 0.076900 0.669350 -0.520114
O45   O     O_R   0.445950 0.919440 0.676520 -0.524094
O46   O     O_R   0.668300 0.076900 0.330650 -0.518994
O47   O     O_R   0.831700 0.576900 0.669350 -0.520114
O48   O     O_R   0.168300 0.576900 0.330650 -0.518993
O49   O     O_R   0.554050 0.919440 0.323480 -0.529150
O50   O     O_R   0.945950 0.419440 0.676520 -0.524094
O51   O     O_R   0.054050 0.419440 0.323480 -0.529150
O52   O     O_R   0.456730 0.717630 0.669840 -0.517343

loop_
_geom_bond_atom_site_label_1
_geom_bond_atom_site_label_2
_ccdc_geom_bond_type
C95   H12   S    
C58   C62   A    
C21   C26   A    
C44   O26   A    
C13   O15   A    
H47   N2    S    
C83   O3    A    
C43   O25   A    
C97   H34   S    
H44   N1    S    
C60   H2    S    
C2    C7    A    
C86   O37   A    
C86   O6    A    
C4    C8    A    
C3    C79   S    
C78   O42   A    
C68   C100  S    
C58   C76   S    
Cr4   O4    S    
C82   O49   A    
C1    O14   A    
C7    C11   A    
Cr4   O13   S    
C5    C9    A    
C50   C54   A    
Cr8   O9    S    
C89   C99   S    
Cr3   O11   S    
C28   C29   A    
C37   C38   A    
C29   C32   A    
C10   C15   A    
C59   H56   S    
Cr9   O10   S    
C30   C31   A    
C63   H5    S    
C75   O34   A    
C95   C99   S    
C77   O46   A    
C30   H38   S    
Cr7   O39   S    
C20   C25   A    
C94   C98   S    
C36   C83   S    
C65   C70   A    
Cr6   O38   S    
C11   C24   S    
C92   C96   S    
C64   H6    S    
Cr9   O24   S    
C17   H29   S    
C11   C16   A    
Cr4   O35   S    
C89   C94   S    
Cr2   O32   S    
C68   C97   S    
C47   C69   A    
Cr7   O34   S    
Cr9   O46   S    
C52   H54   S    
C5    C27   A    
C83   O50   A    
Cr1   O1    S    
C53   H55   S    
H50   N3    S    
C82   O2    A    
C88   O39   A    
C12   C17   A    
C61   H3    S    
C40   H43   S    
C10   C35   S    
Cr5   O10   S    
C80   O43   A    
C68   H16   S    
Cr12  O27   S    
Cr3   O7    S    
C41   O27   A    
Cr12  O31   S    
C1    O18   A    
C76   O40   A    
C68   C79   S    
C46   C98   S    
C35   O17   A    
C15   H27   S    
C66   H8    S    
C55   C60   A    
Cr10  O25   S    
C44   O30   A    
Cr12  O52   S    
Cr8   O18   S    
C16   H28   S    
C34   C84   S    
C27   C75   S    
C70   C87   S    
C94   H1    S    
C57   H15   S    
C88   O8    A    
C96   H23   S    
C54   C80   S    
C54   C59   A    
C50   H45   S    
Cr6   O42   S    
C73   O32   A    
C63   C67   A    
C3    C44   S    
C28   H36   S    
C67   C85   S    
Cr10  O11   S    
C62   C66   A    
C39   H42   S    
C77   O41   A    
C34   C39   A    
Cr2   O10   S    
C18   H30   S    
Cr5   O41   S    
C43   C100  S    
C4    H20   S    
C92   H11   S    
C39   C40   A    
C55   C78   S    
C19   C23   A    
C47   C51   A    
C51   C55   A    
C6    C90   A    
C29   H37   S    
C91   H10   S    
C17   C21   A    
C56   C77   S    
C3    C92   S    
C90   H18   S    
C15   C19   A    
C9    C14   A    
Cr3   O29   S    
C62   H4    S    
C41   O22   A    
H51   N4    S    
Cr1   O36   S    
Cr2   O28   S    
C78   O47   A    
C48   N3    S    
C31   H39   S    
C9    H26   S    
C76   O44   A    
C66   C71   A    
C36   C40   A    
C16   C20   A    
C81   O45   A    
Cr7   O17   S    
Cr3   O3    S    
C2    H19   S    
C65   H7    S    
C23   C90   A    
C24   O20   A    
Cr11  O51   S    
C32   C37   A    
C22   H35   S    
C42   O24   A    
Cr10  O47   S    
C93   C100  S    
Cr8   O44   S    
Cr11  O21   S    
C5    H21   S    
C53   C58   A    
Cr8   O45   S    
C85   O5    A    
Cr12  O9    S    
C72   O1    A    
C28   C33   A    
C57   C94   S    
C72   O31   A    
C46   C57   S    
C22   C27   A    
Cr2   O6    S    
C87   O38   A    
H52   N4    S    
C89   C91   S    
Cr11  O48   S    
C37   H40   S    
Cr8   O22   S    
Cr1   O14   S    
Cr10  O50   S    
C93   C97   S    
C47   N2    S    
Cr9   O49   S    
C52   C56   A    
C24   O16   A    
C75   O35   A    
C73   O12   A    
C81   O52   A    
C74   O23   A    
C19   H31   S    
C3    C97   S    
C18   C22   A    
C23   C72   S    
C46   H14   S    
C31   C34   A    
Cr3   O33   S    
C48   C70   A    
C84   O51   A    
C45   N1    S    
Cr1   O40   S    
C80   O48   A    
C49   N4    S    
C4    C26   A    
C20   H32   S    
H46   N1    S    
C45   C67   A    
Cr4   O30   S    
Cr2   O2    S    
C32   C82   S    
Cr7   O13   S    
C59   C63   A    
C33   C38   A    
C13   O19   A    
C30   C36   A    
C60   C64   A    
Cr5   O15   S    
C79   H17   S    
C42   O28   A    
Cr6   O23   S    
Cr6   O16   S    
C79   C96   S    
Cr11  O26   S    
C84   O4    A    
C42   C99   S    
C2    C25   A    
Cr4   O8    S    
C89   H9    S    
C45   C50   A    
Cr9   O19   S    
C49   C53   A    
C96   C100  S    
Cr10  O20   S    
C92   C93   S    
C26   C74   S    
C14   C18   A    
Cr11  O13   S    
C25   C73   S    
C91   C98   S    
C64   C69   A    
C46   C95   S    
Cr1   O9    S    
C93   H13   S    
Cr6   O11   S    
C51   H53   S    
C6    C10   A    
C35   O21   A    
Cr5   O12   S    
C87   O7    A    
C71   C88   S    
H49   N3    S    
C61   C65   A    
C7    H24   S    
Cr7   O43   S    
C12   C13   S    
C91   C95   S    
C6    H22   S    
C49   C71   A    
H48   N2    S    
C43   O29   A    
C8    H25   S    
C1    C14   S    
C38   H41   S    
Cr5   O37   S    
C48   C52   A    
C33   C81   S    
C56   C61   A    
C41   C98   S    
C69   C86   S    
C8    C12   A    
C85   O36   A    
C21   H33   S    
Cr12  O5    S    
C74   O33   A    
C57   C99   S    
