data_mof_unit_28976.cif
_audit_creation_date              2012-12-10T18:02:11-0500
_audit_creation_method            fapswitch 2.2
_symmetry_space_group_name_H-M    P1
_symmetry_Int_Tables_number       1
_space_group_crystal_system       triclinic
_cell_length_a                    10.964407
_cell_length_b                    9.590928
_cell_length_c                    23.596814
_cell_angle_alpha                 90.627377
_cell_angle_beta                  92.060938
_cell_angle_gamma                 90.647975
_cell_volume                      2479.48971623

loop_
_atom_site_label
_atom_site_type_symbol
_atom_type_description
_atom_site_fract_x
_atom_site_fract_y
_atom_site_fract_z
_atom_type_partial_charge
C1    C     C_R   0.262704 0.499769 0.503092 0.920540
C2    C     C_R   0.737811 0.500838 0.498226 0.928387
C3    C     C_R   0.592692 0.594089 0.242083 -0.153153
C4    C     C_R   0.432927 0.566031 0.762305 -0.155196
C5    C     C_R   0.589123 0.593235 0.301294 -0.086563
C6    C     C_R   0.417445 0.557205 0.703380 -0.079446
C7    C     C_R   0.506862 0.502543 0.328211 -0.213031
C8    C     C_R   0.512764 0.504961 0.670986 -0.189195
C9    C     C_R   0.428843 0.416551 0.293884 0.307535
C10   C     C_R   0.622357 0.463198 0.698694 0.320021
C11   C     C_R   0.446509 0.403288 0.235561 0.380934
C12   C     C_R   0.630317 0.455594 0.758153 0.390253
C13   C     C_R   0.524241 0.497959 0.208656 0.145223
C14   C     C_R   0.535645 0.510079 0.790449 0.141818
C15   C     C_R   0.061751 0.374081 0.504160 0.321804
C16   C     C_R   0.939120 0.629674 0.504737 0.271568
C17   C     C_R   0.936196 0.375589 0.493892 0.344140
C18   C     C_R   0.066116 0.628740 0.509041 0.303049
C19   C     C_R   0.872254 0.502654 0.497588 -0.358891
C20   C     C_R   0.128989 0.500622 0.506204 -0.370831
C21   C     C_R   0.424111 0.071349 0.463835 0.379815
C22   C     C_R   0.571434 0.927851 0.538382 0.395837
C23   C     C_R   0.574410 0.075643 0.537039 0.390540
C24   C     C_R   0.426042 0.923613 0.462721 0.372479
C25   C     C_R   0.500636 0.500167 0.390956 0.872073
C26   C     C_R   0.501748 0.501099 0.608724 0.869788
C27   C     C_R   0.635283 0.561115 0.882792 0.692132
C28   C     C_R   0.421401 0.509625 0.115791 0.689770
C29   C     C_R   0.440305 0.449399 0.878118 0.632268
C30   C     C_R   0.638190 0.507574 0.121608 0.635633
C31   C     C_R   0.429722 0.464927 0.937233 -0.148319
C32   C     C_R   0.642736 0.526398 0.062287 -0.147545
C33   C     C_R   0.535273 0.505933 0.969713 -0.103183
C34   C     C_R   0.533199 0.507103 0.029486 -0.105627
C35   C     C_R   0.642555 0.546502 0.942381 -0.154142
C36   C     C_R   0.421263 0.490109 0.056558 -0.154260
C37   C     C_R   0.318638 0.440271 0.964730 0.347782
C38   C     C_R   0.751791 0.561133 0.034788 0.357258
C39   C     C_R   0.314030 0.455423 0.023914 0.367177
C40   C     C_R   0.751198 0.573538 0.975356 0.362838
Cu1   Cu    Cu3+1 0.500000 0.640660 0.500000 1.107313
Cu2   Cu    Cu3+1 0.500000 0.359340 0.500000 1.116904
H1    H     H_    0.650598 0.669602 0.221818 0.204496
H2    H     H_    0.360308 0.608517 0.787026 0.198775
N1    N     N_R   0.538790 0.504484 0.851766 -0.455999
N2    N     N_R   0.528249 0.503518 0.147406 -0.458387
N3    N     N_R   0.500000 0.852070 0.500000 -0.289444
N4    N     N_R   0.500000 0.147930 0.500000 -0.298719
O1    O     O_R   0.319640 0.618740 0.500000 -0.509286
O2    O     O_R   0.680360 0.381260 0.500000 -0.510951
O3    O     O_R   0.680360 0.618740 0.500000 -0.522278
O4    O     O_R   0.319640 0.381260 0.500000 -0.513834
O5    O     O_R   0.499960 0.618810 0.417880 -0.556311
O6    O     O_R   0.500040 0.381190 0.582120 -0.545720
O7    O     O_R   0.500040 0.618810 0.582120 -0.538991
O8    O     O_R   0.499960 0.381190 0.417880 -0.546087
O9    O     O_2   0.721144 0.634310 0.856014 -0.411411
O10   O     O_2   0.316747 0.537438 0.141790 -0.396964
O11   O     O_2   0.354298 0.378638 0.846894 -0.440718
O12   O     O_2   0.741623 0.490343 0.153211 -0.434904
Cl1   Cl    Cl    0.179830 0.402240 0.926309 -0.324806
Cl2   Cl    Cl    0.889156 0.603150 0.073588 -0.322508
Cl3   Cl    Cl    0.174371 0.415064 0.056155 -0.285918
Cl4   Cl    Cl    0.891889 0.611126 0.943548 -0.309124
C41   C     C_R   0.672239 0.690995 0.332648 0.122292
C42   C     C_R   0.635023 0.827803 0.343911 -0.090633
C43   C     C_R   0.718912 0.926392 0.366316 -0.138541
C44   C     C_R   0.840736 0.889617 0.376352 0.048381
C45   C     C_R   0.878028 0.753156 0.365680 -0.075826
C46   C     C_R   0.793973 0.653793 0.344062 -0.163442
H3    H     H_    0.542006 0.858669 0.334107 0.191065
H4    H     H_    0.689999 0.031853 0.374911 0.170811
H5    H     H_    0.906168 0.966392 0.392882 0.225424
H6    H     H_    0.972219 0.724645 0.373914 0.189752
H7    H     H_    0.824342 0.549233 0.334694 0.174113
C47   C     C_R   0.296217 0.592222 0.678454 0.102116
C48   C     C_R   0.250901 0.727822 0.684318 -0.106713
C49   C     C_R   0.128980 0.755577 0.669577 -0.021527
C50   C     C_R   0.051286 0.647960 0.649641 -0.020364
C51   C     C_R   0.096024 0.513008 0.643354 -0.108121
C52   C     C_R   0.218353 0.485238 0.657185 -0.135670
H8    H     H_    0.309187 0.810962 0.701602 0.164935
H9    H     H_    0.094278 0.860092 0.674347 0.191378
H10   H     H_    0.956655 0.669318 0.638720 0.208958
H11   H     H_    0.035696 0.429732 0.628013 0.204096
H12   H     H_    0.251042 0.379476 0.653519 0.172494
Cl5   Cl    Cl    0.291499 0.351815 0.319726 -0.396837
Cl6   Cl    Cl    0.753912 0.432085 0.659698 -0.488505
Cl7   Cl    Cl    0.372141 0.265445 0.197125 -0.408115
Cl8   Cl    Cl    0.755311 0.369651 0.791087 -0.381814
Cl9   Cl    Cl    0.127506 0.211152 0.521717 -0.397833
Cl10  Cl    Cl    0.870078 0.795891 0.507150 -0.435625
Cl11  Cl    Cl    0.865605 0.215088 0.472145 -0.465841
Cl12  Cl    Cl    0.141122 0.791619 0.524320 -0.427512
Cl13  Cl    Cl    0.317812 0.153720 0.419504 -0.357464
Cl14  Cl    Cl    0.657027 0.844314 0.592565 -0.416819
Cl15  Cl    Cl    0.675724 0.163781 0.584499 -0.358061
Cl16  Cl    Cl    0.328294 0.833611 0.413389 -0.446959

loop_
_geom_bond_atom_site_label_1
_geom_bond_atom_site_label_2
_ccdc_geom_bond_type
C38   C40   A    
C8    C10   A    
C8    C26   S    
Cu1   Cu2   S    
C25   O8    A    
C26   O7    A    
C48   C49   A    
C3    H1    S    
C24   Cl16  S    
C12   Cl8   S    
C25   O5    A    
C50   H10   S    
C33   C35   A    
C41   C46   A    
C7    C9    A    
C43   H4    S    
Cu1   O7    S    
C2    O2    A    
Cu2   O8    S    
C49   H9    S    
C29   O11   S    
C44   C45   A    
C30   O12   S    
C31   C33   A    
C32   C38   A    
C18   C20   A    
C52   H12   S    
C3    C13   A    
C10   Cl6   S    
C21   N4    A    
C27   N1    A    
C42   C43   A    
C26   O6    A    
Cu1   O1    S    
C14   N1    S    
C15   C20   A    
C43   C44   A    
C47   C48   A    
C5    C41   S    
C27   O9    S    
C5    C7    A    
C49   C50   A    
C6    C8    A    
C21   Cl13  S    
C27   C35   A    
C44   H5    S    
C31   C37   A    
C29   N1    A    
C32   C34   A    
C51   H11   S    
C11   Cl7   S    
C42   H3    S    
C29   C31   A    
C28   N2    A    
C33   C34   A    
Cu1   N3    S    
C45   H6    S    
Cu2   N4    S    
C9    C11   A    
Cu1   O5    S    
C10   C12   A    
Cu2   O2    S    
C4    C6    A    
C23   Cl15  S    
C12   C14   A    
C16   Cl10  S    
C18   Cl12  S    
C17   Cl11  S    
C39   Cl3   S    
C15   C17   A    
C1    C20   S    
C23   N4    A    
C2    C19   S    
C24   N3    A    
C22   Cl14  S    
C30   N2    A    
C36   C39   A    
C51   C52   A    
C3    C5    A    
C7    C25   S    
C47   C52   A    
C37   Cl1   S    
C6    C47   S    
C28   O10   S    
C4    H2    S    
C40   Cl4   S    
C35   C40   A    
C37   C39   A    
Cu2   O6    S    
C30   C32   A    
C11   C13   A    
C13   N2    S    
C48   H8    S    
C16   C19   A    
C17   C19   A    
C22   N3    A    
C34   C36   A    
C4    C14   A    
C45   C46   A    
C1    O4    A    
C2    O3    A    
C15   Cl9   S    
C50   C51   A    
C28   C36   A    
C16   C18   A    
C41   C42   A    
C21   C24   A    
C46   H7    S    
C22   C23   A    
C1    O1    A    
Cu1   O3    S    
C9    Cl5   S    
Cu2   O4    S    
C38   Cl2   S    
