data_mof_unit_11077.cif
_audit_creation_date              2012-12-11T14:08:29-0500
_audit_creation_method            fapswitch 2.2
_symmetry_space_group_name_H-M    P1
_symmetry_Int_Tables_number       1
_space_group_crystal_system       triclinic
_cell_length_a                    10.894601
_cell_length_b                    10.9965
_cell_length_c                    18.719115
_cell_angle_alpha                 90.358467
_cell_angle_beta                  89.553859
_cell_angle_gamma                 60.310394
_cell_volume                      1948.0003612

loop_
_atom_site_label
_atom_site_type_symbol
_atom_type_description
_atom_site_fract_x
_atom_site_fract_y
_atom_site_fract_z
_atom_type_partial_charge
C1    C     C_R   0.236420 0.645475 0.608688 0.548784
C2    C     C_2   0.790157 0.136059 0.704465 0.275730
C3    C     C_2   0.182618 0.660650 0.681985 0.214096
C4    C     C_R   0.650937 0.618900 0.603146 0.636774
C5    C     C_2   0.202323 0.659572 0.841417 0.086475
C6    C     C_2   0.210539 0.554003 0.801264 0.307139
C7    C     C_2   0.245248 0.547855 0.724703 -0.051889
C8    C     C_2   0.662719 0.649156 0.320773 0.293275
C9    C     C_2   0.623324 0.662531 0.155246 0.280401
C10   C     C_2   0.703541 0.553611 0.197416 -0.144136
C11   C     C_2   0.669306 0.553322 0.272598 -0.154944
C12   C     C_3   0.691638 0.533913 0.802141 0.656575
C13   C     C_2   0.678369 0.123443 0.338743 -0.086061
C14   C     C_2   0.675911 0.094338 0.184466 0.295673
C15   C     C_2   0.619973 0.041254 0.229914 0.355795
C16   C     C_R   0.628594 0.226695 0.601539 0.567290
C17   C     C_2   0.596737 0.081930 0.304894 0.450230
C18   C     C_2   0.115875 0.682760 0.347432 0.245930
C19   C     C_2   0.115624 0.691101 0.190338 -0.090082
C20   C     C_2   0.045865 0.803351 0.234078 -0.175029
C21   C     C_2   0.078029 0.798139 0.309223 -0.161596
C22   C     C_R   0.703624 0.102483 0.897754 0.611711
C23   C     C_3   0.693463 0.673400 0.814816 -0.003771
C24   C     C_R   0.720536 0.686689 0.889994 0.655606
C25   C     C_R   0.120825 0.705479 0.908069 0.593200
C26   C     C_R   0.699894 0.046283 0.111883 0.599898
C27   C     C_R   0.690850 0.688560 0.094186 0.593425
C28   C     C_R   0.215612 0.651039 0.404560 0.596244
C29   C     C_R   0.086720 0.713551 0.115160 0.542180
C30   C     C_R   0.644548 0.622776 0.394321 0.615150
C31   C     C_R   0.622418 0.219708 0.398810 0.562692
C32   C     C_3   0.547350 0.799967 0.788996 0.409347
C33   C     C_3   0.526125 0.771786 0.709437 0.074897
C34   C     C_3   0.665288 0.644299 0.678945 -0.008300
C35   C     C_3   0.821325 0.664218 0.770020 0.084051
C36   C     C_3   0.791111 0.672040 0.689086 0.490894
C37   C     C_3   0.692006 0.510142 0.721122 0.277901
C38   C     C_2   0.673734 0.155810 0.670202 0.024738
C39   C     C_2   0.692623 0.165660 0.828068 0.404284
C40   C     C_2   0.803413 0.105545 0.782041 -0.086139
Cr1   Cr    Cr6+3 0.393010 0.398050 0.501480 1.118137
Cr2   Cr    Cr6+3 0.398820 0.707980 0.501630 1.091991
Cr3   Cr    Cr6+3 0.708140 0.393940 0.496850 1.127201
Cr4   Cr    Cr6+3 0.937950 0.938450 0.008940 1.097785
Cr5   Cr    Cr6+3 0.626180 0.937030 0.994750 1.137584
Cr6   Cr    Cr6+3 0.937790 0.625760 0.001410 1.124769
F1    F     F_    0.821482 0.397513 0.701152 -0.556873
F2    F     F_    0.563504 0.268560 0.806951 -0.614611
F3    F     F_    0.566143 0.961394 0.204754 -0.572814
F4    F     F_    0.480900 0.088584 0.336995 -0.525339
F5    F     F_    0.711190 0.192621 0.203946 -0.684426
F6    F     F_    0.755090 0.802977 0.661975 -0.676877
F7    F     F_    0.808878 0.420850 0.831766 -0.552281
F8    F     F_    0.573199 0.539193 0.833321 -0.554259
H1    H     H_    0.913706 0.558778 0.779711 0.239302
H2    H     H_    0.094962 0.881741 0.328985 0.159781
H3    H     H_    0.188470 0.587072 0.209581 0.160820
H4    H     H_    0.499954 0.864754 0.675745 0.165952
H5    H     H_    0.609582 0.481841 0.708202 0.177144
H6    H     H_    0.570784 0.957653 0.751946 0.321499
H7    H     H_    0.977591 0.607475 0.647442 0.363104
H8    H     H_    0.976494 0.116787 0.700467 0.362707
H9    H     H_    0.194214 0.387012 0.792423 0.345033
H10   H     H_    0.409976 0.875656 0.869780 0.373642
H11   H     H_    0.043367 0.854858 0.668122 0.357871
H12   H     H_    0.906206 0.026037 0.800784 0.126734
H13   H     H_    0.447154 0.724470 0.209008 0.336166
H14   H     H_    0.741127 0.736695 0.259470 0.330113
H15   H     H_    0.324942 0.835319 0.706836 0.367711
H16   H     H_    0.992496 0.627203 0.299685 0.333753
H17   H     H_    0.792479 0.854823 0.780847 0.362180
H18   H     H_    0.597396 0.136227 0.697820 0.116351
H19   H     H_    0.323437 0.446354 0.703119 0.133617
H20   H     H_    0.235475 0.729581 0.818707 0.169544
H21   H     H_    0.808129 0.472412 0.180415 0.167438
H22   H     H_    0.658537 0.464895 0.290198 0.155567
H23   H     H_    0.779856 0.101587 0.316723 0.103661
H24   H     H_    0.975178 0.906489 0.212965 0.170615
O1    O     O_R   0.507110 0.256280 0.580300 -0.527531
O2    O     O_R   0.837080 0.593860 0.915300 -0.435975
O3    O     O_R   0.064770 0.636080 0.932550 -0.420004
O4    O     O_R   0.280830 0.527190 0.577940 -0.527204
O5    O     O_R   0.068250 0.829200 0.092940 -0.498530
O6    O     O_R   0.799650 0.057040 0.080330 -0.465377
O7    O     O_R   0.586130 0.079760 0.077080 -0.459783
O8    O     O_R   0.627700 0.809630 0.066580 -0.447098
O9    O     O_R   0.816140 0.597180 0.075920 -0.548607
O10   O     O_R   0.045360 0.639170 0.081440 -0.498512
O11   O     O_3   0.833980 0.833750 0.001700 -0.335852
O12   O     O_R   0.524640 0.695370 0.425100 -0.475010
O13   O     O_R   0.261360 0.738990 0.584270 -0.486559
O14   O     O_R   0.532590 0.694780 0.574370 -0.494317
O15   O     O_R   0.744470 0.503750 0.577000 -0.404469
O16   O     O_R   0.698520 0.277230 0.571620 -0.435063
O17   O     O_R   0.498530 0.256920 0.419280 -0.420522
O18   O     O_R   0.272880 0.527780 0.428680 -0.442482
O19   O     O_R   0.252780 0.739630 0.423250 -0.541031
O20   O     O_3   0.543869 0.930145 0.797012 -0.681363
O21   O     O_3   0.912285 0.569756 0.652511 -0.599716
O22   O     O_3   0.899597 0.135868 0.666589 -0.612154
O23   O     O_R   0.735890 0.504390 0.415980 -0.522917
O24   O     O_3   0.185110 0.453595 0.830858 -0.626206
O25   O     O_3   0.435739 0.805443 0.830726 -0.605455
O26   O     O_3   0.078628 0.788493 0.708367 -0.708521
O27   O     O_3   0.485540 0.762535 0.172769 -0.585305
O28   O     O_3   0.690469 0.756055 0.305874 -0.637178
O29   O     O_3   0.413738 0.743636 0.704306 -0.676121
O30   O     O_3   0.078271 0.583118 0.329515 -0.661029
O31   O     O_3   0.865565 0.758818 0.792545 -0.670012
O32   O     O_R   0.690560 0.277820 0.422350 -0.520911
O33   O     O_3   0.499990 0.499990 0.499980 -0.315197
O34   O     O_R   0.089190 0.825870 0.932320 -0.518479
O35   O     O_R   0.819070 0.053960 0.931440 -0.517972
O36   O     O_R   0.607070 0.076440 0.916460 -0.442204
O37   O     O_R   0.647110 0.806550 0.917690 -0.484072

loop_
_geom_bond_atom_site_label_1
_geom_bond_atom_site_label_2
_ccdc_geom_bond_type
C3    O26   S    
C28   O19   A    
H10   O25   S    
C33   H4    S    
C18   C21   D    
C35   C36   S    
C33   O29   S    
C30   O12   A    
Cr4   O5    S    
H15   O29   S    
C7    H19   S    
Cr6   O11   S    
C19   H3    S    
C12   C23   S    
H14   O28   S    
C29   O5    A    
H6    O20   S    
C11   H22   S    
C26   O7    A    
C5    C6    D    
Cr1   O18   S    
Cr1   O4    S    
C9    O27   S    
C34   C37   S    
C12   C37   S    
Cr3   O16   S    
Cr2   O13   S    
C5    H20   S    
C2    C38   D    
C29   O10   A    
C25   O34   A    
Cr5   O36   S    
C24   O2    A    
C22   O35   A    
C19   C20   D    
C23   C24   S    
Cr3   O32   S    
C37   F1    S    
Cr5   O11   S    
C9    C10   D    
Cr2   O14   S    
C12   F7    S    
C35   O31   S    
C6    O24   S    
C2    O22   S    
C1    O13   A    
C40   H12   S    
C25   O3    A    
H7    O21   S    
Cr3   O33   S    
H9    O24   S    
Cr6   O10   S    
C13   H23   S    
C35   H1    S    
C18   C28   S    
Cr2   O19   S    
C39   C40   D    
H13   O27   S    
C1    O4    A    
C1    C3    S    
C27   O8    A    
Cr5   O7    S    
Cr2   O33   S    
Cr3   O23   S    
Cr6   O3    S    
C10   H21   S    
Cr5   O37   S    
C14   F5    S    
C33   C34   S    
C38   H18   S    
C32   O25   S    
C14   C26   S    
C27   O9    A    
C37   H5    S    
H8    O22   S    
Cr4   O34   S    
Cr4   O35   S    
C23   C35   S    
C5    C25   S    
C19   C29   S    
C9    C27   S    
Cr6   O9    S    
C15   C17   S    
C26   O6    A    
C16   O16   A    
C13   C31   S    
Cr4   O6    S    
C8    O28   S    
C17   F4    S    
Cr1   O1    S    
C21   H2    S    
C6    C7    S    
C20   H24   S    
C36   F6    S    
C3    C7    D    
C13   C17   D    
C28   O18   A    
C16   O1    A    
C8    C30   S    
C23   C32   S    
Cr5   O8    S    
H16   O30   S    
C32   C33   S    
Cr6   O2    S    
Cr1   O17   S    
C8    C11   D    
C31   O17   A    
C22   C39   S    
H17   O31   S    
C30   O23   A    
Cr3   O15   S    
C31   O32   A    
C32   O20   S    
C36   O21   S    
C34   C36   S    
C15   F3    S    
C4    C34   S    
C18   O30   S    
C10   C11   S    
C4    O15   A    
C2    C40   S    
C22   O36   A    
C20   C21   S    
C24   O37   A    
Cr1   O33   S    
C14   C15   D    
H11   O26   S    
Cr2   O12   S    
C12   F8    S    
Cr4   O11   S    
C16   C38   S    
C39   F2    S    
C4    O14   A    
