data_mof_unit_12726.cif
_audit_creation_date              2012-10-26T20:19:05-0400
_audit_creation_method            fapswitch 2.2
_symmetry_space_group_name_H-M    P1
_symmetry_Int_Tables_number       1
_space_group_crystal_system       triclinic
_cell_length_a                    15.011138
_cell_length_b                    12.998198
_cell_length_c                    11.68818
_cell_angle_alpha                 100.490722
_cell_angle_beta                  93.598425
_cell_angle_gamma                 91.008022
_cell_volume                      2237.05033479

loop_
_atom_site_label
_atom_site_type_symbol
_atom_type_description
_atom_site_fract_x
_atom_site_fract_y
_atom_site_fract_z
_atom_type_partial_charge
C1    C     C_R   0.501391 0.298942 0.477797 0.539830
C2    C     C_R   0.473566 0.878893 0.641811 0.128814
C3    C     C_R   0.486380 0.139340 0.559498 -0.163006
C4    C     C_R   0.512950 0.860490 0.439813 -0.167765
C5    C     C_R   0.489210 0.031815 0.552193 0.011284
C6    C     C_R   0.510405 0.968187 0.447237 0.005657
C7    C     C_R   0.422258 0.394291 0.019122 -0.164645
C8    C     C_R   0.577782 0.605621 0.980885 -0.163377
C9    C     C_R   0.427521 0.405615 0.141989 0.290582
C10   C     C_R   0.572736 0.594074 0.858015 0.292766
C11   C     C_R   0.532733 0.546776 0.158124 0.013472
C12   C     C_R   0.499119 0.701074 0.522227 0.545813
C13   C     C_R   0.467041 0.453431 0.841889 0.011593
C14   C     C_R   0.527833 0.538713 0.035146 -0.030320
C15   C     C_R   0.471957 0.461453 0.964876 -0.031050
C16   C     C_R   0.329052 0.502284 0.500626 0.540667
C17   C     C_R   0.670932 0.497839 0.499325 0.543287
C18   C     C_R   0.811546 0.575703 0.459855 -0.164041
C19   C     C_R   0.188431 0.425251 0.541316 -0.163679
C20   C     C_R   0.767128 0.494573 0.498267 -0.000487
C21   C     C_R   0.232809 0.505597 0.501391 -0.003152
C22   C     C_R   0.814405 0.413541 0.538012 0.116126
C23   C     C_R   0.051424 0.338918 0.575484 -0.148112
C24   C     C_R   0.185340 0.585283 0.459030 0.113392
C25   C     C_R   0.908346 0.415347 0.538211 0.044838
C26   C     C_R   0.091479 0.584161 0.460276 0.044430
C27   C     C_R   0.953063 0.498660 0.500000 0.027787
C28   C     C_R   0.046830 0.501451 0.499649 0.028008
C29   C     C_R   0.904170 0.578821 0.461118 0.002578
C30   C     C_R   0.095765 0.421655 0.539196 0.002360
C31   C     C_R   0.958669 0.335098 0.573888 -0.124833
C32   C     C_R   0.041186 0.664454 0.424641 -0.126273
C33   C     C_3   0.760450 0.331362 0.692670 -0.308035
C34   C     C_R   0.948502 0.661359 0.424455 -0.148130
C35   C     C_3   0.235312 0.661358 0.297748 -0.306854
C36   C     C_3   0.363197 0.799693 0.742699 -0.278865
C37   C     C_3   0.550583 0.108950 0.146672 -0.328541
C38   C     C_3   0.719488 0.653561 0.818937 -0.301983
C39   C     C_3   0.281660 0.342115 0.180191 -0.302690
C40   C     C_R   0.495014 0.814934 0.535981 0.022998
C41   C     C_R   0.505699 0.185006 0.463912 0.006600
C42   C     C_R   0.530093 0.012840 0.351321 -0.103294
C43   C     C_R   0.471350 0.987242 0.648785 -0.122119
C44   C     C_R   0.528976 0.121764 0.358398 0.134440
Cu1   Cu    Cu3+1 0.506660 0.507730 0.615930 0.954305
Cu2   Cu    Cu3+1 0.493340 0.492270 0.384070 0.952159
H1    H     H_    0.926912 0.268965 0.601050 0.145343
H2    H     H_    0.620782 0.666474 0.033350 0.081015
H3    H     H_    0.708790 0.304126 0.520393 0.251080
H4    H     H_    0.709283 0.387752 0.725459 0.171330
H5    H     H_    0.825349 0.354510 0.742537 0.138592
H6    H     H_    0.739576 0.252937 0.708050 0.140649
H7    H     H_    0.292035 0.692293 0.467206 0.248358
H8    H     H_    0.286983 0.605691 0.264851 0.169131
H9    H     H_    0.253630 0.739187 0.278348 0.139893
H10   H     H_    0.169755 0.635282 0.251108 0.139644
H11   H     H_    0.088575 0.276658 0.604676 0.105994
H12   H     H_    0.072950 0.730217 0.396734 0.145598
H13   H     H_    0.911384 0.723806 0.395617 0.106402
H14   H     H_    0.476608 0.882962 0.819541 0.227597
H15   H     H_    0.355430 0.764264 0.821208 0.139383
H16   H     H_    0.344654 0.739050 0.664693 0.163956
H17   H     H_    0.317423 0.866230 0.745035 0.124267
H18   H     H_    0.610042 0.220253 0.284578 0.259715
H19   H     H_    0.557238 0.162844 0.083899 0.140803
H20   H     H_    0.484945 0.066574 0.126247 0.142295
H21   H     H_    0.605771 0.052910 0.136158 0.130483
H22   H     H_    0.423250 0.394699 0.787514 0.115051
H23   H     H_    0.530076 0.812076 0.358842 0.115441
H24   H     H_    0.576452 0.605590 0.212496 0.115132
H25   H     H_    0.605263 0.739831 0.827630 0.242144
H26   H     H_    0.752343 0.700652 0.762369 0.143609
H27   H     H_    0.738366 0.570869 0.792960 0.161683
H28   H     H_    0.744170 0.682915 0.910909 0.105009
H29   H     H_    0.397844 0.259393 0.173293 0.249962
H30   H     H_    0.249750 0.293816 0.236316 0.144367
H31   H     H_    0.257725 0.312313 0.088036 0.104877
H32   H     H_    0.260915 0.424034 0.206266 0.161646
H33   H     H_    0.468703 0.187656 0.640255 0.117079
H34   H     H_    0.548411 0.962399 0.272541 0.101239
H35   H     H_    0.454995 0.036454 0.729605 0.092190
H36   H     H_    0.773543 0.637413 0.430478 0.108107
H37   H     H_    0.226476 0.364140 0.571889 0.108913
H38   H     H_    0.379568 0.333163 0.966599 0.081284
N1    N     N_R   0.516670 0.519360 0.790130 -0.209440
N2    N     N_R   0.483330 0.480640 0.209870 -0.209778
N3    N     N_2   0.767920 0.326791 0.568974 -0.527776
N4    N     N_2   0.231475 0.669587 0.422517 -0.530092
N5    N     N_2   0.454772 0.835798 0.741614 -0.503128
N6    N     N_2   0.555651 0.169121 0.264104 -0.498427
N7    N     N_2   0.623667 0.663147 0.804883 -0.440889
N8    N     N_2   0.377711 0.335480 0.195085 -0.441256
O1    O     O_R   0.504720 0.354460 0.582000 -0.529334
O2    O     O_R   0.495280 0.645540 0.418000 -0.533378
O3    O     O_R   0.493480 0.341410 0.386200 -0.453166
O4    O     O_R   0.506520 0.658590 0.613800 -0.440361
O5    O     O_R   0.375880 0.506510 0.597910 -0.515731
O6    O     O_R   0.624120 0.493490 0.402090 -0.514083
O7    O     O_R   0.364640 0.493450 0.402110 -0.475901
O8    O     O_R   0.635360 0.506550 0.597890 -0.479051

loop_
_geom_bond_atom_site_label_1
_geom_bond_atom_site_label_2
_ccdc_geom_bond_type
C36   N5    S    
C25   C31   A    
Cu2   O7    S    
C10   N1    A    
C26   C32   A    
C16   C21   S    
C27   C29   A    
H3    N3    S    
H18   N6    S    
Cu1   O1    S    
C11   H24   S    
Cu1   Cu2   S    
C33   H6    S    
C42   H34   S    
C37   N6    S    
C39   H31   S    
C19   C21   A    
C24   C26   A    
C5    C6    A    
C11   C14   A    
C19   H37   S    
C16   O5    A    
C11   N2    A    
C37   H21   S    
C17   C20   S    
C7    C9    A    
Cu2   O3    S    
C4    C40   A    
C22   C25   A    
C37   H19   S    
C32   H12   S    
C36   H17   S    
C17   O6    A    
C7    C15   A    
C7    H38   S    
Cu2   O6    S    
C3    H33   S    
C31   H1    S    
C35   H8    S    
C12   O2    A    
C42   C44   A    
C36   H16   S    
C9    N8    S    
C4    H23   S    
C38   H26   S    
C35   H9    S    
C23   C30   A    
C4    C6    A    
C33   H4    S    
H14   N5    S    
C38   N7    S    
C1    O1    A    
C32   C34   A    
C12   C40   S    
C2    N5    S    
Cu1   N1    S    
C8    H2    S    
C9    N2    A    
C35   N4    S    
Cu2   O2    S    
C2    C43   A    
C1    O3    A    
C37   H20   S    
C18   C29   A    
C22   N3    S    
C24   N4    S    
H29   N8    S    
C1    C41   S    
C20   C22   A    
C10   N7    S    
C13   C15   A    
C34   H13   S    
C43   H35   S    
C41   C44   A    
C33   H5    S    
C36   H15   S    
C39   N8    S    
C44   N6    S    
C38   H28   S    
C23   H11   S    
C3    C41   A    
C8    C14   A    
C35   H10   S    
C3    C5    A    
Cu1   O8    S    
C16   O7    A    
C25   C27   A    
C26   C28   A    
C28   C30   A    
C33   N3    S    
Cu1   O5    S    
C39   H30   S    
C19   C30   A    
C29   C34   A    
C18   H36   S    
H7    N4    S    
C18   C20   A    
C5    C43   A    
C17   O8    A    
C2    C40   A    
H25   N7    S    
C8    C10   A    
C6    C42   A    
C21   C24   A    
C13   N1    A    
C27   C28   A    
C14   C15   A    
C12   O4    A    
C39   H32   S    
Cu1   O4    S    
C13   H22   S    
C23   C31   A    
Cu2   N2    S    
C38   H27   S    
