data_mof_unit_19079.cif
_audit_creation_date              2013-03-05T15:55:18-0500
_audit_creation_method            fapswitch 2.2
_symmetry_space_group_name_H-M    P1
_symmetry_Int_Tables_number       1
_space_group_crystal_system       triclinic
_cell_length_a                    6.931096
_cell_length_b                    16.806199
_cell_length_c                    17.124672
_cell_angle_alpha                 100.409843
_cell_angle_beta                  89.598117
_cell_angle_gamma                 90.344293
_cell_volume                      1961.8697478

loop_
_atom_site_label
_atom_site_type_symbol
_atom_site_description
_atom_site_fract_x
_atom_site_fract_y
_atom_site_fract_z
_atom_type_partial_charge
O1    O     O_R   0.494370 0.415690 0.413450 -0.597651
O2    O     O_R   0.819420 0.429360 0.578420 -0.603206
O3    O     O_R   0.994280 0.584310 0.586550 -0.622070
C1    C     C_R   0.649479 0.414326 0.605367 1.122920
O4    O     O_R   0.823790 0.406230 0.413570 -0.553956
O5    O     O_R   0.998670 0.561000 0.420530 -0.575195
C2    C     C_R   0.656100 0.382547 0.385472 1.081117
O6    O     O_R   0.489970 0.439000 0.579470 -0.568875
O7    O     O_3   0.662300 0.550810 0.502470 -0.270790
V1    V     V_3+5 0.935380 0.490570 0.499540 1.305273
O8    O     O_R   0.328650 0.570640 0.421580 -0.578543
C3    C     C_R   0.159511 0.585651 0.394469 1.084126
O9    O     O_R   0.324290 0.593770 0.586430 -0.544908
C4    C     C_R   0.155406 0.617321 0.614594 1.029629
V2    V     V_3+5 0.435930 0.509430 0.500460 1.310166
O10   O     O_3   0.159140 0.449190 0.497530 -0.248444
C5    C     C_R   0.290220 0.746218 0.696865 0.585773
C6    C     C_R   0.274082 0.809851 0.762840 -0.191456
H1    H     H_    0.383311 0.856914 0.771925 0.199543
C7    C     C_R   0.117914 0.814222 0.816281 -0.323367
C8    C     C_R   0.974295 0.753025 0.802459 0.401401
C9    C     C_R   0.989210 0.690274 0.736485 -0.283559
H2    H     H_    0.878228 0.643855 0.727536 0.188513
C10   C     C_R   0.145496 0.685827 0.683253 -0.263233
C11   C     C_R   0.141437 0.635203 0.330838 -0.327910
C12   C     C_R   0.122116 0.860476 0.165110 -0.346051
C13   C     C_R   0.277542 0.841430 0.288511 0.355231
C14   C     C_R   0.242349 0.887858 0.229902 -0.234217
C15   C     C_R   0.031433 0.783733 0.159091 0.515546
C16   C     C_R   0.067625 0.735712 0.217679 0.021795
C17   C     C_R   0.200005 0.761815 0.280436 -0.219694
C18   C     C_R   0.247781 0.707442 0.333049 0.451580
C19   C     C_R   0.005270 0.611705 0.270151 0.450979
C20   C     C_R   0.973978 0.660741 0.213293 -0.254160
H3    H     H_    0.872019 0.640344 0.166177 0.198333
H4    H     H_    0.305439 0.947879 0.236331 0.187486
C21   C     C_R   0.633222 0.365007 0.669144 -0.402060
C22   C     C_R   0.630962 0.138748 0.834193 -0.508927
C23   C     C_R   0.761087 0.159788 0.707155 -0.109293
C24   C     C_R   0.732815 0.109570 0.763102 0.321688
C25   C     C_R   0.555758 0.218901 0.847539 0.551407
C26   C     C_R   0.580486 0.268649 0.788675 -0.056248
C27   C     C_R   0.687560 0.238830 0.718580 -0.168261
C28   C     C_R   0.716780 0.287686 0.659945 0.274840
C29   C     C_R   0.522695 0.394315 0.737332 0.314972
C30   C     C_R   0.504552 0.348345 0.799097 0.439468
H5    H     H_    0.837910 0.135168 0.653057 0.219881
C31   C     C_R   0.790110 0.251334 0.305311 0.348432
C32   C     C_R   0.769762 0.184533 0.243004 0.408805
C33   C     C_R   0.616938 0.181628 0.187582 -0.491225
C34   C     C_R   0.477725 0.244268 0.200147 0.535604
C35   C     C_R   0.496451 0.308926 0.263620 -0.126463
H6    H     H_    0.389772 0.356601 0.270598 0.192364
C36   C     C_R   0.649479 0.313488 0.317252 -0.450837
O11   O     O_R   0.774880 0.061150 0.920630 -0.577547
O12   O     O_R   0.440980 0.093710 0.086500 -0.597955
O13   O     O_R   0.266190 0.938890 0.079390 -0.592757
C37   C     C_R   0.608804 0.115793 0.116134 0.990283
O14   O     O_R   0.445420 0.070740 0.921670 -0.584505
O15   O     O_R   0.270660 0.915760 0.913380 -0.577576
C38   C     C_R   0.615344 0.086959 0.895800 1.049401
O16   O     O_R   0.770400 0.084270 0.086640 -0.592762
O17   O     O_3   0.602590 0.949210 0.997500 -0.246750
V3    V     V_3+5 0.329470 0.009420 0.000470 1.257244
O18   O     O_R   0.940650 0.906250 0.913470 -0.551202
C39   C     C_R   0.109265 0.882583 0.885335 1.016786
O19   O     O_R   0.936210 0.929220 0.078300 -0.602066
C40   C     C_R   0.105457 0.912399 0.103741 0.962153
V4    V     V_3+5 0.828930 0.990510 0.999490 1.274172
O20   O     O_3   0.105680 0.050790 0.002500 -0.272119
O21   O     O_3   0.443540 0.743198 0.644420 -0.705240
H7    H     H_    0.532202 0.789174 0.662928 0.350400
O22   O     O_3   0.912934 0.752295 0.096126 -0.727339
H8    H     H_    0.933459 0.781704 0.051735 0.332975
N1    N     N_R   0.819293 0.256632 0.588028 0.246471
O23   O     O_R   0.728899 0.244703 0.520585 -0.363182
O24   O     O_R   0.004519 0.244901 0.589335 -0.335105
O25   O     O_3   0.433998 0.468527 0.742171 -0.739789
H9    H     H_    0.314137 0.468795 0.774059 0.334250
O26   O     O_3   0.414544 0.380757 0.869847 -0.664898
H10   H     H_    0.436266 0.440039 0.880843 0.337037
N2    N     N_R   0.806287 0.028207 0.745900 0.244853
O27   O     O_R   0.703753 0.968045 0.762077 -0.399164
O28   O     O_R   0.965784 0.012758 0.705591 -0.355516
O29   O     O_3   0.459393 0.250257 0.917319 -0.652331
H11   H     H_    0.495208 0.220690 0.959958 0.309959
N3    N     N_R   0.952775 0.253580 0.357058 0.271102
O30   O     O_R   0.983494 0.193136 0.393222 -0.240273
O31   O     O_R   0.093884 0.303479 0.351060 -0.381413
O32   O     O_3   0.902823 0.123011 0.238304 -0.696400
H12   H     H_    0.834597 0.070863 0.221249 0.329432
O33   O     O_3   0.325288 0.245791 0.149602 -0.711589
H13   H     H_    0.241644 0.199251 0.155737 0.355380
N4    N     N_R   0.816314 0.751239 0.856363 0.228045
O34   O     O_R   0.668457 0.797743 0.853140 -0.375241
O35   O     O_R   0.799497 0.690824 0.893920 -0.377335
O36   O     O_3   0.398716 0.721977 0.385758 -0.679478
H14   H     H_    0.506972 0.744348 0.358244 0.334997
O37   O     O_3   0.907851 0.539012 0.266200 -0.740006
H15   H     H_    0.817323 0.531453 0.220844 0.323448
N5    N     N_R   0.377352 0.879565 0.358721 0.249162
O38   O     O_R   0.526280 0.925706 0.352885 -0.355935
O39   O     O_R   0.299648 0.880257 0.428248 -0.278348

loop_
_geom_bond_atom_site_label_1
_geom_bond_atom_site_label_2
_geom_bond_distance
_ccdc_geom_bond_type
C37   O16   1.301058 A    
C30   O26   1.381603 S    
N3    O30   1.300987 A    
C25   C26   1.430006 A    
N5    O38   1.301443 A    
O22   H8    0.987836 S    
C32   O32   1.380737 S    
C1    O6    1.292193 A    
O36   H14   0.990972 S    
C29   C30   1.422573 A    
C31   C36   1.419611 A    
O14   V3    2.001560 S    
C7    C39   1.493579 S    
C6    H1    1.083024 S    
O5    C3    1.291465 A    
C16   C17   1.424041 A    
C15   O22   1.384806 S    
C8    N4    1.430877 S    
V2    O10   2.160465 S    
C18   O36   1.378151 S    
C20   H3    1.083077 S    
C26   C30   1.422519 A    
C4    C10   1.491087 S    
O8    V2    1.990282 S    
O17   V4    1.709717 S    
O12   V3    2.005779 S    
C29   O25   1.382574 S    
O1    V2    2.004261 S    
V3    O20   1.701183 S    
O7    V1    2.147859 S    
C22   C38   1.487079 S    
C11   C18   1.411278 A    
O15   C39   1.302371 A    
N5    O39   1.301472 A    
O9    C4    1.299273 A    
N4    O34   1.300043 A    
C35   C36   1.400579 A    
C5    C6    1.412689 A    
O14   C38   1.300057 A    
C5    C10   1.412869 A    
C16   C20   1.403972 A    
C13   C17   1.422598 A    
C34   C35   1.397339 A    
C33   C37   1.495122 S    
C24   N2    1.441028 S    
C22   C25   1.426191 A    
C23   C24   1.398639 A    
O4    C2    1.293793 A    
O25   H9    0.990544 S    
C23   C27   1.405510 A    
C33   C34   1.418815 A    
O29   H11   0.988363 S    
C13   N5    1.436255 S    
O19   C40   1.304410 A    
O16   V4    2.006044 S    
O19   V4    1.990215 S    
C28   N1    1.433137 S    
O2    C1    1.301959 A    
N1    O23   1.300600 A    
C15   C16   1.421080 A    
C34   O33   1.373804 S    
C17   C18   1.435905 A    
C19   C20   1.403316 A    
C31   N3    1.435007 S    
C7    C8    1.416954 A    
N4    O35   1.300656 A    
N1    O24   1.301002 A    
O11   V4    1.991305 S    
O3    C4    1.299776 A    
C31   C32   1.409268 A    
C32   C33   1.421925 A    
O6    V2    1.990775 S    
N2    O28   1.301530 A    
N3    O31   1.300094 A    
C27   C28   1.420028 A    
C9    C10   1.404434 A    
C26   C27   1.420343 A    
O13   C40   1.291451 A    
C21   C29   1.406107 A    
O2    V1    2.001465 S    
C35   H6    1.083634 S    
O13   V3    1.997059 S    
C23   H5    1.081734 S    
O1    C2    1.303804 A    
O26   H10   0.990740 S    
O5    V1    1.997081 S    
O8    C3    1.306537 A    
C5    O21   1.381760 S    
C25   O29   1.384633 S    
C12   C14   1.400426 A    
O37   H15   0.991640 S    
C3    C11   1.492541 S    
O15   V3    2.005131 S    
C12   C40   1.487797 S    
C21   C28   1.408057 A    
O9    V2    2.004586 S    
O7    V2    1.710425 S    
O21   H7    0.991797 S    
O3    V1    2.005305 S    
V1    O10   1.701083 S    
C22   C24   1.413251 A    
O32   H12   0.990689 S    
O18   V4    2.004541 S    
O11   C38   1.292542 A    
O33   H13   0.991117 S    
O12   C37   1.297439 A    
C6    C7    1.406170 A    
O18   C39   1.297921 A    
V4    O20   2.160454 S    
O17   V3    2.147820 S    
O4    V1    2.005847 S    
C1    C21   1.488911 S    
C14   H4    1.084478 S    
C12   C15   1.418546 A    
N2    O27   1.301523 A    
C13   C14   1.401565 A    
C9    H2    1.083987 S    
C2    C36   1.491335 S    
C19   O37   1.383445 S    
C8    C9    1.402998 A    
C11   C19   1.409855 A    
