data_mof_unit_63509.cif
_audit_creation_date              2012-10-26T18:19:02-0400
_audit_creation_method            fapswitch 2.2
_symmetry_space_group_name_H-M    P1
_symmetry_Int_Tables_number       1
_space_group_crystal_system       triclinic
_cell_length_a                    18.850653
_cell_length_b                    18.705081
_cell_length_c                    18.813835
_cell_angle_alpha                 109.168151
_cell_angle_beta                  109.694628
_cell_angle_gamma                 109.330557
_cell_volume                      5120.46628817

loop_
_atom_site_label
_atom_site_type_symbol
_atom_type_description
_atom_site_fract_x
_atom_site_fract_y
_atom_site_fract_z
_atom_type_partial_charge
C1    C     C_R   0.381266 0.381307 0.499806 0.547209
C2    C     C_R   0.256765 0.182164 0.501910 0.015941
C3    C     C_3   0.301641 0.130095 0.504820 -0.261947
C4    C     C_R   0.620338 0.500995 0.619370 0.551799
C5    C     C_3   0.371755 0.200100 0.502964 -0.267040
C6    C     C_R   0.288871 0.457662 0.227576 0.006951
C7    C     C_R   0.312077 0.499410 0.314434 0.008289
C8    C     C_R   0.266774 0.542340 0.335747 -0.144443
C9    C     C_R   0.201569 0.542071 0.270485 -0.127958
C10   C     C_R   0.181818 0.499985 0.183574 0.032206
C11   C     C_R   0.227273 0.458530 0.165381 0.020009
C12   C     C_3   0.810745 0.504808 0.811898 0.067124
C13   C     C_3   0.238271 0.407005 0.094635 -0.136174
C14   C     C_3   0.308612 0.405882 0.165700 -0.241760
C15   C     C_R   0.763252 0.687098 0.514953 0.070678
C16   C     C_R   0.618469 0.619019 0.499898 0.561693
C17   C     C_R   0.686055 0.687218 0.502409 -0.007884
C18   C     C_R   0.678646 0.759385 0.501673 -0.156662
C19   C     C_R   0.742863 0.823755 0.501257 -0.153156
C20   C     C_R   0.816105 0.817646 0.504581 0.004425
C21   C     C_R   0.827736 0.751920 0.517039 0.006003
C22   C     C_3   0.849327 0.689484 0.468472 -0.224524
C23   C     C_3   0.831791 0.601486 0.834111 0.210718
C24   C     C_3   0.778057 0.618103 0.465839 0.112962
C25   C     C_R   0.999122 0.381355 0.880368 0.556994
C26   C     C_R   0.878163 0.502145 0.879555 0.534798
C27   C     C_R   0.998595 0.619036 0.117121 0.568040
C28   C     C_R   0.380122 0.499673 0.380625 0.547813
C29   C     C_R   0.116200 0.499499 0.116131 0.561291
C30   C     C_R   0.998906 0.117939 0.617954 0.550519
C31   C     C_R   0.118359 0.118662 0.499846 0.548358
C32   C     C_R   0.000570 0.881373 0.381800 0.546466
C33   C     C_R   0.881487 0.881455 0.500482 0.545881
C34   C     C_3   0.719304 0.452618 0.799531 -0.259331
C35   C     C_R   0.926675 0.238665 0.749746 -0.020290
C36   C     C_R   0.002252 0.315598 0.816194 0.018169
C37   C     C_R   0.080786 0.327115 0.816196 0.201656
C38   C     C_R   0.079464 0.261103 0.751253 -0.113326
C39   C     C_R   0.000516 0.185276 0.684298 -0.016130
C40   C     C_3   0.734594 0.456769 0.651500 -0.225553
C41   C     C_R   0.925566 0.177484 0.685863 0.004294
C42   C     C_3   0.829870 0.119712 0.639826 -0.263270
C43   C     C_3   0.830869 0.190098 0.712218 -0.260450
C44   C     C_R   0.924995 0.689042 0.173120 -0.018141
C45   C     C_R   0.317671 0.242935 0.499441 0.014831
C46   C     C_R   0.001353 0.687119 0.185162 0.017418
C47   C     C_R   0.080841 0.756290 0.259986 0.208754
C48   C     C_R   0.080687 0.820425 0.324684 -0.115566
C49   C     C_R   0.002181 0.817100 0.314440 -0.029040
C50   C     C_R   0.925572 0.753685 0.236269 0.007328
C51   C     C_3   0.841418 0.691888 0.222469 -0.240114
C52   C     C_3   0.805606 0.458082 0.723821 -0.229154
C53   C     C_3   0.841324 0.620345 0.153912 -0.129267
C54   C     C_3   0.758798 0.597902 0.760025 -0.167434
C55   C     C_3   0.649165 0.454715 0.729888 -0.260091
C56   C     C_R   0.313527 0.315202 0.498472 0.020443
C57   C     C_3   0.689465 0.502299 0.688484 -0.001259
C58   C     C_3   0.839888 0.653116 0.922279 -0.342170
C59   C     C_3   0.157533 0.317628 0.027578 -0.379869
C60   C     C_3   0.767864 0.580251 0.061597 -0.413096
C61   C     C_R   0.241072 0.322458 0.497530 -0.145051
C62   C     C_R   0.175664 0.257124 0.496646 -0.144822
C63   C     C_R   0.183835 0.185718 0.499738 0.021186
Cl1   Cl    Cl    0.818675 0.573301 0.529291 -0.601346
Cl2   Cl    Cl    0.182022 0.421213 0.895626 -0.620583
Cl3   Cl    Cl    0.180598 0.760436 0.278797 -0.598017
Cl4   Cl    Cl    0.933048 0.663265 0.841130 -0.572317
Cu1   Cu    Cu3+1 0.500370 0.438220 0.438550 0.961460
Cu2   Cu    Cu3+1 0.499630 0.561780 0.561450 0.948212
Cu3   Cu    Cu3+1 0.935500 0.438280 0.997350 0.917022
Cu4   Cu    Cu3+1 0.059110 0.561800 0.997270 1.137723
Cu5   Cu    Cu3+1 0.062130 0.000020 0.562160 0.963135
Cu6   Cu    Cu3+1 0.937870 0.000080 0.437940 0.948287
H1    H     H_    0.764062 0.490318 0.621502 0.210366
H2    H     H_    0.281244 0.575700 0.402210 0.148441
H3    H     H_    0.686110 0.387857 0.599946 0.139995
H4    H     H_    0.167492 0.575122 0.287881 0.155198
H5    H     H_    0.264529 0.445345 0.066430 0.211674
H6    H     H_    0.291851 0.340700 0.160175 0.151697
H7    H     H_    0.375234 0.444179 0.178515 0.138480
H8    H     H_    0.621496 0.763668 0.497103 0.136169
H9    H     H_    0.734586 0.876977 0.496621 0.129922
H10   H     H_    0.834158 0.682513 0.403350 0.084244
H11   H     H_    0.915976 0.703247 0.508829 0.196012
H12   H     H_    0.718930 0.478594 0.861471 0.116835
H13   H     H_    0.721958 0.568936 0.399414 0.135067
H14   H     H_    0.790425 0.389890 0.706934 0.097766
H15   H     H_    0.139611 0.269739 0.752233 0.159844
H16   H     H_    0.796788 0.113245 0.574897 0.150562
H17   H     H_    0.811897 0.057400 0.641082 0.135847
H18   H     H_    0.798906 0.224684 0.689150 0.135027
H19   H     H_    0.812722 0.168183 0.754824 0.151203
H20   H     H_    0.141380 0.871574 0.383416 0.157435
H21   H     H_    0.848874 0.683971 0.280109 0.115372
H22   H     H_    0.868961 0.490602 0.727541 0.198862
H23   H     H_    0.727318 0.631714 0.786452 0.118556
H24   H     H_    0.789472 0.707342 0.196703 0.150773
H25   H     H_    0.848748 0.571181 0.171944 0.162010
H26   H     H_    0.785622 0.633176 0.729633 0.184532
H27   H     H_    0.619624 0.488416 0.760026 0.134375
H28   H     H_    0.596462 0.386865 0.679111 0.116492
H29   H     H_    0.702138 0.383380 0.778865 0.140984
H30   H     H_    0.860011 0.721894 0.938329 0.166155
H31   H     H_    0.776960 0.625405 0.920329 0.079068
H32   H     H_    0.889275 0.653572 0.975570 0.153866
H33   H     H_    0.172970 0.278080 0.983109 0.159815
H34   H     H_    0.234578 0.377551 0.496416 0.134178
H35   H     H_    0.134234 0.282250 0.059441 0.143595
H36   H     H_    0.104813 0.325909 0.988812 0.163597
H37   H     H_    0.762786 0.631473 0.046229 0.142624
H38   H     H_    0.780219 0.539183 0.014872 0.150074
H39   H     H_    0.705393 0.538535 0.054564 0.140190
H40   H     H_    0.120029 0.263145 0.495112 0.137184
H41   H     H_    0.324881 0.129344 0.567135 0.150487
H42   H     H_    0.263968 0.065241 0.445050 0.149509
H43   H     H_    0.435238 0.240118 0.564449 0.127244
H44   H     H_    0.375005 0.175547 0.442393 0.156839
O1    O     O_R   0.410140 0.357660 0.448100 -0.510055
O2    O     O_R   0.947040 0.090210 0.537310 -0.507057
O3    O     O_R   0.142640 0.090190 0.552500 -0.511195
O4    O     O_R   0.409510 0.462000 0.551890 -0.511012
O5    O     O_R   0.037710 0.090250 0.447610 -0.509836
O6    O     O_R   0.052960 0.909890 0.462790 -0.513131
O7    O     O_R   0.948020 0.909940 0.357900 -0.501297
O8    O     O_R   0.962290 0.909850 0.552490 -0.496536
O9    O     O_R   0.857360 0.909910 0.447600 -0.516894
O10   O     O_R   0.590970 0.447830 0.538770 -0.500123
O11   O     O_R   0.590340 0.552170 0.642560 -0.518689
O12   O     O_R   0.049970 0.462000 0.907620 -0.449813
O13   O     O_R   0.590490 0.538000 0.448110 -0.498805
O14   O     O_R   0.589860 0.642340 0.551900 -0.507169
O15   O     O_R   0.409660 0.447830 0.357440 -0.513024
O16   O     O_R   0.409030 0.552170 0.461230 -0.517371
O17   O     O_R   0.945590 0.357690 0.907690 -0.531274
O18   O     O_R   0.854460 0.447890 0.906680 -0.544152
O19   O     O_R   0.958840 0.552200 0.906620 -0.453088
O20   O     O_R   0.944630 0.538080 0.087010 -0.531889
O21   O     O_R   0.049020 0.642390 0.086940 -0.457063
O22   O     O_R   0.035760 0.447880 0.088010 -0.521186
O23   O     O_R   0.140150 0.552190 0.087940 -0.467282
O24   O     O_R   0.051980 0.090160 0.642200 -0.509074

loop_
_geom_bond_atom_site_label_1
_geom_bond_atom_site_label_2
_ccdc_geom_bond_type
C51   H24   S    
C23   C58   S    
Cu6   O2    S    
C41   C42   S    
C32   O7    A    
C35   C36   A    
C25   O12   A    
C7    C8    A    
C39   C41   A    
C12   C23   S    
C27   O20   A    
C30   O24   A    
C36   C37   A    
C37   C38   A    
C38   C39   A    
Cu4   O12   S    
C30   O2    A    
Cu6   O9    S    
C18   H8    S    
C52   H22   S    
C18   C19   A    
C31   O3    A    
C23   Cl4   S    
Cu1   O15   S    
C16   O14   A    
C26   O18   A    
Cu1   O1    S    
C13   H5    S    
C44   C53   S    
C19   C20   A    
Cu2   O11   S    
C8    C9    A    
C37   Cl2   S    
C4    C57   S    
C42   H17   S    
Cu3   Cu4   S    
C14   H7    S    
C19   H9    S    
C35   C43   S    
C9    C10   A    
C47   Cl3   S    
C54   H23   S    
C34   C55   S    
C24   Cl1   S    
C21   C22   S    
C32   O6    A    
C35   C41   A    
C12   C52   S    
C53   C60   S    
C44   C46   A    
C50   C51   S    
Cu4   O21   S    
C2    C45   A    
C12   C26   S    
Cu5   O24   S    
C29   O22   A    
C27   O21   A    
C48   H20   S    
C4    O11   A    
C28   O16   A    
C59   H33   S    
C31   C63   S    
C26   O19   A    
C45   C56   A    
C62   H40   S    
C6    C11   A    
Cu1   Cu2   S    
C9    H4    S    
C51   H21   S    
C40   C52   S    
C5    C45   S    
C8    H2    S    
C43   H18   S    
C7    C28   S    
C40   H3    S    
C38   H15   S    
C28   O15   A    
C34   H12   S    
C22   H11   S    
C55   H27   S    
C62   C63   A    
C60   H39   S    
C6    C14   S    
C47   C48   A    
Cu2   O4    S    
Cu2   O14   S    
Cu6   O7    S    
Cu5   O3    S    
C33   O8    A    
C17   C18   A    
Cu3   O22   S    
C34   H29   S    
C14   H6    S    
Cu1   O13   S    
C25   O17   A    
Cu1   O10   S    
C6    C7    A    
C20   C33   S    
C27   C46   S    
C48   C49   A    
C49   C50   A    
C55   C57   S    
C5    H43   S    
Cu3   O18   S    
C22   C24   S    
C54   H26   S    
C58   H31   S    
C42   C43   S    
C12   C34   S    
Cu4   O19   S    
C16   O13   A    
C2    C63   A    
C23   C54   S    
C44   C50   A    
C15   C17   A    
C29   O23   A    
C46   C47   A    
C15   C24   S    
Cu2   O16   S    
C40   C57   S    
C4    O10   A    
C1    C56   S    
C52   H14   S    
C43   H19   S    
C31   O5    A    
Cu5   Cu6   S    
C3    C5    S    
C3    H41   S    
Cu4   O23   S    
C13   C59   S    
C53   H25   S    
C55   H28   S    
C59   H35   S    
Cu5   O8    S    
C42   H16   S    
C22   H10   S    
C58   H32   S    
C2    C3    S    
Cu5   O6    S    
C60   H38   S    
C3    H42   S    
C11   C13   S    
C10   C29   S    
C16   C17   S    
C33   O9    A    
C59   H36   S    
C40   H1    S    
C30   C39   S    
C1    O1    A    
C61   C62   A    
C61   H34   S    
C1    O4    A    
C32   C49   S    
C60   H37   S    
C10   C11   A    
C25   C36   S    
C15   C21   A    
C20   C21   A    
Cu3   O20   S    
Cu6   O5    S    
C5    H44   S    
Cu3   O17   S    
C56   C61   A    
C58   H30   S    
C51   C53   S    
C13   C14   S    
C24   H13   S    
C54   C57   S    
