data_mof_unit_48351.cif
_audit_creation_date              2012-12-10T18:10:56-0500
_audit_creation_method            fapswitch 2.2
_symmetry_space_group_name_H-M    P1
_symmetry_Int_Tables_number       1
_space_group_crystal_system       triclinic
_cell_length_a                    12.64852
_cell_length_b                    13.004102
_cell_length_c                    15.749878
_cell_angle_alpha                 90.794469
_cell_angle_beta                  102.459005
_cell_angle_gamma                 83.19538
_cell_volume                      2511.57378888

loop_
_atom_site_label
_atom_site_type_symbol
_atom_type_description
_atom_site_fract_x
_atom_site_fract_y
_atom_site_fract_z
_atom_type_partial_charge
C1    C     C_R   0.439381 0.691718 0.490434 0.904761
C2    C     C_R   0.592200 0.200484 0.538576 -0.049286
C3    C     C_R   0.309855 0.839507 0.416744 0.352212
C4    C     C_R   0.500840 0.500349 0.661440 0.876702
C5    C     C_R   0.269744 0.945743 0.412398 -0.069121
C6    C     C_R   0.328619 0.015010 0.468566 -0.140006
C7    C     C_R   0.432939 0.977668 0.519037 0.003647
C8    C     C_R   0.456482 0.872098 0.539587 -0.012098
C9    C     C_R   0.515893 0.040888 0.549197 0.033663
C10   C     C_R   0.601913 0.008750 0.620779 0.083508
C11   C     C_R   0.605557 0.910444 0.657989 0.349202
C12   C     C_3   0.421992 0.595898 0.036895 0.175648
C13   C     C_R   0.537263 0.840621 0.614510 -0.190891
C14   C     C_R   0.518794 0.131571 0.504559 -0.234140
C15   C     C_R   0.675310 0.172016 0.611613 -0.192462
C16   C     C_R   0.560042 0.308337 0.512187 0.862289
C17   C     C_R   0.399494 0.802104 0.484021 -0.200420
C18   C     C_R   0.082698 0.353942 0.369564 -0.123304
C19   C     C_R   0.803133 0.624067 0.608060 -0.064959
C20   C     C_R   0.909998 0.648072 0.634133 -0.081459
C21   C     C_R   0.989308 0.601271 0.591782 -0.148205
C22   C     C_R   0.963075 0.528369 0.525641 0.008179
C23   C     C_3   0.498114 0.500262 0.082536 0.055389
C24   C     C_R   0.853738 0.505119 0.503817 0.229413
C25   C     C_R   0.041165 0.476603 0.481540 0.005561
C26   C     C_R   0.007715 0.403189 0.416146 0.045314
C27   C     C_R   0.899402 0.381358 0.397829 -0.175903
C28   C     C_R   0.499134 0.499823 0.338567 0.918339
C29   C     C_R   0.825095 0.429920 0.442006 -0.153646
C30   C     C_R   0.151315 0.495372 0.499388 -0.077316
C31   C     C_R   0.190982 0.375899 0.391569 0.523039
C32   C     C_3   0.422209 0.596165 0.938358 0.171633
C33   C     C_3   0.616956 0.507672 0.971754 -0.429052
C34   C     C_3   0.457536 0.399647 0.040080 -0.435644
C35   C     C_3   0.616141 0.509177 0.070092 -0.215113
C36   C     C_1   0.497259 0.499636 0.249392 -0.067641
C37   C     C_3   0.500053 0.501634 0.917206 0.069202
C38   C     C_2   0.275350 0.118686 0.488934 0.428103
C39   C     C_2   0.171761 0.985973 0.345853 0.603993
C40   C     C_2   0.049280 0.278859 0.299473 0.533686
C41   C     C_2   0.938566 0.719391 0.707148 0.468755
C42   C     C_2   0.700088 0.425704 0.118757 0.456372
C43   C     C_2   0.353232 0.377383 0.886818 0.451510
C44   C     C_3   0.461810 0.398359 0.942468 -0.245003
C45   C     C_1   0.497007 0.499816 0.174062 0.035436
C46   C     C_1   0.502410 0.501611 0.825890 0.026561
C47   C     C_1   0.502599 0.501174 0.750621 -0.104225
C48   C     C_R   0.681511 0.075481 0.651690 -0.110677
Cl1   Cl    Cl    0.284884 0.600450 0.052738 -0.511107
Cl2   Cl    Cl    0.694997 0.871014 0.756861 -0.609717
Cl3   Cl    Cl    0.252871 0.754915 0.334470 -0.469545
Cl4   Cl    Cl    0.458318 0.717396 0.906597 -0.525953
Cl5   Cl    Cl    0.288415 0.310113 0.338910 -0.561724
H1    H     H_    0.452983 0.667368 0.067247 0.179835
H2    H     H_    0.740384 0.659377 0.639896 0.155493
H3    H     H_    0.070833 0.621529 0.613165 0.181716
H4    H     H_    0.745432 0.406030 0.426688 0.204507
H5    H     H_    0.672817 0.440823 0.955848 0.180260
H6    H     H_    0.649336 0.578487 0.954141 0.246392
H7    H     H_    0.639631 0.585414 0.096024 0.201136
H8    H     H_    0.523761 0.333253 0.932809 0.201945
H9    H     H_    0.373611 0.393607 0.049185 0.241336
H10   H     H_    0.321994 0.172646 0.529637 0.114329
H11   H     H_    0.166959 0.062247 0.317226 0.085588
H12   H     H_    0.338615 0.590995 0.899428 0.160304
H13   H     H_    0.999857 0.219227 0.309304 0.062038
H14   H     H_    0.879596 0.745143 0.745708 0.135439
H15   H     H_    0.697170 0.345117 0.100684 0.077326
H16   H     H_    0.279200 0.427160 0.890380 0.103962
H17   H     H_    0.508764 0.330281 0.073384 0.181287
H18   H     H_    0.731764 0.225934 0.639953 0.169068
H19   H     H_    0.747241 0.054554 0.707274 0.203859
H20   H     H_    0.459151 0.152414 0.445056 0.181780
H21   H     H_    0.546307 0.762788 0.640694 0.180571
H22   H     H_    0.869827 0.326308 0.349017 0.154445
H23   H     H_    0.183601 0.549868 0.547152 0.152410
N1    N     N_R   0.222200 0.444690 0.455710 -0.144328
N2    N     N_R   0.776960 0.554780 0.543830 -0.126100
O1    O     O_R   0.366740 0.627160 0.478850 -0.566271
O2    O     O_2   0.094574 0.936141 0.324091 -0.484082
O3    O     O_2   0.075403 0.283999 0.229557 -0.478543
O4    O     O_2   0.028601 0.749271 0.725817 -0.512491
O5    O     O_2   0.772439 0.448330 0.178353 -0.541885
O6    O     O_2   0.347739 0.303633 0.837898 -0.524978
O7    O     O_R   0.544830 0.662520 0.507140 -0.617708
O8    O     O_R   0.410920 0.482310 0.608710 -0.612939
O9    O     O_R   0.589010 0.517670 0.637000 -0.621326
O10   O     O_R   0.455170 0.337480 0.492860 -0.584342
O11   O     O_R   0.633260 0.372840 0.521150 -0.644490
O12   O     O_R   0.410990 0.482330 0.363000 -0.522625
O13   O     O_R   0.589080 0.517690 0.391290 -0.639982
O14   O     O_2   0.177049 0.142451 0.466572 -0.608037
Zn1   Zn    Zn3+2 0.381090 0.476390 0.481110 1.047606
Zn2   Zn    Zn3+2 0.618910 0.523610 0.518890 0.953987

loop_
_geom_bond_atom_site_label_1
_geom_bond_atom_site_label_2
_ccdc_geom_bond_type
C33   H5    S    
C23   C45   S    
C27   C29   A    
C19   C20   A    
C18   C26   A    
C9    C14   A    
C20   C41   S    
C7    C8    A    
C41   H14   S    
C4    O9    A    
C39   H11   S    
C12   C23   S    
C26   C27   A    
C8    C13   A    
O1    Zn1   S    
C5    C6    A    
C4    O8    A    
O9    Zn2   S    
C38   O14   D    
C34   H9    S    
O11   Zn2   S    
C35   C42   S    
C18   C40   S    
C24   C29   A    
C32   Cl4   S    
O10   Zn1   S    
C30   N1    A    
C22   C25   A    
C6    C38   S    
C2    C16   S    
C9    C10   A    
C34   H17   S    
C16   O11   A    
C43   H16   S    
C40   H13   S    
C21   C22   A    
C12   C32   S    
C42   H15   S    
C43   O6    D    
C15   C48   A    
C48   H19   S    
C27   H22   S    
C31   N1    A    
C1    O7    A    
C14   H20   S    
C34   C44   S    
C3    Cl3   S    
C25   C26   A    
C33   C37   S    
C35   H7    S    
C19   N2    A    
C43   C44   S    
C12   Cl1   S    
O8    Zn1   S    
C30   H23   S    
O7    Zn2   S    
C23   C34   S    
C36   C45   T    
C32   C37   S    
C31   Cl5   S    
C2    C15   A    
C24   N2    A    
C29   H4    S    
C23   C35   S    
C5    C39   S    
C10   C48   A    
C1    O1    A    
C22   C24   A    
O12   Zn1   S    
C38   H10   S    
C19   H2    S    
C25   C30   A    
C7    C9    A    
C46   C47   T    
C40   O3    D    
C42   O5    D    
C3    C5    A    
C21   H3    S    
C6    C7    A    
C44   H8    S    
C15   H18   S    
C1    C17   S    
C8    C17   A    
C39   O2    D    
C37   C44   S    
C11   Cl2   S    
O13   Zn2   S    
C11   C13   A    
N2    Zn2   S    
C41   O4    D    
N1    Zn1   S    
C33   C35   S    
C3    C17   A    
C28   O13   A    
C2    C14   A    
C10   C11   A    
C20   C21   A    
C28   C36   S    
C33   H6    S    
C16   O10   A    
C32   H12   S    
C28   O12   A    
C18   C31   A    
C37   C46   S    
C12   H1    S    
C13   H21   S    
C4    C47   S    
