data_mof_unit_67412.cif
_audit_creation_date              2013-03-05T15:39:48-0500
_audit_creation_method            fapswitch 2.2
_symmetry_space_group_name_H-M    P1
_symmetry_Int_Tables_number       1
_space_group_crystal_system       triclinic
_cell_length_a                    11.948065
_cell_length_b                    13.012009
_cell_length_c                    7.600384
_cell_angle_alpha                 90.91679
_cell_angle_beta                  109.263204
_cell_angle_gamma                 89.934688
_cell_volume                      1115.31020378

loop_
_atom_site_label
_atom_site_type_symbol
_atom_site_description
_atom_site_fract_x
_atom_site_fract_y
_atom_site_fract_z
_atom_type_partial_charge
O1    O     O_R   0.398880 0.887420 0.621600 -0.581315
O2    O     O_R   0.601120 0.112580 0.378400 -0.581321
O3    O     O_R   0.601120 0.887420 0.378400 -0.602138
O4    O     O_R   0.398880 0.112580 0.621600 -0.602137
O5    O     O_R   0.898880 0.387420 0.621600 -0.581323
O6    O     O_R   0.101120 0.612580 0.378400 -0.581322
O7    O     O_R   0.101120 0.387420 0.378400 -0.602132
O8    O     O_R   0.898880 0.612580 0.621600 -0.602137
O9    O     O_R   0.369080 0.887420 0.305440 -0.556490
O10   O     O_R   0.630920 0.112580 0.694560 -0.556505
O11   O     O_R   0.630920 0.887420 0.694560 -0.552794
O12   O     O_R   0.369080 0.112580 0.305440 -0.552803
O13   O     O_R   0.869080 0.387420 0.305440 -0.556492
O14   O     O_R   0.130920 0.612580 0.694560 -0.556504
O15   O     O_R   0.130920 0.387420 0.694560 -0.552794
O16   O     O_R   0.869080 0.612580 0.305440 -0.552799
C1    C     C_R   0.346473 0.853510 0.452186 0.821233
C2    C     C_R   0.653528 0.146488 0.547815 0.821225
C3    C     C_R   0.654019 0.854459 0.546818 0.831781
C4    C     C_R   0.345980 0.145541 0.453182 0.831785
C5    C     C_R   0.846472 0.353510 0.452185 0.821233
C6    C     C_R   0.153528 0.646487 0.547815 0.821218
C7    C     C_R   0.154020 0.354460 0.546818 0.831782
C8    C     C_R   0.845980 0.645541 0.453182 0.831785
Cu1   Cu    Cu3+1 0.517640 0.000000 0.687200 1.043838
Cu2   Cu    Cu3+1 0.482360 0.000000 0.312800 1.043836
Cu3   Cu    Cu3+1 0.017640 0.500000 0.687200 1.043836
Cu4   Cu    Cu3+1 0.982360 0.500000 0.312800 1.043837
C9    C     C_2   0.249254 0.217124 0.429288 0.017668
C10   C     C_2   0.750744 0.782875 0.570712 0.017678
C11   C     C_2   0.749416 0.219748 0.572062 0.034261
C12   C     C_2   0.250586 0.780248 0.427940 0.034243
C13   C     C_2   0.749254 0.717124 0.429287 0.017659
C14   C     C_2   0.250746 0.282877 0.570711 0.017676
C15   C     C_2   0.249416 0.719747 0.572062 0.034267
C16   C     C_2   0.750585 0.280248 0.427939 0.034245
N1    N     N_2   0.455760 0.000000 0.031460 -0.078114
N2    N     N_2   0.544240 0.000000 0.968540 -0.078111
N3    N     N_2   0.955760 0.500000 0.031460 -0.078116
N4    N     N_2   0.044240 0.500000 0.968540 -0.078112
N5    N     N_R   0.645735 0.704071 0.265796 0.108741
O17   O     O_R   0.656688 0.691854 0.102137 -0.319613
O18   O     O_R   0.541730 0.692493 0.282933 -0.346498
N6    N     N_R   0.354266 0.295931 0.734198 0.108744
O19   O     O_R   0.343313 0.308158 0.897854 -0.319620
O20   O     O_R   0.458270 0.307506 0.717060 -0.346485
N7    N     N_R   0.351101 0.712032 0.737710 0.119862
O21   O     O_R   0.341721 0.729730 0.900804 -0.308175
O22   O     O_R   0.454400 0.690872 0.724881 -0.353651
N8    N     N_R   0.648892 0.287963 0.262294 0.119874
O23   O     O_R   0.658272 0.270329 0.099187 -0.308186
O24   O     O_R   0.545593 0.309112 0.275137 -0.353650
N9    N     N_R   0.145733 0.204070 0.265802 0.108741
O25   O     O_R   0.156683 0.191854 0.102140 -0.319611
O26   O     O_R   0.041730 0.192489 0.282944 -0.346497
N10   N     N_R   0.854260 0.795926 0.734205 0.108744
O27   O     O_R   0.843301 0.808151 0.897856 -0.319624
O28   O     O_R   0.958267 0.807503 0.717075 -0.346477
N11   N     N_R   0.851107 0.212028 0.737707 0.119869
O29   O     O_R   0.841737 0.229721 0.900810 -0.308164
O30   O     O_R   0.954402 0.190857 0.724866 -0.353667
N12   N     N_R   0.148895 0.787961 0.262293 0.119873
O31   O     O_R   0.158278 0.770329 0.099191 -0.308188
O32   O     O_R   0.045595 0.809107 0.275132 -0.353648
C17   C     C_3   0.339665 0.029861 0.908158 -0.082738
C18   C     C_3   0.237727 0.977599 0.951313 -0.358638
C19   C     C_3   0.120589 0.997419 0.796495 -0.672948
H1    H     H_    0.117922 0.077629 0.748829 0.278986
H2    H     H_    0.111849 0.945558 0.675046 0.247207
H3    H     H_    0.045185 0.984518 0.848377 0.308658
H4    H     H_    0.253285 0.894005 0.958671 0.301387
H5    H     H_    0.229651 0.005616 0.084324 0.271159
H6    H     H_    0.330440 0.114354 0.914678 0.233941
H7    H     H_    0.325630 0.003360 0.767351 0.194433
C20   C     C_3   0.660338 0.970143 0.091846 -0.082713
C21   C     C_3   0.762271 0.022415 0.048688 -0.358670
C22   C     C_3   0.879417 0.002576 0.203472 -0.672990
H8    H     H_    0.888169 0.054413 0.324952 0.247212
H9    H     H_    0.882085 0.922359 0.251090 0.279019
H10   H     H_    0.954815 0.015492 0.151580 0.308659
H11   H     H_    0.770332 0.994412 0.915664 0.271169
H12   H     H_    0.746726 0.106010 0.041373 0.301358
H13   H     H_    0.674373 0.996639 0.232661 0.194419
H14   H     H_    0.669567 0.885649 0.085327 0.233941
C23   C     C_3   0.839666 0.529859 0.908156 -0.082743
C24   C     C_3   0.737728 0.477597 0.951312 -0.358634
C25   C     C_3   0.620590 0.497420 0.796498 -0.672963
H15   H     H_    0.617924 0.577630 0.748838 0.278984
H16   H     H_    0.611848 0.445562 0.675046 0.247210
H17   H     H_    0.545185 0.484517 0.848379 0.308658
H18   H     H_    0.753283 0.394002 0.958665 0.301380
H19   H     H_    0.729654 0.505613 0.084324 0.271162
H20   H     H_    0.830441 0.614350 0.914673 0.233944
H21   H     H_    0.825634 0.503357 0.767352 0.194436
C26   C     C_3   0.160339 0.470148 0.091846 -0.082721
C27   C     C_3   0.262272 0.522420 0.048689 -0.358669
C28   C     C_3   0.379417 0.502583 0.203477 -0.672987
H22   H     H_    0.388170 0.554424 0.324953 0.247210
H23   H     H_    0.382086 0.422366 0.251103 0.279014
H24   H     H_    0.454814 0.515496 0.151583 0.308659
H25   H     H_    0.270334 0.494418 0.915665 0.271165
H26   H     H_    0.246725 0.606016 0.041371 0.301363
H27   H     H_    0.174373 0.496646 0.232655 0.194421
H28   H     H_    0.169572 0.385656 0.085329 0.233936

loop_
_geom_bond_atom_site_label_1
_geom_bond_atom_site_label_2
_geom_bond_distance
_ccdc_geom_bond_type
O16   Cu4   1.982192 S    
C25   H15   1.107216 S    
C27   H26   1.102476 S    
O2    C2    1.301990 A    
N5    O17   1.300251 A    
N9    O26   1.300658 A    
C26   C27   1.525159 S    
C15   N7    1.437266 S    
O4    Cu1   1.989913 S    
N7    O22   1.298610 A    
C5    C16   1.453564 S    
C22   H8    1.111254 S    
C26   H28   1.106758 S    
C6    C15   1.453542 S    
O11   C3    1.307602 A    
N12   O31   1.297866 A    
C24   H18   1.102489 S    
C23   C24   1.525147 S    
C20   H14   1.106780 S    
O11   Cu1   1.982192 S    
O6    C6    1.301989 A    
C17   H6    1.106753 S    
N10   O27   1.300236 A    
C11   N11   1.437299 S    
N12   O32   1.298608 A    
O5    Cu3   1.980528 S    
C23   H20   1.106745 S    
C18   H5    1.103039 S    
N7    O21   1.297926 A    
C26   H27   1.078080 S    
N1    C17   1.451207 S    
N8    O24   1.298619 A    
O13   Cu4   1.983151 S    
O3    C3    1.305781 A    
O14   Cu3   1.983149 S    
C4    C9    1.449362 S    
O15   C7    1.307602 A    
C18   C19   1.527143 S    
N11   O29   1.297936 A    
O16   C8    1.307597 A    
C27   H25   1.103007 S    
O1    Cu1   1.980528 S    
N5    O18   1.300657 A    
C28   H23   1.107212 S    
N6    O20   1.300650 A    
O9    Cu2   1.983151 S    
C28   H22   1.111261 S    
N2    C20   1.451224 S    
C22   H9    1.107199 S    
O6    Cu4   1.980526 S    
N11   O30   1.298624 A    
C19   H1    1.107228 S    
C12   C15   1.362908 D    
C14   N6    1.443018 S    
C21   C22   1.527126 S    
C21   H12   1.102472 S    
N3    N4    1.296093 D    
C24   C25   1.527138 S    
Cu4   N3    2.055456 S    
Cu1   Cu2   2.735615 S    
N9    O25   1.300248 A    
C10   N10   1.443014 S    
C9    C14   1.358547 D    
O7    Cu4   1.989914 S    
O12   Cu2   1.982192 S    
C19   H2    1.111283 S    
C20   C21   1.525163 S    
N1    N2    1.296093 D    
Cu1   N2    2.055456 S    
C23   H21   1.078054 S    
O15   Cu3   1.982192 S    
C18   H4    1.102482 S    
Cu3   N4    2.055456 S    
C7    C14   1.449358 S    
C27   C28   1.527132 S    
O12   C4    1.307599 A    
N8    O23   1.297885 A    
O13   C5    1.313919 A    
O2    Cu2   1.980526 S    
O10   Cu1   1.983149 S    
O9    C1    1.313920 A    
C25   H16   1.111270 S    
N3    C23   1.451193 S    
N4    C26   1.451218 S    
C28   H24   1.110056 S    
C16   N8    1.437302 S    
N6    O19   1.300237 A    
C22   H10   1.110056 S    
O8    Cu3   1.989913 S    
C10   C13   1.358548 D    
O3    Cu2   1.989914 S    
C21   H11   1.103001 S    
Cu2   N1    2.055456 S    
O1    C1    1.301993 A    
C8    C13   1.449361 S    
C19   H3    1.110056 S    
C13   N5    1.443032 S    
O14   C6    1.313913 A    
C12   N12   1.437293 S    
C24   H19   1.103040 S    
C20   H13   1.078111 S    
C9    N9    1.443024 S    
O10   C2    1.313913 A    
O7    C7    1.305781 A    
O8    C8    1.305783 A    
N10   O28   1.300655 A    
C17   H7    1.078071 S    
O4    C4    1.305783 A    
O5    C5    1.301994 A    
C17   C18   1.525146 S    
C25   H17   1.110056 S    
Cu3   Cu4   2.735615 S    
C1    C12   1.453560 S    
C11   C16   1.362913 D    
C2    C11   1.453547 S    
C3    C10   1.449355 S    
