data_mof_unit_66965.cif
_audit_creation_date              2013-03-05T15:58:12-0500
_audit_creation_method            fapswitch 2.2
_symmetry_space_group_name_H-M    P1
_symmetry_Int_Tables_number       1
_space_group_crystal_system       triclinic
_cell_length_a                    8.291358
_cell_length_b                    12.770364
_cell_length_c                    14.209439
_cell_angle_alpha                 93.262433
_cell_angle_beta                  90.70068
_cell_angle_gamma                 98.149816
_cell_volume                      1486.62531706

loop_
_atom_site_label
_atom_site_type_symbol
_atom_site_description
_atom_site_fract_x
_atom_site_fract_y
_atom_site_fract_z
_atom_type_partial_charge
P1    P     P_3+3 0.054400 0.427280 0.286870 0.475900
O1    O     O_2   0.887370 0.460630 0.272300 -0.387737
O2    O     O_3   0.129410 0.451380 0.388510 -0.398406
O3    O     O_3   0.670210 0.653170 0.329170 -0.380197
O4    O     O_2   0.786170 0.588839 0.165035 -0.390224
O5    O     O_3   0.024446 0.290142 0.262182 -0.539941
O6    O     O_3   0.712930 0.780104 0.175308 -0.503606
H1    H     H_    0.705613 0.845419 0.311720 0.097683
C1    C     C_3   0.688728 0.961488 0.212166 -0.053618
H2    H     H_    0.650381 0.016704 0.268018 0.059101
H3    H     H_    0.821629 0.978950 0.205109 0.169973
P2    P     P_3+3 0.668300 0.742890 0.573060 0.473060
P3    P     P_3+3 0.134849 0.842063 0.376697 0.476696
O7    O     O_2   0.845380 0.761330 0.544970 -0.361420
O8    O     O_3   0.088930 0.704860 0.376040 -0.352595
O9    O     O_2   0.019514 0.886907 0.447739 -0.375686
O10   O     O_3   0.678499 0.773794 0.694414 -0.571482
O11   O     O_3   0.071668 0.883122 0.268488 -0.537572
C2    C     C_3   0.177543 0.854977 0.198035 0.185226
H4    H     H_    0.191124 0.769449 0.199008 0.065589
H5    H     H_    0.298246 0.904414 0.209084 0.101641
C3    C     C_3   0.107290 0.875410 0.101109 0.301991
H6    H     H_    0.985495 0.826731 0.091830 0.165587
C4    C     C_3   0.271707 0.766366 0.690885 0.218205
H7    H     H_    0.375770 0.723657 0.674571 0.114541
H8    H     H_    0.214667 0.787131 0.624553 0.111933
C5    C     C_3   0.330815 0.865772 0.752373 -0.135314
H9    H     H_    0.394821 0.843888 0.816002 0.131079
H10   H     H_    0.223992 0.903003 0.775960 0.140573
Ba1   Ba    Ba6+2 0.855630 0.555280 0.454520 1.570323
C6    C     C_3   0.943454 0.237363 0.335359 0.399533
H11   H     H_    0.811535 0.228479 0.319504 0.086905
H12   H     H_    0.970620 0.278307 0.405953 0.097530
C7    C     C_3   0.994566 0.127765 0.337105 -0.871390
H13   H     H_    0.017080 0.097514 0.264774 0.299851
H14   H     H_    0.899635 0.071880 0.369472 0.190410
H15   H     H_    0.109002 0.131274 0.377971 0.275342
C8    C     C_3   0.714803 0.690682 0.746781 0.298852
H16   H     H_    0.843091 0.679504 0.735291 0.120139
H17   H     H_    0.632941 0.615750 0.727197 0.113722
C9    C     C_3   0.688986 0.724813 0.850290 -0.342366
H18   H     H_    0.724467 0.811722 0.861926 0.263174
H19   H     H_    0.557568 0.707091 0.866345 0.186362
P4    P     P_3+3 0.135310 0.572810 0.713130 0.460765
O12   O     O_2   0.302330 0.539400 0.727760 -0.366845
O13   O     O_3   0.060300 0.548700 0.611500 -0.380755
O14   O     O_3   0.519500 0.346920 0.670840 -0.339133
O15   O     O_3   0.154306 0.708009 0.743339 -0.624174
P5    P     P_3+3 0.055522 0.156336 0.618367 0.533604
O16   O     O_3   0.614310 0.373510 0.452640 -0.410833
O17   O     O_3   0.100780 0.295230 0.623970 -0.343565
O18   O     O_2   0.183465 0.113676 0.554593 -0.312712
O19   O     O_3   0.100481 0.111619 0.728558 -0.519328
Ba2   Ba    Ba6+2 0.334200 0.444810 0.545490 1.608475
P6    P     P_3+3 0.654005 0.650741 0.206903 0.462166
C10   C     C_3   0.648094 0.848317 0.240982 0.280989
H20   H     H_    0.514134 0.827132 0.245561 -0.023220
O20   O     O_3   0.575400 0.626570 0.547370 -0.406099
C11   C     C_3   0.484806 0.318951 0.258449 0.412116
H21   H     H_    0.368144 0.343697 0.281783 0.097395
H22   H     H_    0.587236 0.381926 0.279577 0.113617
C12   C     C_3   0.482364 0.304981 0.151358 -0.847959
H23   H     H_    0.374012 0.248905 0.126255 0.310918
H24   H     H_    0.477115 0.381928 0.120031 0.193223
H25   H     H_    0.594777 0.274585 0.127149 0.267807
P7    P     P_3+3 0.523937 0.242183 0.419499 0.423442
O21   O     O_2   0.344320 0.238700 0.455090 -0.351444
O22   O     O_3   0.505030 0.222530 0.296553 -0.555841
C13   C     C_3   0.968033 0.114772 0.789760 0.817998
H26   H     H_    0.856180 0.135985 0.755927 -0.085947
C14   C     C_3   0.924186 0.004617 0.826758 -0.871201
H27   H     H_    0.025410 0.984475 0.870677 0.244177
H28   H     H_    0.813154 0.001674 0.869985 0.278641
H29   H     H_    0.900999 0.944388 0.766979 0.241101
P8    P     P_3+3 0.546000 0.360174 0.794140 0.508977
C15   C     C_3   0.517892 0.171429 0.848405 0.332389
H30   H     H_    0.637432 0.193458 0.885298 0.078765
O23   O     O_2   0.467425 0.456397 0.830177 -0.374764
O24   O     O_3   0.429754 0.256818 0.847768 -0.433747
H31   H     H_    0.536453 0.142219 0.775042 0.156838
H32   H     H_    0.396120 0.117347 0.973478 0.295041
C16   C     C_3   0.421453 0.085153 0.902000 -0.678104
H33   H     H_    0.491153 0.017747 0.907750 0.233577
H34   H     H_    0.303478 0.057832 0.865351 0.238282
C17   C     C_R   0.991912 0.440533 0.060096 -0.055884
C18   C     C_R   0.183289 0.497815 0.196447 0.268998
C19   C     C_R   0.335924 0.550305 0.227254 -0.514245
C20   C     C_R   0.448584 0.595091 0.163669 0.250983
C21   C     C_R   0.405463 0.596134 0.068631 -0.310966
C22   C     C_R   0.251420 0.547682 0.035020 0.063951
C23   C     C_R   0.140541 0.494379 0.098014 -0.019360
H35   H     H_    0.370876 0.551651 0.300991 0.171569
C24   C     C_R   0.060679 0.497646 0.900749 0.015086
C25   C     C_R   0.951458 0.442392 0.963489 0.134692
C26   C     C_R   0.015552 0.496227 0.802501 0.294922
C27   C     C_R   0.866445 0.440945 0.771099 -0.417421
C28   C     C_R   0.757140 0.392920 0.833946 0.145306
C29   C     C_R   0.798757 0.392626 0.929464 -0.240943
C30   C     C_R   0.208941 0.551773 0.938848 -0.126383
H36   H     H_    0.492383 0.634372 0.020948 0.173879
H37   H     H_    0.709201 0.357952 0.977812 0.146184
H38   H     H_    0.828747 0.442989 0.698085 0.154390
H39   H     H_    0.905787 0.396603 0.104891 0.159144
H40   H     H_    0.292786 0.598150 0.894660 0.160208
C31   C     C_R   0.760227 0.175087 0.530628 -0.445353
C32   C     C_R   0.431257 0.812756 0.459734 -0.493908
C33   C     C_R   0.411835 0.991983 0.419469 -0.194300
C34   C     C_R   0.345815 0.885537 0.418304 0.209754
C35   C     C_R   0.579914 0.845333 0.507575 0.289501
C36   C     C_R   0.646579 0.955542 0.512078 -0.000791
C37   C     C_R   0.560028 0.029349 0.467491 -0.026223
C38   C     C_R   0.619206 0.139519 0.477351 0.249784
C39   C     C_R   0.851952 0.104188 0.568031 0.127071
C40   C     C_R   0.793936 0.995502 0.561494 -0.078849
H41   H     H_    0.342255 0.045258 0.386081 0.177210
H42   H     H_    0.864906 0.944212 0.596276 0.174213
H43   H     H_    0.804305 0.259081 0.538734 0.152455
H44   H     H_    0.376661 0.730591 0.459467 0.171564
N1    N     N_R   0.438285 0.941006 0.701393 0.228836
O25   O     O_R   0.589847 0.965104 0.728189 -0.471275
O26   O     O_R   0.376206 0.000046 0.643442 -0.370946
C41   C     C_3   0.788048 0.672759 0.919705 -0.965872
H45   H     H_    0.777342 0.709520 0.991527 0.311694
H46   H     H_    0.738760 0.588084 0.920529 0.268757
H47   H     H_    0.918701 0.683856 0.901208 0.263080
N2    N     N_R   0.610819 0.976702 0.122648 0.277655
O27   O     O_R   0.537813 0.059315 0.114914 -0.373514
O28   O     O_R   0.638627 0.920154 0.047048 -0.385637
C42   C     C_3   0.212383 0.841610 0.020575 -1.095476
H48   H     H_    0.331849 0.892582 0.022012 0.323483
H49   H     H_    0.231576 0.758376 0.026027 0.248281
H50   H     H_    0.150470 0.848095 0.951877 0.269183
N3    N     N_R   0.016661 0.192546 0.867926 0.224855
O29   O     O_R   0.116574 0.277485 0.852779 -0.343016
O30   O     O_R   0.938221 0.188328 0.946664 -0.389061
N4    N     N_R   0.089841 0.987181 0.095153 0.261359
O31   O     O_R   0.964040 0.013026 0.051568 -0.334363
O32   O     O_R   0.207458 0.061254 0.123010 -0.368264

loop_
_geom_bond_atom_site_label_1
_geom_bond_atom_site_label_2
_geom_bond_distance
_ccdc_geom_bond_type
P7    O22   1.752646 S    
C19   C20   1.394270 A    
N2    O27   1.297745 A    
C27   H38   1.082694 S    
C5    H10   1.109679 S    
C7    H15   1.100442 S    
C9    H18   1.109521 S    
P5    C39   1.844327 S    
C26   C27   1.388932 A    
C15   O24   1.396468 S    
O6    P6    1.740789 S    
O19   C13   1.412725 S    
H1    C10   1.112044 S    
C28   C29   1.396684 A    
C17   C23   1.408241 A    
Ba1   Ba2   4.590784 S    
O16   Ba2   2.915731 S    
P3    O11   1.750285 S    
C31   C39   1.385907 A    
C2    H5    1.109303 S    
C4    H8    1.111527 S    
C7    H13   1.104704 S    
C18   C23   1.435380 A    
C8    H16   1.105935 S    
O2    Ba2   2.799076 S    
C30   H40   1.079144 S    
C25   C29   1.400917 A    
P8    C28   1.816815 S    
C10   H20   1.108906 S    
P1    O1    1.520678 D    
P6    C20   1.834378 S    
C13   C14   1.526844 S    
C36   C37   1.432969 A    
C12   H24   1.107732 S    
C2    H4    1.114614 S    
P5    O17   1.757202 S    
P2    O10   1.745238 S    
C13   N3    1.460348 S    
C33   C34   1.390681 A    
C4    C5    1.517219 S    
C1    H2    1.110937 S    
C24   C30   1.407924 A    
C17   H39   1.080735 S    
C42   H50   1.110075 S    
P2    O20   1.593777 S    
P7    O21   1.574123 D    
Ba1   O16   2.840294 S    
C11   H21   1.108160 S    
C24   C26   1.439342 A    
C19   H35   1.082214 S    
C32   H44   1.082015 S    
C9    H19   1.110223 S    
C31   H43   1.082187 S    
O6    C10   1.403985 S    
O7    Ba1   2.874743 S    
P3    C34   1.838325 S    
P2    C35   1.872980 S    
P4    O13   1.562106 S    
H32   C16   1.107650 S    
N1    O26   1.296852 A    
C11   H22   1.109421 S    
C21   H36   1.080155 S    
P1    O5    1.748260 S    
C4    O15   1.390584 S    
C2    C3    1.539032 S    
C15   H30   1.108049 S    
C8    C9    1.536307 S    
N4    O32   1.299580 A    
C15   C16   1.514547 S    
C14   H28   1.110347 S    
C18   C19   1.398252 A    
O11   C2    1.404276 S    
Ba2   O21   2.874969 S    
C3    N4    1.462007 S    
P1    O2    1.562224 S    
C9    C41   1.516255 S    
O2    Ba1   2.925337 S    
C12   H23   1.108076 S    
C11   O22   1.403450 S    
C1    H3    1.099821 S    
C17   C25   1.411429 A    
C6    H11   1.102667 S    
P5    O18   1.540937 D    
C27   C28   1.385465 A    
O13   Ba2   2.926108 S    
C6    H12   1.109834 S    
C6    C7    1.520193 S    
C1    C10   1.517415 S    
C4    H7    1.104352 S    
O16   P7    1.772299 S    
C33   H41   1.078009 S    
O14   Ba2   2.797635 S    
C31   C38   1.391121 A    
P2    O7    1.515746 D    
O12   Ba2   2.826300 S    
C16   H34   1.104471 S    
P3    O8    1.738948 S    
O3    P6    1.739064 S    
N3    O29   1.298196 A    
C41   H46   1.101212 S    
C22   C30   1.412724 A    
P4    O12   1.521039 D    
O8    Ba1   2.807452 S    
C39   C40   1.400498 A    
Ba2   O20   2.839618 S    
P1    C18   1.869937 S    
C12   H25   1.110386 S    
C36   C40   1.416925 A    
C11   C12   1.521551 S    
N2    O28   1.301378 A    
C37   C38   1.421240 A    
P2    Ba1   3.413135 S    
C33   C37   1.406874 A    
O4    P6    1.545220 D    
C15   H31   1.107010 S    
N4    O31   1.298277 A    
C14   H29   1.108951 S    
C40   H42   1.076366 S    
N1    O25   1.297758 A    
C41   H45   1.108745 S    
C5    N1    1.447097 S    
C29   H37   1.083182 S    
C24   C25   1.422302 A    
C1    N2    1.454866 S    
Ba1   O13   2.798498 S    
O1    Ba1   2.825788 S    
O17   Ba2   2.808047 S    
C41   H47   1.109217 S    
C42   H48   1.104754 S    
O14   P8    1.758634 S    
C14   H27   1.107568 S    
C3    C42   1.526399 S    
P4    C26   1.857947 S    
C35   C36   1.434831 A    
C8    H17   1.111191 S    
C22   C23   1.421904 A    
C32   C34   1.396810 A    
P5    O19   1.750558 S    
Ba1   O20   2.916522 S    
P1    Ba1   3.388160 S    
O5    C6    1.398199 S    
C7    H14   1.107855 S    
O10   C8    1.394915 S    
C13   H26   1.113434 S    
P8    O23   1.536276 D    
P4    Ba2   3.388625 S    
C20   C21   1.394009 A    
C16   H33   1.108835 S    
P3    O9    1.540960 D    
C5    H9    1.111882 S    
N3    O30   1.300916 A    
C3    H6    1.110428 S    
P7    C38   1.849059 S    
C21   C22   1.403435 A    
P8    O24   1.738836 S    
O3    Ba1   2.798238 S    
P4    O15   1.739806 S    
C42   H49   1.103704 S    
C32   C35   1.398693 A    
