data_mof_unit_24223.cif
_audit_creation_date              2013-03-05T16:06:58-0500
_audit_creation_method            fapswitch 2.2
_symmetry_space_group_name_H-M    P1
_symmetry_Int_Tables_number       1
_space_group_crystal_system       triclinic
_cell_length_a                    8.271499
_cell_length_b                    15.135616
_cell_length_c                    27.114728
_cell_angle_alpha                 98.991042
_cell_angle_beta                  92.51023
_cell_angle_gamma                 81.510873
_cell_volume                      3315.41606222

loop_
_atom_site_label
_atom_site_type_symbol
_atom_site_description
_atom_site_fract_x
_atom_site_fract_y
_atom_site_fract_z
_atom_type_partial_charge
P1    P     P_3+3 0.071960 0.575810 0.612130 0.520330
O1    O     O_2   0.906490 0.548660 0.619040 -0.268329
O2    O     O_3   0.138490 0.548590 0.558860 -0.434558
O3    O     O_3   0.686290 0.382320 0.585720 -0.402962
O4    O     O_2   0.843306 0.428977 0.671801 -0.410231
O5    O     O_3   0.039228 0.693376 0.628852 -0.518580
O6    O     O_3   0.687540 0.291144 0.670368 -0.503920
H1    H     H_    0.812485 0.225992 0.607123 0.127415
C1    C     C_3   0.710169 0.131566 0.643421 -0.861237
H2    H     H_    0.721866 0.078743 0.609884 0.209316
H3    H     H_    0.818329 0.119018 0.668412 0.258848
P2    P     P_3+3 0.664360 0.290070 0.457280 0.470190
P3    P     P_3+3 0.144711 0.217967 0.557702 0.427236
O7    O     O_2   0.844020 0.276410 0.471510 -0.366646
O8    O     O_3   0.101490 0.335510 0.560360 -0.413384
O9    O     O_2   0.006981 0.175682 0.526386 -0.409916
O10   O     O_3   0.663516 0.262471 0.392201 -0.554283
O11   O     O_3   0.123174 0.191041 0.617460 -0.614088
C2    C     C_3   0.170337 0.259955 0.653807 1.163054
H4    H     H_    0.105462 0.327303 0.648385 0.031002
C3    C     C_3   0.126080 0.242973 0.704990 -0.870561
H5    H     H_    0.993577 0.238420 0.705874 0.227431
H6    H     H_    0.197206 0.178924 0.713820 0.267757
C4    C     C_3   0.216572 0.263247 0.407720 0.378489
H7    H     H_    0.341405 0.280721 0.415040 0.100372
H8    H     H_    0.140989 0.281900 0.441640 0.123673
C5    C     C_3   0.228178 0.161638 0.391553 -0.877153
H9    H     H_    0.303441 0.140655 0.357658 0.277601
H10   H     H_    0.285698 0.125168 0.421730 0.214065
H11   H     H_    0.103952 0.142815 0.383191 0.263437
Ba1   Ba    Ba6+2 0.860050 0.456430 0.522540 1.600975
C6    C     C_3   0.975141 0.734627 0.588306 0.431107
H12   H     H_    0.855455 0.713110 0.577111 0.098677
H13   H     H_    0.058934 0.717443 0.556291 0.103667
C7    C     C_3   0.953019 0.836527 0.604702 -0.894436
H14   H     H_    0.866242 0.855552 0.635987 0.292951
H15   H     H_    0.904351 0.872518 0.573556 0.190343
H16   H     H_    0.072536 0.858422 0.617167 0.279447
C8    C     C_3   0.713116 0.331668 0.370621 0.380660
H17   H     H_    0.823724 0.354416 0.389805 0.103246
H18   H     H_    0.612627 0.389376 0.372231 0.101511
C9    C     C_3   0.752956 0.294639 0.316332 -0.868538
H19   H     H_    0.847399 0.233927 0.314429 0.279983
H20   H     H_    0.800987 0.345419 0.297999 0.212781
H21   H     H_    0.641150 0.275738 0.295675 0.268603
P4    P     P_3+3 0.117760 0.424110 0.387870 0.471449
O12   O     O_2   0.283210 0.451320 0.380930 -0.359217
O13   O     O_3   0.051220 0.451340 0.441130 -0.418840
O14   O     O_3   0.503420 0.617610 0.414270 -0.335790
O15   O     O_3   0.144770 0.306900 0.369030 -0.549622
P5    P     P_3+3 0.052612 0.782908 0.443352 0.504993
O16   O     O_3   0.617160 0.609950 0.527080 -0.340094
O17   O     O_3   0.088220 0.664410 0.439630 -0.378828
O18   O     O_2   0.196249 0.823381 0.472300 -0.381573
O19   O     O_3   0.061320 0.812453 0.383688 -0.563233
Ba2   Ba    Ba6+2 0.329780 0.543490 0.477450 1.611138
P6    P     P_3+3 0.680002 0.397584 0.651660 0.521037
C10   C     C_3   0.700464 0.224466 0.627774 0.474861
H22   H     H_    0.591970 0.234588 0.602610 0.100344
H23   H     H_    0.597817 0.127049 0.663304 0.297408
O20   O     O_3   0.572560 0.389970 0.472910 -0.404890
C11   C     C_3   0.473940 0.685496 0.631590 0.879813
H24   H     H_    0.362003 0.664112 0.612265 -0.107250
C12   C     C_3   0.433233 0.721864 0.685936 1.223179
H25   H     H_    0.387183 0.669407 0.703603 -0.176373
P7    P     P_3+3 0.530443 0.723370 0.544985 0.477846
O21   O     O_2   0.345680 0.723560 0.528460 -0.385302
O22   O     O_3   0.530188 0.753188 0.610004 -0.606143
H26   H     H_    0.153089 0.299792 0.733712 0.245639
C13   C     C_3   0.047087 0.736055 0.348029 1.153845
H27   H     H_    0.155588 0.684712 0.350176 0.098324
C14   C     C_3   0.035014 0.762443 0.296077 -0.926216
H28   H     H_    0.139409 0.797306 0.290177 0.301329
H29   H     H_    0.038124 0.700905 0.267704 0.237901
H30   H     H_    0.919578 0.808436 0.291429 0.237871
P8    P     P_3+3 0.513183 0.603937 0.348785 0.476304
C15   C     C_3   0.572566 0.746446 0.310964 0.209521
H31   H     H_    0.685029 0.698110 0.303694 0.102052
O23   O     O_2   0.367035 0.554646 0.330085 -0.412513
O24   O     O_3   0.446101 0.709895 0.330051 -0.530484
H32   H     H_    0.620115 0.800367 0.244246 0.081074
C16   C     C_3   0.517085 0.776860 0.261005 0.380965
H33   H     H_    0.478124 0.719284 0.234913 0.092240
C17   C     C_R   0.048156 0.435045 0.179303 0.660737
O25   O     O_2   0.096695 0.369684 0.200017 -0.506094
N1    N     N_R   0.948041 0.507769 0.204756 -0.169971
C18   C     C_R   0.889106 0.580930 0.180741 0.503696
C19   C     C_2   0.743726 0.527602 0.270474 -0.213985
C20   C     C_3   0.698334 0.525131 0.323828 0.127494
C21   C     C_1   0.986612 0.484209 0.343192 0.283219
C22   C     C_2   0.029428 0.483320 0.296118 -0.189435
C23   C     C_2   0.902585 0.507118 0.256570 0.125877
C24   C     C_R   0.027168 0.507047 0.103695 -0.140600
C25   C     C_R   0.092415 0.434641 0.129157 -0.389590
C26   C     C_R   0.202897 0.363911 0.104118 0.744166
C27   C     C_R   0.923178 0.581052 0.129541 -0.003102
C28   C     C_2   0.843403 0.526132 0.359432 -0.321255
H34   H     H_    0.156260 0.464383 0.285785 0.189269
C29   C     C_2   0.349517 0.474794 0.643818 -0.359045
C30   C     C_R   0.193941 0.425216 0.973946 0.122703
C31   C     C_R   0.050890 0.580369 0.977143 0.047016
C32   C     C_R   0.141064 0.502058 0.950131 0.081548
C33   C     C_R   0.265947 0.345530 0.943681 -0.108462
C34   C     C_R   0.300734 0.344295 0.893672 -0.118146
C35   C     C_R   0.260355 0.421675 0.870744 -0.054922
C36   C     C_R   0.177586 0.500310 0.898654 -0.075226
C37   C     C_R   0.131104 0.577122 0.875090 -0.071322
C38   C     C_R   0.169714 0.574774 0.824362 0.546256
N2    N     N_R   0.252721 0.497316 0.797263 -0.170345
C39   C     C_R   0.298269 0.421237 0.820193 0.523466
C40   C     C_2   0.453784 0.473273 0.730665 -0.144594
C41   C     C_3   0.498210 0.479828 0.677833 0.270060
C42   C     C_1   0.206267 0.519334 0.658820 0.157885
C43   C     C_2   0.167142 0.523459 0.706561 -0.168540
C44   C     C_2   0.295782 0.496810 0.745315 0.109279
O26   O     O_2   0.371672 0.352769 0.796590 -0.564455
C45   C     C_R   0.167918 0.429615 0.026380 -0.264877
C46   C     C_R   0.066512 0.505342 0.052344 0.032656
C47   C     C_R   0.005116 0.579661 0.027428 0.111375
C48   C     C_R   0.242836 0.362386 0.054492 0.561154
H35   H     H_    0.550447 0.457127 0.757575 0.160230
H36   H     H_    0.358052 0.281446 0.872713 0.188226
H37   H     H_    0.290480 0.281342 0.956893 0.213608
O27   O     O_2   0.808489 0.646733 0.204276 -0.660288
C49   C     C_R   0.856645 0.652493 0.103087 0.049234
H38   H     H_    0.647027 0.540911 0.243103 0.152642
C50   C     C_R   0.009778 0.657083 0.952656 -0.208087
C51   C     C_R   0.048696 0.655275 0.902942 -0.048238
O28   O     O_2   0.131574 0.642376 0.804635 -0.546824
C52   C     C_R   0.897337 0.650839 0.053462 -0.250506
H39   H     H_    0.950499 0.721000 0.971248 0.141736
H40   H     H_    0.013662 0.716107 0.886327 0.182820
H41   H     H_    0.041022 0.543796 0.717609 0.195398
H42   H     H_    0.837874 0.705933 0.035399 0.134645
H43   H     H_    0.828437 0.557402 0.398135 0.173356
C53   C     C_R   0.345874 0.171397 0.529573 0.249999
H44   H     H_    0.348961 0.291501 0.499783 0.146543
H45   H     H_    0.232342 0.040365 0.569058 0.187479
C54   C     C_R   0.575499 0.206623 0.487306 0.310771
C55   C     C_R   0.762445 0.772059 0.488092 -0.458396
C56   C     C_R   0.856024 0.830980 0.472406 0.288819
C57   C     C_R   0.799941 0.923938 0.478890 -0.314675
C58   C     C_R   0.647958 0.959311 0.501942 0.066600
C59   C     C_R   0.561131 0.898170 0.521599 0.011620
C60   C     C_R   0.578317 0.052672 0.505904 0.033226
C61   C     C_R   0.423672 0.081874 0.529343 -0.001215
C62   C     C_R   0.348094 0.020764 0.550687 -0.159935
C63   C     C_R   0.416311 0.931304 0.547485 -0.095888
C64   C     C_R   0.653753 0.117707 0.486065 -0.278027
C65   C     C_R   0.419854 0.229648 0.506365 -0.540080
C66   C     C_R   0.620487 0.804683 0.514590 0.209717
H46   H     H_    0.769952 0.100877 0.468009 0.172800
H47   H     H_    0.806561 0.700318 0.482702 0.158695
H48   H     H_    0.876653 0.966116 0.465286 0.164214
H49   H     H_    0.349558 0.888157 0.564416 0.171341
F1    F     F_    0.594976 0.612086 0.629781 -0.710198
F2    F     F_    0.313676 0.796579 0.688446 -0.686501
F3    F     F_    0.571523 0.746155 0.711967 -0.644386
F4    F     F_    0.909560 0.699296 0.355898 -0.786087
C67   C     C_1   0.609602 0.824946 0.346427 0.263812
N3    N     N_1   0.637889 0.887407 0.374022 -0.066986
F5    F     F_    0.388589 0.847119 0.267031 -0.656731
F6    F     F_    0.278651 0.296243 0.128093 -0.586375
F7    F     F_    0.366542 0.298032 0.036355 -0.653827
C68   C     C_1   0.741930 0.728980 0.124677 0.185880
N4    N     N_1   0.650029 0.790346 0.141569 -0.045507
F8    F     F_    0.337068 0.260336 0.652895 -0.737058
C69   C     C_1   0.372318 0.441605 0.592549 0.323997
N5    N     N_1   0.390055 0.419061 0.550607 -0.003595

loop_
_geom_bond_atom_site_label_1
_geom_bond_atom_site_label_2
_geom_bond_distance
_ccdc_geom_bond_type
O5    C6    1.394725 S    
C35   C39   1.418221 A    
C68   N4    1.157322 T    
C5    H10   1.109109 S    
Ba1   O20   2.912106 S    
P7    O22   1.750183 S    
C62   C63   1.378886 A    
C4    C5    1.521820 S    
Ba1   O16   2.829254 S    
C59   C63   1.401911 A    
C33   H37   1.075913 S    
C43   C44   1.518838 S    
C8    H18   1.110225 S    
C15   H31   1.099773 S    
C31   C32   1.418853 A    
P1    C42   1.871419 S    
P3    O11   1.753952 S    
C2    C3    1.519803 S    
C17   N1    1.384619 Am   
C37   C51   1.400718 A    
C61   C62   1.396768 A    
C59   C66   1.413624 A    
C60   C61   1.432468 A    
C18   O27   1.219178 D    
O17   Ba2   2.778661 S    
P6    C41   1.891826 S    
C34   H36   1.083573 S    
C36   C37   1.409371 A    
C58   C59   1.428339 A    
P1    Ba1   3.380595 S    
C47   C52   1.409807 A    
C38   N2    1.386742 Am   
C58   C60   1.434509 A    
C13   F4    1.376359 S    
O10   C8    1.395378 S    
C46   C47   1.420736 A    
C11   C12   1.524162 S    
H1    C10   1.108348 S    
C42   C43   1.337841 D    
C56   C57   1.401004 A    
C49   C52   1.396821 A    
C19   C23   1.360682 D    
C40   H35   1.085522 S    
C12   F2    1.383139 S    
C19   H38   1.085485 S    
C37   C38   1.419529 A    
P8    O23   1.539277 D    
C13   H27   1.102907 S    
C63   H49   1.079108 S    
Ba1   Ba2   4.556145 S    
C1    H2    1.110454 S    
O7    Ba1   2.875482 S    
C21   C28   1.317625 D    
P8    C20   1.877564 S    
C2    F8    1.381305 S    
P7    O21   1.573377 D    
C3    H5    1.109802 S    
C5    H11   1.110959 S    
O6    P6    1.754878 S    
O3    Ba1   2.747896 S    
C52   H42   1.078235 S    
C9    H20   1.105693 S    
C14   H30   1.110330 S    
C51   H40   1.083561 S    
C34   C35   1.401295 A    
H32   C16   1.110562 S    
C8    C9    1.523035 S    
P5    C56   1.837900 S    
C4    O15   1.391424 S    
P4    O13   1.541075 S    
P2    C54   1.856395 S    
C13   C14   1.518407 S    
P1    O5    1.749736 S    
C31   C47   1.432992 A    
C6    C7    1.522948 S    
C7    H16   1.110771 S    
C55   C56   1.388011 A    
C14   H29   1.109388 S    
C45   C48   1.419625 A    
C8    H17   1.105213 S    
C48   F7    1.355619 S    
N1    C18   1.387823 Am   
O11   C2    1.405913 S    
C16   F5    1.383629 S    
C10   H22   1.110330 S    
C54   C64   1.400656 A    
C30   C33   1.415707 A    
C57   H48   1.076995 S    
C3    H26   1.108224 S    
O1    Ba1   2.805585 S    
P1    O2    1.541284 S    
C7    H14   1.110708 S    
C6    H13   1.109271 S    
P2    O10   1.748643 S    
C49   C68   1.447677 S    
C11   H24   1.108853 S    
C26   F6    1.359095 S    
O2    Ba2   2.756587 S    
H45   C62   1.079154 S    
C18   C27   1.428975 A    
C30   C32   1.421538 A    
O14   P8    1.759232 S    
C24   C25   1.413560 A    
C17   C25   1.422376 A    
C4    H7    1.105347 S    
O2    Ba1   2.922395 S    
C1    H3    1.110227 S    
C55   C66   1.389460 A    
C38   O28   1.222119 D    
C69   N5    1.144480 T    
P2    O7    1.511285 D    
C24   C27   1.417254 A    
Ba1   O13   2.756017 S    
C3    H6    1.111327 S    
P2    Ba1   3.413372 S    
P3    C53   1.855819 S    
H44   C65   1.064478 S    
C64   H46   1.076246 S    
C9    H19   1.110886 S    
C28   H43   1.086037 S    
C12   F3    1.383512 S    
C50   C51   1.394744 A    
Ba2   O21   2.875789 S    
C39   O26   1.221926 D    
C22   C23   1.513619 S    
O16   P7    1.761719 S    
C29   C69   1.413193 S    
C15   O24   1.405659 S    
O13   Ba2   2.923150 S    
P4    O15   1.751529 S    
P4    O12   1.513622 D    
C1    C10   1.521079 S    
O6    C10   1.406569 S    
C40   C41   1.515993 S    
C7    H15   1.105119 S    
Ba2   O20   2.828716 S    
C17   O25   1.221471 D    
P8    O24   1.762142 S    
C4    H8    1.110662 S    
C14   H28   1.105746 S    
P4    Ba2   3.380944 S    
C29   C42   1.320823 D    
C53   C65   1.383549 A    
O8    Ba1   2.778064 S    
P4    C21   1.846555 S    
C11   O22   1.400268 S    
C26   C48   1.395436 A    
O14   Ba2   2.747375 S    
C35   C36   1.407576 A    
C55   H47   1.082433 S    
C54   C65   1.384014 A    
O4    P6    1.546730 D    
C1    H23   1.110468 S    
C67   N3    1.156377 T    
P5    O18   1.544608 D    
C2    H4    1.107743 S    
P3    O8    1.752867 S    
P7    C66   1.841217 S    
N1    C23   1.472053 S    
N2    C39   1.389113 Am   
C6    H12   1.102826 S    
P2    O20   1.591034 S    
C21   C22   1.337017 D    
C15   C16   1.528258 S    
C29   C41   1.508476 S    
P1    O1    1.513226 D    
C12   H25   1.108645 S    
C31   C50   1.417493 A    
C43   H41   1.084661 S    
C11   F1    1.377720 S    
C27   C49   1.420826 A    
C32   C36   1.436393 A    
P5    O19   1.751623 S    
C22   H34   1.083105 S    
C25   C26   1.407289 A    
C50   H39   1.076872 S    
O19   C13   1.402364 S    
N2    C44   1.466554 S    
C15   C67   1.467889 S    
C19   C20   1.517844 S    
C16   H33   1.110872 S    
C24   C46   1.439179 A    
P3    O9    1.545700 D    
C20   C28   1.507106 S    
C33   C34   1.395151 A    
C60   C64   1.422631 A    
C57   C58   1.422403 A    
C40   C44   1.362537 D    
C30   C45   1.437038 A    
P5    O17   1.761761 S    
C45   C46   1.424278 A    
C9    H21   1.110632 S    
C53   C61   1.410812 A    
O16   Ba2   2.911336 S    
O3    P6    1.768716 S    
O12   Ba2   2.805890 S    
C5    H9    1.110666 S    
