data_mof_unit_65627.cif
_audit_creation_date              2012-12-11T16:53:39-0500
_audit_creation_method            fapswitch 2.2
_symmetry_space_group_name_H-M    P1
_symmetry_Int_Tables_number       1
_space_group_crystal_system       triclinic
_cell_length_a                    8.295446
_cell_length_b                    12.804202
_cell_length_c                    16.306265
_cell_angle_alpha                 95.318862
_cell_angle_beta                  92.547214
_cell_angle_gamma                 97.708726
_cell_volume                      1706.11126279

loop_
_atom_site_label
_atom_site_type_symbol
_atom_type_description
_atom_site_fract_x
_atom_site_fract_y
_atom_site_fract_z
_atom_type_partial_charge
Ba1   Ba    Ba6+2 0.162890 0.552530 0.460820 1.698583
Ba2   Ba    Ba6+2 0.647290 0.447460 0.539110 1.660292
C1    C     C_3   0.311804 0.935289 0.164966 -0.384477
C2    C     C_3   0.388694 0.858998 0.214749 0.349274
C3    C     C_3   0.542362 0.768514 0.645259 0.291876
C4    C     C_3   0.604361 0.884441 0.665542 -0.427577
C5    C     C_3   0.916588 0.177984 0.757128 0.441215
C6    C     C_3   0.974790 0.115318 0.825136 -0.307064
C7    C     C_3   0.412310 0.188880 0.762305 0.306495
C8    C     C_3   0.442328 0.134482 0.839632 -0.066250
C9    C     C_R   0.063530 0.187193 0.538353 -0.291577
C10   C     C_R   0.748747 0.816943 0.468384 -0.229976
C11   C     C_R   0.714110 0.993641 0.435767 -0.071526
C12   C     C_3   0.881570 0.800836 0.172394 0.441536
C13   C     C_R   0.660512 0.883530 0.429048 0.029912
C14   C     C_R   0.889801 0.853861 0.516045 0.063560
C15   C     C_R   0.947372 0.966577 0.526547 -0.026752
C16   C     C_R   0.857428 0.038116 0.485123 -0.053069
C17   C     C_R   0.916809 0.150912 0.493441 0.067400
C18   C     C_R   0.155772 0.117819 0.572769 -0.009370
C19   C     C_R   0.093923 0.010508 0.573333 0.080278
C20   C     C_R   0.633616 0.529130 0.265540 -0.180663
C21   C     C_R   0.474865 0.482525 0.241339 0.009562
C22   C     C_R   0.416867 0.479036 0.159016 -0.118979
C23   C     C_3   0.918138 0.800810 0.081349 -0.395358
C24   C     C_R   0.521138 0.517971 0.099399 0.282874
C25   C     C_R   0.684076 0.557968 0.123994 -0.165595
C26   C     C_R   0.739006 0.567257 0.207493 0.004487
C27   C     C_R   0.380305 0.530162 0.854530 -0.109874
C28   C     C_R   0.331835 0.521182 0.770892 0.010761
C29   C     C_R   0.273623 0.486247 0.911515 0.289552
C30   C     C_R   0.180044 0.467575 0.742449 -0.284604
C31   C     C_R   0.068801 0.430922 0.797790 -0.027334
C32   C     C_R   0.115452 0.438709 0.882459 -0.146316
C33   C     C_3   0.734055 0.265223 0.278591 0.468661
C34   C     C_3   0.600101 0.179387 0.238384 -0.116212
C35   C     C_3   0.039401 0.685080 0.707981 0.321956
C36   C     C_3   0.064110 0.716491 0.800526 -0.391447
C37   C     C_3   0.253605 0.234590 0.369567 0.283531
C38   C     C_3   0.225707 0.114047 0.353556 -0.333176
H1    H     H_    0.332627 0.776541 0.193503 0.087729
H2    H     H_    0.517174 0.154326 0.285783 0.109909
H3    H     H_    0.654188 0.108582 0.216308 0.149017
H4    H     H_    0.153249 0.661713 0.684158 0.005850
H5    H     H_    0.939058 0.617909 0.696484 0.054332
H6    H     H_    0.168758 0.780691 0.813509 0.127981
H7    H     H_    0.088686 0.648226 0.833568 0.053307
H8    H     H_    0.952705 0.745014 0.824331 0.126799
H9    H     H_    0.137515 0.263329 0.383149 0.048441
H10   H     H_    0.341812 0.257156 0.423567 0.060731
H11   H     H_    0.312842 0.909737 0.098055 0.087024
H12   H     H_    0.189588 0.089837 0.287610 0.189940
H13   H     H_    0.128261 0.079000 0.390598 0.076905
H14   H     H_    0.338020 0.080785 0.370319 0.108588
H15   H     H_    0.518894 0.870304 0.200764 0.062484
H16   H     H_    0.379789 0.015589 0.177514 0.146212
H17   H     H_    0.642189 0.729283 0.618222 0.017541
H18   H     H_    0.437594 0.760373 0.599480 0.066600
H19   H     H_    0.723095 0.892745 0.701499 0.139121
H20   H     H_    0.620234 0.923830 0.608127 0.079615
H21   H     H_    0.515872 0.922843 0.702909 0.154119
H22   H     H_    0.186468 0.938611 0.182227 0.187454
H23   H     H_    0.960768 0.725464 0.058570 0.103754
H24   H     H_    0.026716 0.217827 0.730444 -0.033650
H25   H     H_    0.052457 0.057447 0.799723 0.075327
H26   H     H_    0.046703 0.170313 0.874147 0.137828
H27   H     H_    0.869300 0.071764 0.852977 0.121858
H28   H     H_    0.284304 0.204337 0.759554 -0.049031
H29   H     H_    0.494523 0.265197 0.765373 0.122742
H30   H     H_    0.355973 0.060068 0.838363 0.079392
H31   H     H_    0.568411 0.114636 0.842934 0.127958
H32   H     H_    0.646050 0.042716 0.401053 0.094075
H33   H     H_    0.113861 0.269963 0.540792 0.059083
H34   H     H_    0.706725 0.732585 0.460366 0.063346
H35   H     H_    0.499480 0.572403 0.874643 0.100316
H36   H     H_    0.766132 0.584786 0.078318 0.071956
H37   H     H_    0.293407 0.442333 0.141464 0.150108
H38   H     H_    0.030080 0.407105 0.925296 0.119064
H39   H     H_    0.676720 0.533552 0.329555 0.070041
H40   H     H_    0.758508 0.758261 0.177074 0.026602
H41   H     H_    0.144013 0.460683 0.677318 0.063787
H42   H     H_    0.806146 0.809917 0.044332 0.099201
H43   H     H_    0.013419 0.866842 0.071296 0.141794
H44   H     H_    0.682380 0.332114 0.310975 -0.057133
N1    N     N_2   0.469663 0.516529 0.014498 -0.213918
N2    N     N_2   0.320563 0.488789 0.997273 -0.206518
O1    O     O_2   0.158840 0.763480 0.539220 -0.495686
O2    O     O_3   0.311862 0.277053 0.298681 -0.607960
O3    O     O_3   0.006447 0.762585 0.217466 -0.570494
O4    O     O_2   0.651450 0.236450 0.460750 -0.481256
O5    O     O_3   0.921400 0.370930 0.458880 -0.485116
O6    O     O_3   0.418970 0.302610 0.606550 -0.475915
O7    O     O_3   0.832552 0.215941 0.330323 -0.625024
O8    O     O_3   0.377910 0.555000 0.596240 -0.487480
O9    O     O_3   0.840790 0.356930 0.647080 -0.487156
O10   O     O_2   0.732331 0.435038 0.791347 -0.467004
O11   O     O_3   0.814153 0.248013 0.791115 -0.588925
O12   O     O_3   0.888900 0.629060 0.541050 -0.499131
O13   O     O_3   0.432390 0.444990 0.403690 -0.502405
O14   O     O_2   0.627510 0.552390 0.696520 -0.453080
O15   O     O_3   0.493601 0.726923 0.718131 -0.638304
O16   O     O_2   0.474001 0.116435 0.537537 -0.497024
O17   O     O_3   0.444859 0.121639 0.694127 -0.636369
O18   O     O_3   0.391330 0.697380 0.393380 -0.448083
O19   O     O_2   0.592181 0.756814 0.294328 -0.566339
O20   O     O_3   0.000151 0.772957 0.670992 -0.616036
O21   O     O_3   0.366561 0.881507 0.299732 -0.589855
O22   O     O_2   0.182780 0.447540 0.303450 -0.422905
O23   O     O_3   0.969510 0.643060 0.352850 -0.447843
O24   O     O_2   0.078477 0.571698 0.210822 -0.461285
P1    P     P_3+3 0.983580 0.746680 0.563420 0.988985
P2    P     P_3+3 0.350740 0.415080 0.315970 1.023308
P3    P     P_3+3 0.944828 0.634281 0.244698 1.041547
P4    P     P_3+3 0.826720 0.253310 0.436510 0.988291
P5    P     P_3+3 0.864228 0.372051 0.755943 0.971542
P6    P     P_3+3 0.492668 0.812789 0.358897 0.940920
P7    P     P_3+3 0.455442 0.589852 0.697977 0.948945
P8    P     P_3+3 0.371324 0.165776 0.603487 0.914830
N3    N     N_3   0.507745 0.212069 0.168970 -0.461987
H45   H     H_    0.510972 0.293756 0.174892 0.186593
H46   H     H_    0.564445 0.192500 0.114784 0.240439
N4    N     N_3   0.824947 0.105605 0.692412 -0.514707
H47   H     H_    0.788663 0.149976 0.646080 0.203960
H48   H     H_    0.718111 0.074795 0.717700 0.210055
I1    I     I_    0.410973 0.233932 0.947905 -0.486574
I2    I     I_    0.866893 0.957272 0.224796 -0.528896
N5    N     N_3   0.180416 0.948028 0.623198 -0.446593
H49   H     H_    0.297149 0.946274 0.602107 0.185197
H50   H     H_    0.188891 0.981736 0.684337 0.178366
I3    I     I_    0.887389 0.318580 0.183940 -0.405834

loop_
_geom_bond_atom_site_label_1
_geom_bond_atom_site_label_2
_ccdc_geom_bond_type
Ba1   O1    S    
C6    H26   S    
C25   H36   S    
C10   H34   S    
O19   P6    D    
C34   H2    S    
C33   C34   S    
Ba1   O13   S    
C18   P8    S    
C5    C6    S    
N1    N2    D    
C30   H41   S    
C9    C17   A    
C24   C25   A    
C35   C36   S    
C3    H18   S    
C4    H21   S    
Ba2   O9    S    
C7    H29   S    
C20   H39   S    
C16   C17   A    
Ba1   P2    S    
C3    C4    S    
O8    P7    S    
O1    P1    D    
C2    H1    S    
Ba1   Ba2   S    
C23   H23   S    
Ba2   O4    S    
C34   N3    S    
O6    P8    S    
C28   P7    S    
Ba1   O23   S    
O18   P6    S    
C10   C14   A    
O9    P5    S    
Ba1   O8    S    
C21   C22   A    
O10   P5    D    
C12   H40   S    
C19   N5    S    
C8    I1    S    
C7    C8    S    
C36   H8    S    
O16   P8    D    
O23   P3    S    
C8    H31   S    
C33   O7    S    
Ba2   O14   S    
C6    H25   S    
Ba1   O5    S    
C29   N2    S    
C20   C26   A    
C37   O2    S    
C31   C32   A    
C3    O15   S    
O20   P1    S    
N3    H46   S    
C5    H24   S    
C2    O21   S    
O3    P3    S    
C9    C18   A    
C31   P5    S    
C4    H20   S    
Ba2   O8    S    
C9    H33   S    
C37   C38   S    
C1    H11   S    
C14   C15   A    
C17   P4    S    
C38   H12   S    
C15   C19   A    
O22   P2    D    
N5    H50   S    
C12   O3    S    
C27   C28   A    
C21   P2    S    
C1    H16   S    
C33   I3    S    
C10   C13   A    
C33   H44   S    
C15   C16   A    
C29   C32   A    
Ba2   O6    S    
Ba1   O18   S    
C36   H7    S    
C11   C16   A    
C37   H9    S    
Ba2   O13   S    
C38   H14   S    
C11   C13   A    
C2    H15   S    
C23   H42   S    
O17   P8    S    
O11   P5    S    
C5    N4    S    
C35   H5    S    
C1    C2    S    
C8    H30   S    
C1    H22   S    
O12   P1    S    
C5    O11   S    
C20   C21   A    
C4    H19   S    
C22   C24   A    
Ba1   O12   S    
N3    H45   S    
C27   H35   S    
C11   H32   S    
C12   I2    S    
O5    P4    S    
C3    H17   S    
O15   P7    S    
C30   C31   A    
C35   H4    S    
C7    H28   S    
C35   O20   S    
C27   C29   A    
C32   H38   S    
C28   C30   A    
Ba2   P4    S    
C24   N1    S    
O13   P2    S    
C7    O17   S    
O7    P4    S    
O4    P4    D    
C12   C23   S    
Ba2   O5    S    
O21   P6    S    
C36   H6    S    
C26   P3    S    
Ba1   O22   S    
O2    P2    S    
C22   H37   S    
C37   H10   S    
C18   C19   A    
Ba2   O12   S    
C6    H27   S    
C38   H13   S    
O24   P3    D    
C25   C26   A    
C23   H43   S    
C13   P6    S    
C34   H3    S    
O14   P7    D    
N4    H47   S    
N4    H48   S    
Ba1   P1    S    
N5    H49   S    
C14   P1    S    
