data_mof_unit_40071.cif
_audit_creation_date              2012-12-10T17:50:38-0500
_audit_creation_method            fapswitch 2.2
_symmetry_space_group_name_H-M    P1
_symmetry_Int_Tables_number       1
_space_group_crystal_system       triclinic
_cell_length_a                    15.73618
_cell_length_b                    10.629323
_cell_length_c                    10.0
_cell_angle_alpha                 92.042698
_cell_angle_beta                  89.649186
_cell_angle_gamma                 92.788621
_cell_volume                      1669.59090309

loop_
_atom_site_label
_atom_site_type_symbol
_atom_type_description
_atom_site_fract_x
_atom_site_fract_y
_atom_site_fract_z
_atom_type_partial_charge
C1    C     C_R   0.502123 0.260798 0.498497 0.839564
C2    C     C_R   0.709237 0.091397 0.691423 -0.035563
C3    C     C_R   0.705437 0.958886 0.702927 0.270927
C4    C     C_R   0.338375 0.499742 0.500101 0.880242
C5    C     C_R   0.641032 0.885964 0.636782 -0.244529
C6    C     C_R   0.575519 0.942503 0.568197 0.038900
C7    C     C_R   0.577048 0.073820 0.561219 0.108197
C8    C     C_R   0.508672 0.128451 0.497253 -0.057260
C9    C     C_R   0.439822 0.056218 0.445458 -0.152563
C10   C     C_R   0.440069 0.928062 0.446990 -0.167540
C11   C     C_R   0.507181 0.871943 0.506901 -0.088510
C12   C     C_3   0.083960 0.501029 0.493954 0.052414
C13   C     C_R   0.360543 0.378996 0.129407 -0.078352
C14   C     C_R   0.284509 0.357795 0.056599 -0.046313
C15   C     C_R   0.290380 0.346724 0.917701 -0.186328
C16   C     C_R   0.503284 0.739192 0.502183 0.862739
C17   C     C_R   0.367562 0.374520 0.855228 -0.158314
C18   C     C_R   0.434047 0.439429 0.925324 0.160254
C19   C     C_R   0.432511 0.440668 0.068808 0.136609
C20   C     C_R   0.563335 0.560730 0.071880 0.011819
C21   C     C_R   0.563049 0.558877 0.929125 -0.078735
C22   C     C_R   0.661706 0.500329 0.499717 0.861313
C23   C     C_3   0.973921 0.581294 0.594668 -0.320219
C24   C     C_3   0.970067 0.383916 0.519640 0.190716
C25   C     C_3   0.026211 0.417643 0.397469 -0.278814
C26   C     C_1   0.249715 0.499867 0.499151 -0.178608
C27   C     C_1   0.750459 0.498762 0.499190 -0.175380
C28   C     C_3   0.027732 0.465531 0.613770 0.246481
C29   C     C_3   0.827561 0.830694 0.721749 -0.724631
C30   C     C_2   0.632019 0.636346 0.141526 0.439915
C31   C     C_2   0.374053 0.276456 0.218575 0.535068
C32   C     C_2   0.203466 0.322414 0.125679 0.370820
C33   C     C_3   0.991972 0.158384 0.530960 -0.696257
C34   C     C_3   0.916461 0.498098 0.498979 0.037500
C35   C     C_3   0.998709 0.582168 0.145398 -0.708710
C36   C     C_2   0.062677 0.748542 0.445852 0.403679
C37   C     C_3   0.102727 0.525995 0.821212 -0.730174
C38   C     C_2   0.777854 0.176452 0.750765 0.393512
C39   C     C_3   0.030817 0.616820 0.473029 -0.022304
C40   C     C_3   0.972662 0.534111 0.379588 0.182168
C41   C     C_1   0.174628 0.500311 0.496093 0.009473
C42   C     C_1   0.825633 0.497766 0.499223 -0.039171
C43   C     C_R   0.645706 0.146741 0.618987 -0.301269
H1    H     H_    0.047737 0.351443 0.317456 0.182761
H2    H     H_    0.779109 0.946142 0.875001 0.280934
H3    H     H_    0.863323 0.780392 0.796956 0.241671
H4    H     H_    0.872022 0.898101 0.671053 0.246207
H5    H     H_    0.800520 0.760222 0.647003 0.226926
H6    H     H_    0.623054 0.674272 0.241651 0.120367
H7    H     H_    0.336659 0.268001 0.309508 -0.021371
H8    H     H_    0.199345 0.331234 0.233931 0.042246
H9    H     H_    0.877060 0.238985 0.498284 0.229829
H10   H     H_    0.961124 0.070224 0.568192 0.247402
H11   H     H_    0.050986 0.180097 0.589025 0.233748
H12   H     H_    0.641286 0.784813 0.644894 0.165104
H13   H     H_    0.008439 0.142737 0.423657 0.223846
H14   H     H_    0.901410 0.650009 0.265567 0.235792
H15   H     H_    0.965366 0.607706 0.053408 0.248036
H16   H     H_    0.027713 0.490230 0.125425 0.271265
H17   H     H_    0.049372 0.655803 0.169277 0.233620
H18   H     H_    0.017565 0.821047 0.432802 0.051928
H19   H     H_    0.091643 0.345762 0.734461 0.233971
H20   H     H_    0.119950 0.489192 0.919212 0.265155
H21   H     H_    0.061193 0.606254 0.840047 0.239386
H22   H     H_    0.162037 0.559499 0.770255 0.241675
H23   H     H_    0.386604 0.872241 0.404577 0.174701
H24   H     H_    0.770682 0.277625 0.754300 0.091064
H25   H     H_    0.237114 0.309045 0.858250 0.188832
H26   H     H_    0.374144 0.342553 0.753347 0.201725
H27   H     H_    0.613462 0.608429 0.875160 0.186996
H28   H     H_    0.952315 0.646416 0.675244 0.161465
H29   H     H_    0.384229 0.098433 0.408000 0.153917
H30   H     H_    0.650215 0.247767 0.608983 0.155225
N1    N     N_R   0.499210 0.498800 0.142780 -0.160868
N2    N     N_R   0.499180 0.498720 0.857170 -0.137718
N3    N     N_2   0.760570 0.897016 0.788584 -0.277824
N4    N     N_2   0.934021 0.259402 0.546594 -0.270363
N5    N     N_2   0.938324 0.572777 0.254379 -0.281813
N6    N     N_2   0.058803 0.427203 0.741464 -0.266277
O1    O     O_R   0.500000 0.316780 0.614690 -0.636764
O2    O     O_2   0.421890 0.193959 0.184099 -0.562778
O3    O     O_2   0.140605 0.283660 0.062938 -0.573394
O4    O     O_2   0.138820 0.774981 0.438261 -0.562108
O5    O     O_2   0.843890 0.136730 0.792035 -0.551462
O6    O     O_R   0.499990 0.316750 0.385360 -0.580795
O7    O     O_R   0.376780 0.500000 0.614650 -0.627326
O8    O     O_R   0.376770 0.499980 0.385310 -0.635468
O9    O     O_R   0.500010 0.683250 0.614640 -0.607141
O10   O     O_R   0.500000 0.683220 0.385310 -0.639490
O11   O     O_R   0.623230 0.500020 0.614690 -0.627980
O12   O     O_R   0.623220 0.500000 0.385350 -0.626280
O13   O     O_2   0.699857 0.660289 0.085719 -0.593714
Zn1   Zn    Zn3+2 0.500010 0.500020 0.653130 0.941577
Zn2   Zn    Zn3+2 0.499990 0.499980 0.346870 0.960797

loop_
_geom_bond_atom_site_label_1
_geom_bond_atom_site_label_2
_ccdc_geom_bond_type
C43   H30   S    
C17   H26   S    
C18   N2    A    
C1    C8    S    
N1    Zn2   S    
C34   C42   S    
C9    H29   S    
C7    C8    A    
C4    O8    A    
C20   C30   S    
C37   N6    S    
C21   H27   S    
C29   H4    S    
C35   H15   S    
C34   C40   S    
C25   C40   S    
C5    C6    A    
C4    O7    A    
C36   O4    D    
O8    Zn2   S    
C35   H16   S    
C18   C19   A    
C11   C16   S    
O10   Zn2   S    
C28   N6    S    
C8    C9    A    
C37   H22   S    
C29   H3    S    
C22   O12   A    
C7    C43   A    
C9    C10   A    
C33   H13   S    
C16   O10   A    
C13   C14   A    
C33   H10   S    
C25   H1    S    
C37   H20   S    
C5    H12   S    
C10   H23   S    
C1    O6    A    
C13   C19   A    
C29   H5    S    
C23   H28   S    
H19   N6    S    
C24   C25   S    
C30   O13   D    
C6    C11   A    
C29   N3    S    
C24   C34   S    
C35   H17   S    
C32   H8    S    
C12   C41   S    
O7    Zn1   S    
O6    Zn2   S    
C2    C38   S    
C2    C43   A    
C23   C34   S    
C17   C18   A    
C22   O11   A    
C20   N1    A    
C23   C28   S    
C38   H24   S    
C3    N3    S    
C30   H6    S    
C12   C28   S    
C22   C27   S    
H2    N3    S    
C40   N5    S    
C31   H7    S    
H9    N4    S    
C39   C40   S    
C37   H21   S    
N2    Zn1   S    
O11   Zn1   S    
C33   H11   S    
C15   C17   A    
O9    Zn1   S    
C38   O5    D    
H14   N5    S    
C13   C31   S    
C36   C39   S    
C24   C28   S    
C14   C32   S    
C3    C5    A    
C4    C26   S    
C6    C7    A    
C32   O3    D    
C21   N2    A    
C35   N5    S    
C31   O2    D    
C12   C25   S    
C12   C39   S    
C2    C3    A    
O12   Zn2   S    
C27   C42   T    
C33   N4    S    
C23   C39   S    
C15   H25   S    
C19   N1    A    
C10   C11   A    
C24   N4    S    
C20   C21   A    
C16   O9    A    
C1    O1    A    
C14   C15   A    
O1    Zn1   S    
C36   H18   S    
C26   C41   T    
