data_mof_unit_45572.cif
_audit_creation_date              2012-10-26T19:46:30-0400
_audit_creation_method            fapswitch 2.2
_symmetry_space_group_name_H-M    P1
_symmetry_Int_Tables_number       1
_space_group_crystal_system       triclinic
_cell_length_a                    10.902264
_cell_length_b                    9.698489
_cell_length_c                    15.166007
_cell_angle_alpha                 90.348836
_cell_angle_beta                  101.104495
_cell_angle_gamma                 91.535079
_cell_volume                      1572.8939642

loop_
_atom_site_label
_atom_site_type_symbol
_atom_type_description
_atom_site_fract_x
_atom_site_fract_y
_atom_site_fract_z
_atom_type_partial_charge
C1    C     C_R   0.264661 0.498468 0.508302 0.612789
C2    C     C_R   0.944130 0.629418 0.501040 0.197505
C3    C     C_R   0.931577 0.378040 0.482558 0.166037
C4    C     C_R   0.073915 0.619930 0.531634 0.219529
C5    C     C_R   0.470107 0.620678 0.092015 -0.099585
C6    C     C_R   0.458414 0.383398 0.898510 -0.088932
C7    C     C_R   0.535811 0.620751 0.909540 -0.098937
C8    C     C_R   0.532994 0.382650 0.098675 -0.096331
C9    C     C_R   0.473068 0.620425 0.184040 -0.093926
C10   C     C_R   0.459060 0.382706 0.806945 -0.052931
C11   C     C_R   0.533647 0.620767 0.817613 -0.077567
C12   C     C_R   0.736235 0.501846 0.492792 0.599990
C13   C     C_R   0.533059 0.381734 0.190339 -0.062978
C14   C     C_R   0.502705 0.500381 0.233784 0.016655
C15   C     C_R   0.497066 0.501215 0.765888 0.038816
C16   C     C_R   0.500266 0.501765 0.048402 0.028200
C17   C     C_R   0.498087 0.502020 0.950926 0.028102
C18   C     C_R   0.870729 0.504843 0.486304 -0.084389
C19   C     C_R   0.132411 0.496142 0.519533 -0.066750
C20   C     C_R   0.501905 0.499859 0.330390 0.574889
C21   C     C_R   0.498402 0.500321 0.669552 0.588538
C22   C     C_R   0.417826 0.071977 0.433832 0.287627
C23   C     C_R   0.584090 0.927719 0.564141 0.302266
C24   C     C_R   0.583105 0.078515 0.565531 0.310377
C25   C     C_R   0.415844 0.921087 0.435501 0.301543
C26   C     C_R   0.060943 0.373093 0.511323 0.183112
Cu1   Cu    Cu3+1 0.500000 0.640660 0.500000 1.229653
Cu2   Cu    Cu3+1 0.500000 0.359340 0.500000 1.219988
H1    H     H_    0.442749 0.713598 0.055031 0.139139
H2    H     H_    0.801062 0.660662 0.696939 0.359815
H3    H     H_    0.759454 0.366949 0.720095 0.350189
H4    H     H_    0.201561 0.638286 0.298225 0.356668
H5    H     H_    0.264495 0.093136 0.546802 0.355580
H6    H     H_    0.911070 0.831790 0.298104 0.398430
H7    H     H_    0.981405 0.222030 0.324183 0.353827
H8    H     H_    0.108826 0.889448 0.706234 0.392928
H9    H     H_    0.425820 0.291356 0.927982 0.136345
H10   H     H_    0.568691 0.713187 0.948222 0.135629
H11   H     H_    0.559831 0.290401 0.067485 0.135383
H12   H     H_    0.450787 0.713919 0.215894 0.202803
H13   H     H_    0.428518 0.289791 0.768282 0.203696
H14   H     H_    0.562228 0.713782 0.787383 0.202049
H15   H     H_    0.558381 0.288473 0.227041 0.217763
H16   H     H_    0.240419 0.347364 0.281620 0.342654
N1    N     N_R   0.500000 0.852070 0.500000 -0.306413
N2    N     N_R   0.500000 0.147930 0.500000 -0.326418
O1    O     O_R   0.319640 0.618740 0.499990 -0.411121
O2    O     O_2   0.189599 0.090822 0.314675 -0.163613
O3    O     O_3   0.281092 0.323393 0.343618 -0.497557
O4    O     O_2   0.825677 0.887546 0.614556 -0.140316
O5    O     O_2   0.707170 0.897608 0.736389 -0.251464
O6    O     O_3   0.718596 0.673504 0.657444 -0.523448
O7    O     O_2   0.620927 0.151619 0.740006 -0.302961
O8    O     O_2   0.811754 0.114060 0.684414 -0.138257
O9    O     O_3   0.719425 0.340472 0.657754 -0.495713
O10   O     O_2   0.172125 0.863330 0.381502 -0.156390
O11   O     O_2   0.295076 0.880184 0.262392 -0.249970
O12   O     O_R   0.680360 0.381260 0.500010 -0.405292
O13   O     O_3   0.281664 0.656487 0.340675 -0.520438
O14   O     O_2   0.220358 0.275153 0.651562 -0.335915
O15   O     O_2   0.022327 0.147539 0.606831 -0.127533
O16   O     O_3   0.187450 0.123601 0.507010 -0.388618
O17   O     O_2   0.763356 0.812016 0.423127 -0.237417
O18   O     O_2   0.976061 0.901524 0.473247 -0.057847
O19   O     O_3   0.928130 0.744657 0.331426 -0.517602
O20   O     O_2   0.803357 0.135304 0.476222 -0.143085
O21   O     O_2   0.752358 0.284816 0.345959 -0.335431
O22   O     O_3   0.959113 0.154575 0.367702 -0.387795
O23   O     O_R   0.680360 0.618740 0.500010 -0.419316
O24   O     O_2   0.246335 0.663479 0.681591 -0.307109
O25   O     O_2   0.225811 0.844639 0.569222 -0.238268
O26   O     O_3   0.056365 0.819747 0.667015 -0.427452
O27   O     O_R   0.319640 0.381260 0.499990 -0.430378
O28   O     O_R   0.499990 0.618780 0.371460 -0.460810
O29   O     O_R   0.500010 0.381220 0.628540 -0.462325
O30   O     O_R   0.500010 0.618780 0.628540 -0.448787
O31   O     O_R   0.499990 0.381220 0.371460 -0.438896
O32   O     O_2   0.380065 0.140890 0.259589 -0.290698
S1    S     S_3+6 0.317200 0.157301 0.338720 0.124317
S2    S     S_3+6 0.706692 0.843917 0.643229 0.124032
S3    S     S_3+6 0.683803 0.171769 0.660934 0.133341
S4    S     S_3+6 0.293287 0.828000 0.355190 0.119744
S5    S     S_3+6 0.122813 0.227382 0.572493 0.124306
S6    S     S_3+6 0.898708 0.777557 0.434206 0.143105
S7    S     S_3+6 0.856230 0.235753 0.417597 0.116207
S8    S     S_3+6 0.155136 0.739444 0.613222 0.093412

loop_
_geom_bond_atom_site_label_1
_geom_bond_atom_site_label_2
_ccdc_geom_bond_type
H16   O3    S    
O16   S5    S    
C8    C13   A    
C23   N1    A    
C3    S7    S    
C2    S6    S    
O13   S4    S    
C9    C14   A    
O20   S7    D    
C7    C11   A    
C21   O30   A    
Cu2   N2    S    
C26   S5    S    
C20   O31   A    
C3    C18   A    
O2    S1    D    
C22   S1    S    
H5    O16   S    
C10   C15   A    
O14   S5    D    
C2    C18   A    
C11   H14   S    
O7    S3    D    
C19   C26   A    
O5    S2    D    
O18   S6    D    
C5    C16   A    
C4    C19   A    
C11   C15   A    
C16   C17   S    
C7    C17   A    
C22   C25   A    
C23   C24   A    
C8    H11   S    
C23   S2    S    
O9    S3    S    
Cu1   O28   S    
Cu1   O23   S    
C12   O12   A    
Cu1   N1    S    
C8    C16   A    
C13   C14   A    
C10   H13   S    
O22   S7    S    
Cu2   O27   S    
H6    O19   S    
C5    H1    S    
O21   S7    D    
C1    C19   S    
C14   C20   S    
O15   S5    D    
O32   S1    D    
C1    O1    A    
O19   S6    S    
C9    H12   S    
O3    S1    S    
C2    C4    A    
C24   S3    S    
C5    C9    A    
O25   S8    D    
C6    H9    S    
C20   O28   A    
Cu2   O31   S    
C22   N2    A    
C12   O23   A    
C25   S4    S    
Cu1   O30   S    
O24   S8    D    
C25   N1    A    
C13   H15   S    
Cu1   O1    S    
C6    C17   A    
H2    O6    S    
C3    C26   A    
O4    S2    D    
C6    C10   A    
O26   S8    S    
O10   S4    D    
Cu2   O12   S    
C21   O29   A    
O17   S6    D    
C1    O27   A    
C24   N2    A    
H7    O22   S    
C7    H10   S    
C15   C21   S    
C4    S8    S    
C12   C18   S    
Cu1   Cu2   S    
O11   S4    D    
H4    O13   S    
H3    O9    S    
O6    S2    S    
Cu2   O29   S    
O8    S3    D    
H8    O26   S    
