data_mof_unit_27699.cif
_audit_creation_date              2012-12-11T17:41:43-0500
_audit_creation_method            fapswitch 2.2
_symmetry_space_group_name_H-M    P1
_symmetry_Int_Tables_number       1
_space_group_crystal_system       triclinic
_cell_length_a                    15.646594
_cell_length_b                    15.116709
_cell_length_c                    14.902273
_cell_angle_alpha                 109.656112
_cell_angle_beta                  121.59876
_cell_angle_gamma                 58.293992
_cell_volume                      2545.05163468

loop_
_atom_site_label
_atom_site_type_symbol
_atom_type_description
_atom_site_fract_x
_atom_site_fract_y
_atom_site_fract_z
_atom_type_partial_charge
C1    C     C_R   0.803970 0.938081 0.774571 -0.129013
C2    C     C_R   0.127762 0.360445 0.059064 -0.118759
C3    C     C_R   0.746897 0.872658 0.029933 -0.159135
C4    C     C_R   0.237528 0.312469 0.071596 -0.157656
C5    C     C_R   0.716408 0.979728 0.038974 0.106990
C6    C     C_R   0.278764 0.213415 0.020447 0.112587
C7    C     C_R   0.796153 0.013104 0.066575 -0.171202
C8    C     C_R   0.208304 0.163731 0.955640 -0.178483
C9    C     C_R   0.904881 0.939635 0.082469 -0.120354
C10   C     C_R   0.099002 0.211620 0.944184 -0.124048
C11   C     C_R   0.934476 0.832959 0.072023 -0.112880
C12   C     C_R   0.251393 0.002738 0.208201 -0.121736
C13   C     C_R   0.058779 0.309893 0.995907 -0.092755
C14   C     C_R   0.594463 0.081166 0.123492 -0.263624
C15   C     C_R   0.403608 0.151848 0.939354 -0.233484
C16   C     C_R   0.199587 0.275722 0.441676 -0.139709
C17   C     C_R   0.754185 0.710383 0.506104 -0.113775
C18   C     C_R   0.491353 0.116153 0.121194 0.039982
C19   C     C_R   0.506116 0.086220 0.934424 0.067651
C20   C     C_R   0.393403 0.162931 0.030264 0.021294
C21   C     C_R   0.604255 0.055940 0.030308 0.028199
C22   C     C_2   0.021056 0.349090 0.460473 -0.219053
C23   C     C_R   0.136806 0.275492 0.480962 0.150709
C24   C     C_2   0.846335 0.603801 0.381628 -0.219342
C25   C     C_2   0.959908 0.418608 0.388720 -0.107439
C26   C     C_2   0.863479 0.512186 0.396295 -0.102762
C27   C     C_2   0.982219 0.956965 0.844871 -0.226593
C28   C     C_2   0.174511 0.868751 0.099428 -0.231644
C29   C     C_R   0.306714 0.826276 0.755561 -0.208361
C30   C     C_R   0.688829 0.254293 0.295191 -0.215527
C31   C     C_R   0.388563 0.738801 0.727247 0.223328
C32   C     C_R   0.614008 0.323358 0.340109 0.219829
C33   C     C_R   0.355798 0.682522 0.627488 0.076011
C34   C     C_R   0.785300 0.701315 0.430367 0.145307
C35   C     C_R   0.655609 0.345999 0.450824 0.071913
C36   C     C_R   0.241557 0.713147 0.560306 -0.225778
C37   C     C_R   0.771200 0.299410 0.514167 -0.234135
C38   C     C_R   0.161216 0.799277 0.590235 -0.096974
C39   C     C_R   0.844392 0.229510 0.468563 -0.113176
C40   C     C_R   0.593447 0.227363 0.521014 -0.194781
C41   C     C_R   0.410941 0.784075 0.517332 -0.201940
C42   C     C_R   0.193738 0.856095 0.687453 -0.107683
C43   C     C_R   0.803252 0.207175 0.359132 -0.107367
C44   C     C_R   0.437651 0.496956 0.561176 -0.274242
C45   C     C_R   0.500338 0.318720 0.484098 0.027876
C46   C     C_R   0.586327 0.521206 0.534057 -0.270889
C47   C     C_R   0.503921 0.416665 0.511622 0.110432
C48   C     C_R   0.513175 0.605102 0.574354 0.097629
C49   C     C_R   0.581691 0.427331 0.501013 0.048020
C50   C     C_R   0.438406 0.593891 0.589810 0.042961
C51   C     C_2   0.047321 0.885165 0.914745 -0.103459
C52   C     C_2   0.145849 0.893094 0.006180 -0.101767
C53   C     C_R   0.409177 0.050433 0.733470 -0.122044
C54   C     C_R   0.588430 0.019065 0.284442 -0.122419
C55   C     C_R   0.406265 0.301335 0.436195 0.183913
C56   C     C_R   0.505195 0.704690 0.578109 0.032474
C57   C     C_R   0.594414 0.716306 0.597002 0.157794
C58   C     C_R   0.594655 0.979461 0.806254 -0.145316
C59   C     C_R   0.404637 0.091360 0.210575 -0.171688
C60   C     C_R   0.198157 0.185138 0.531457 -0.153553
C61   C     C_R   0.755792 0.801187 0.415399 -0.150837
C62   C     C_R   0.801684 0.031645 0.684880 -0.149694
C63   C     C_R   0.251570 0.910296 0.298660 -0.148330
C64   C     C_R   0.865691 0.978004 0.773924 0.147210
C65   C     C_R   0.225994 0.923620 0.198200 0.144259
C66   C     C_3   0.550583 0.619288 0.856210 -0.945441
C67   C     C_R   0.503935 0.042141 0.829334 0.044306
C68   C     C_3   0.455582 0.471846 0.244485 -0.929957
C69   C     C_3   0.238261 0.459831 0.358303 -0.987513
C70   C     C_3   0.714232 0.679966 0.781996 -0.926921
C71   C     C_R   0.493717 0.077364 0.201196 0.081744
C72   C     C_R   0.855589 0.799601 0.045911 -0.112640
H1    H     H_    0.834434 0.880426 0.824474 0.106527
H2    H     H_    0.289411 0.352939 0.120194 0.128225
H3    H     H_    0.774283 0.095549 0.076434 0.116170
H4    H     H_    0.238464 0.087671 0.914868 0.109651
H5    H     H_    0.966096 0.965790 0.103953 0.127908
H6    H     H_    0.045340 0.172782 0.894845 0.101596
H7    H     H_    0.670631 0.055504 0.194910 0.137075
H8    H     H_    0.328424 0.185364 0.869453 0.128626
H9    H     H_    0.821245 0.508347 0.432947 0.129390
H10   H     H_    0.990580 0.416514 0.337126 0.126117
H11   H     H_    0.889868 0.606428 0.345490 0.131592
H12   H     H_    0.241780 0.033710 0.146362 0.099195
H13   H     H_    0.989231 0.352449 0.511825 0.135393
H14   H     H_    0.131321 0.923056 0.710332 0.107750
H15   H     H_    0.860122 0.154117 0.323665 0.118858
H16   H     H_    0.171677 0.327888 0.387702 0.106848
H17   H     H_    0.765702 0.648277 0.537067 0.081610
H18   H     H_    0.330668 0.870416 0.831332 0.113241
H19   H     H_    0.658378 0.238757 0.210257 0.131726
H20   H     H_    0.214603 0.671469 0.483572 0.136059
H21   H     H_    0.804520 0.317828 0.599042 0.128781
H22   H     H_    0.073554 0.822470 0.537561 0.112917
H23   H     H_    0.144108 0.820691 0.102922 0.126083
H24   H     H_    0.933224 0.193798 0.517995 0.107768
H25   H     H_    0.383733 0.484602 0.575555 0.151492
H26   H     H_    0.640366 0.530922 0.517333 0.122340
H27   H     H_    0.680077 0.212270 0.560105 0.124419
H28   H     H_    0.325269 0.802036 0.491885 0.123278
H29   H     H_    0.322995 0.091889 0.719801 0.093200
H30   H     H_    0.673622 0.003357 0.311617 0.089098
H31   H     H_    0.681057 0.958353 0.856791 0.134593
H32   H     H_    0.318456 0.143761 0.171474 0.121189
H33   H     H_    0.167133 0.153919 0.557490 0.090002
H34   H     H_    0.012002 0.008183 0.845776 0.120592
H35   H     H_    0.768148 0.822384 0.362087 0.102060
H36   H     H_    0.830697 0.059091 0.652628 0.092218
H37   H     H_    0.242597 0.854398 0.318985 0.103982
H38   H     H_    0.177282 0.939846 0.001696 0.126943
H39   H     H_    0.018665 0.833697 0.915094 0.131057
H40   H     H_    0.520325 0.768237 0.850234 0.164642
H41   H     H_    0.640246 0.598583 0.909093 0.247381
H42   H     H_    0.543915 0.550307 0.800205 0.264775
H43   H     H_    0.507379 0.639055 0.905144 0.257630
H44   H     H_    0.473561 0.320807 0.208366 0.168208
H45   H     H_    0.018568 0.775687 0.085073 0.095315
H46   H     H_    0.363919 0.503346 0.196111 0.247144
H47   H     H_    0.494534 0.466669 0.197242 0.252006
H48   H     H_    0.472604 0.526828 0.315621 0.263458
H49   H     H_    0.263976 0.305690 0.299208 0.162105
H50   H     H_    0.278261 0.506130 0.365860 0.276798
H51   H     H_    0.220887 0.477906 0.427356 0.249777
H52   H     H_    0.157353 0.482682 0.286858 0.241404
H53   H     H_    0.754740 0.599230 0.657030 0.151009
H54   H     H_    0.692223 0.622186 0.784174 0.267404
H55   H     H_    0.659841 0.760009 0.803397 0.259430
H56   H     H_    0.973942 0.347164 0.986535 0.104024
H57   H     H_    0.801796 0.661762 0.841083 0.243259
H58   H     H_    0.878990 0.717169 0.039068 0.107985
H59   H     H_    0.095858 0.437138 0.097783 0.109454
H60   H     H_    0.686535 0.846178 0.010997 0.115842
N1    N     N_R   0.705410 0.966550 0.689210 -0.044507
N2    N     N_R   0.556610 0.796750 0.548620 -0.062342
N3    N     N_R   0.556610 0.951620 0.703500 -0.037852
N4    N     N_R   0.443390 0.048380 0.296500 -0.043223
N5    N     N_R   0.294590 0.131500 0.522480 -0.038711
N6    N     N_R   0.705410 0.868500 0.477520 -0.042825
N7    N     N_R   0.705410 0.023370 0.632390 -0.038619
N8    N     N_R   0.294590 0.976630 0.367610 -0.040174
N9    N     N_2   0.502868 0.707551 0.799845 -0.119625
N10   N     N_2   0.497722 0.369656 0.273711 -0.114161
N11   N     N_2   0.307599 0.349763 0.345832 -0.105867
N12   N     N_R   0.294590 0.033450 0.310790 -0.047539
N13   N     N_2   0.704625 0.672867 0.678315 -0.114115
N14   N     N_R   0.294590 0.188320 0.465660 -0.048907
N15   N     N_R   0.705410 0.811680 0.534340 -0.044243
N16   N     N_R   0.556610 0.157790 0.497330 -0.047828
N17   N     N_R   0.443390 0.842210 0.502670 -0.048701
N18   N     N_R   0.443390 0.997080 0.657540 -0.037607
N19   N     N_R   0.556610 0.002920 0.342460 -0.037649
N20   N     N_R   0.443390 0.203250 0.451380 -0.077326
Ni1   Ni    Ni4+2 0.629830 0.882720 0.617850 0.228800
Ni2   Ni    Ni4+2 0.370170 0.117280 0.382150 0.200326
Ni3   Ni    Ni4+2 0.629830 0.013030 0.487540 0.209556
Ni4   Ni    Ni4+2 0.370170 0.986970 0.512460 0.211980

loop_
_geom_bond_atom_site_label_1
_geom_bond_atom_site_label_2
_ccdc_geom_bond_type
C70   H55   S    
N6    Ni3   S    
C63   C65   A    
C63   H37   S    
C66   H41   S    
C57   N13   S    
C29   C42   A    
C63   N8    A    
C14   C18   A    
C40   H27   S    
C10   H6    S    
C55   N20   A    
C47   C49   A    
C66   N9    S    
C15   C19   A    
C46   C49   A    
C28   H23   S    
N1    Ni1   S    
C59   H32   S    
C14   C21   A    
C35   C37   A    
C24   H11   S    
C24   C26   D    
C38   C42   A    
C68   H47   S    
C61   N6    A    
N2    Ni1   S    
C41   N17   A    
C69   H51   S    
C59   N4    A    
C8    H4    S    
C33   C36   A    
C56   C57   A    
C12   H12   S    
C16   N14   A    
C22   H13   S    
C2    C13   A    
H49   N11   S    
C62   C64   A    
C68   H46   S    
C13   H56   S    
C54   C71   A    
C53   H29   S    
C22   C25   D    
C35   C49   S    
C31   C33   A    
C19   C67   S    
C42   H14   S    
N16   Ni3   S    
C52   H38   S    
C62   N7    A    
C4    H2    S    
C44   C47   A    
C60   N5    A    
C16   C23   A    
C70   H54   S    
C48   C50   A    
C46   H26   S    
N15   Ni1   S    
N18   Ni4   S    
C23   C60   A    
C15   C20   A    
C1    N1    A    
C27   H34   S    
C29   H18   S    
C27   C51   D    
C45   C47   S    
C40   C45   A    
C62   H36   S    
C46   C48   A    
C55   N11   S    
C66   H43   S    
C40   N16   A    
C51   C52   S    
C32   C35   A    
N8    N12   A    
N5    N14   A    
C17   H17   S    
C4    C6    A    
C5    C7    A    
C11   C72   A    
C39   C43   A    
C69   H52   S    
C25   C26   S    
N2    N17   A    
C70   H57   S    
C24   C34   S    
C12   N12   A    
N5    Ni4   S    
H40   N9    S    
C31   N9    S    
C2    C4    A    
C41   C56   A    
N4    Ni2   S    
C44   H25   S    
C15   H8    S    
N14   Ni2   S    
N7    Ni3   S    
N6    N15   A    
C38   H22   S    
C2    H59   S    
C41   H28   S    
C37   H21   S    
C70   N13   S    
C9    H5    S    
C14   H7    S    
C68   N10   S    
C9    C11   A    
N8    Ni4   S    
H44   N10   S    
C30   C43   A    
C6    C8    A    
C8    C10   A    
N20   Ni2   S    
N1    N7    A    
C26   H9    S    
N19   Ni3   S    
C53   N18   A    
C57   N2    A    
C17   C34   A    
C11   H45   S    
C1    C64   A    
N4    N19   A    
C44   C50   A    
C18   C71   S    
C48   C56   S    
C51   H39   S    
C66   H42   S    
C17   N15   A    
C32   N10   S    
C54   H30   S    
N16   N20   A    
C30   H19   S    
C3    C5    A    
C10   C13   A    
C7    H3    S    
C3    H60   S    
C72   H58   S    
C54   N19   A    
C58   N3    A    
C69   N11   S    
N3    N18   A    
C6    C20   S    
C12   C65   A    
N3    Ni1   S    
C43   H15   S    
C36   C38   A    
C28   C65   S    
C33   C50   S    
C1    H1    S    
C29   C31   A    
H53   N13   S    
C68   H48   S    
C30   C32   A    
C28   C52   D    
C36   H20   S    
C25   H10   S    
C69   H50   S    
N17   Ni4   S    
C3    C72   A    
C18   C20   A    
C34   C61   A    
N12   Ni2   S    
C53   C67   A    
C39   H24   S    
C27   C64   S    
C7    C9    A    
C58   C67   A    
C5    C21   S    
C45   C55   A    
C37   C39   A    
C61   H35   S    
C16   H16   S    
C22   C23   S    
C58   H31   S    
C60   H33   S    
C59   C71   A    
C19   C21   A    
