data_mof_unit_34363.cif
_audit_creation_date              2012-12-10T19:03:06-0500
_audit_creation_method            fapswitch 2.2
_symmetry_space_group_name_H-M    P1
_symmetry_Int_Tables_number       1
_space_group_crystal_system       triclinic
_cell_length_a                    10.74241
_cell_length_b                    10.912484
_cell_length_c                    9.545299
_cell_angle_alpha                 90.129309
_cell_angle_beta                  90.163638
_cell_angle_gamma                 90.496991
_cell_volume                      1118.91125003

loop_
_atom_site_label
_atom_site_type_symbol
_atom_type_description
_atom_site_fract_x
_atom_site_fract_y
_atom_site_fract_z
_atom_type_partial_charge
C1    C     C_R   0.498399 0.262453 0.498855 0.814464
C2    C     C_3   0.878045 0.493673 0.498906 0.109078
C3    C     C_3   0.928377 0.624793 0.526517 -0.432253
C4    C     C_3   0.928196 0.449294 0.354985 -0.389083
C5    C     C_R   0.517462 0.064279 0.617881 0.090657
C6    C     C_R   0.500206 0.129254 0.493909 -0.230394
C7    C     C_R   0.488923 0.062582 0.366122 0.045285
C8    C     C_R   0.481346 0.934901 0.368956 0.479920
C9    C     C_R   0.494636 0.870913 0.497126 -0.266598
C10   C     C_R   0.516548 0.937882 0.619872 0.048128
C11   C     C_3   0.448283 0.935531 0.756653 -0.437456
C12   C     C_R   0.259848 0.497209 0.499782 0.794715
C13   C     C_3   0.449311 0.074299 0.753200 -0.420299
C14   C     C_R   0.601599 0.541786 0.074098 0.235262
C15   C     C_R   0.404723 0.448552 0.073954 -0.097836
C16   C     C_R   0.404385 0.449138 0.925184 -0.090345
C17   C     C_R   0.603436 0.537218 0.926311 0.212704
C18   C     C_3   0.666406 0.658605 0.914426 -0.085736
C19   C     C_3   0.653267 0.669992 0.073093 -0.149868
C20   C     C_R   0.496361 0.737533 0.499762 0.856376
C21   C     C_R   0.740055 0.495655 0.499847 0.774918
C22   C     C_3   0.071647 0.401321 0.607381 -0.500479
C23   C     C_3   0.928199 0.405755 0.613077 -0.386771
C24   C     C_3   0.072047 0.624965 0.539450 0.387124
C25   C     C_3   0.070851 0.458282 0.352418 -0.371479
C26   C     C_3   0.121741 0.495923 0.499256 0.103640
Cu1   Cu    Cu3+1 0.499990 0.499980 0.640670 0.937974
Cu2   Cu    Cu3+1 0.500010 0.500020 0.359330 0.940962
H1    H     H_    0.109635 0.420920 0.713765 0.169937
H2    H     H_    0.890869 0.505263 0.267854 0.208760
H3    H     H_    0.899099 0.685773 0.439461 0.179486
H4    H     H_    0.353579 0.894747 0.748536 0.181984
H5    H     H_    0.505294 0.899794 0.844205 0.195531
H6    H     H_    0.355053 0.114342 0.740783 0.181373
H7    H     H_    0.507718 0.116422 0.837067 0.205895
H8    H     H_    0.326758 0.408275 0.129110 0.132430
H9    H     H_    0.101863 0.307451 0.577811 0.173557
H10   H     H_    0.326000 0.409571 0.869445 0.135908
H11   H     H_    0.612363 0.726011 0.853710 0.165951
H12   H     H_    0.584115 0.739336 0.103190 0.215276
H13   H     H_    0.889027 0.311958 0.597299 0.160803
H14   H     H_    0.898984 0.437369 0.718747 0.191007
H15   H     H_    0.098277 0.641509 0.651511 0.069969
H16   H     H_    0.888053 0.663369 0.623465 0.156345
H17   H     H_    0.099819 0.526857 0.272415 0.204430
H18   H     H_    0.109667 0.368241 0.320286 0.144687
H19   H     H_    0.898184 0.352805 0.335690 0.162314
N1    N     N_R   0.500800 0.500930 0.147930 -0.196575
N2    N     N_R   0.500800 0.500890 0.852020 -0.200249
O1    O     O_R   0.500000 0.319640 0.618810 -0.576360
O2    O     O_R   0.500010 0.319680 0.381230 -0.599214
O3    O     O_R   0.317690 0.499960 0.618790 -0.608092
O4    O     O_R   0.317700 0.500000 0.381210 -0.586196
O5    O     O_R   0.499990 0.680320 0.618770 -0.584752
O6    O     O_R   0.500000 0.680360 0.381190 -0.539728
O7    O     O_R   0.682300 0.500000 0.618790 -0.561072
O8    O     O_R   0.682310 0.500040 0.381210 -0.592945
O9    O     O_3   0.124263 0.715589 0.450280 -0.594606
C27   C     C_3   0.123870 0.831138 0.517250 -0.411497
H20   H     H_    0.189199 0.832173 0.607439 0.162793
H21   H     H_    0.028900 0.856988 0.552081 0.168669
H22   H     H_    0.155869 0.901850 0.442038 0.183880
N3    N     N_3   0.480042 0.119785 0.231093 -0.553116
H23   H     H_    0.561134 0.170312 0.211074 0.241339
H24   H     H_    0.400990 0.174866 0.227066 0.221401
O10   O     O_3   0.467381 0.874027 0.242741 -0.578132
C28   C     C_3   0.339608 0.859929 0.212121 -0.285095
H25   H     H_    0.296755 0.790471 0.281951 0.220231
H26   H     H_    0.330031 0.825519 0.103128 0.170717
H27   H     H_    0.288465 0.948069 0.218676 0.148423
N4    N     N_3   0.794281 0.646258 0.863904 -0.586485
H28   H     H_    0.843101 0.581645 0.922895 0.239411
H29   H     H_    0.839464 0.730958 0.875018 0.215194
N5    N     N_3   0.770625 0.682332 0.149345 -0.594116
H30   H     H_    0.748376 0.691997 0.255132 0.244834
H31   H     H_    0.810868 0.766262 0.121212 0.223088

loop_
_geom_bond_atom_site_label_1
_geom_bond_atom_site_label_2
_ccdc_geom_bond_type
N3    H24   S    
C8    O10   S    
C22   H1    S    
C4    C25   S    
Cu1   O5    S    
C7    C8    A    
Cu2   O8    S    
C23   H14   S    
N5    H31   S    
C24   C26   S    
C13   H7    S    
C5    C6    A    
Cu2   O2    S    
C15   C16   A    
C18   C19   S    
C13   H6    S    
C8    C9    A    
C1    O1    A    
C5    C13   S    
C12   O4    A    
Cu1   O1    S    
O10   C28   S    
C27   H20   S    
C14   C17   A    
C3    C24   S    
C15   N1    A    
C20   O6    A    
C12   O3    A    
Cu2   O6    S    
C3    H16   S    
C27   H21   S    
N5    H30   S    
C1    C6    S    
C11   H5    S    
C16   N2    A    
C20   O5    A    
C10   C11   S    
C17   N2    A    
N4    H29   S    
Cu1   O7    S    
C14   N1    A    
O9    C27   S    
C22   H9    S    
C28   H25   S    
C12   C26   S    
C28   H26   S    
C2    C4    S    
C18   H11   S    
C21   O8    A    
C9    C20   S    
C2    C21   S    
C17   C18   S    
C3    H3    S    
C1    O2    A    
C7    N3    S    
C11   H4    S    
C25   H17   S    
C15   H8    S    
Cu1   Cu2   S    
Cu1   O3    S    
C9    C10   A    
C18   N4    S    
Cu2   N1    S    
C27   H22   S    
C14   C19   S    
C19   N5    S    
C21   O7    A    
Cu2   O4    S    
C6    C7    A    
C23   H13   S    
C28   H27   S    
C2    C3    S    
C25   C26   S    
N4    H28   S    
C11   C13   S    
C19   H12   S    
N3    H23   S    
C5    C10   A    
C24   O9    S    
C22   C26   S    
C2    C23   S    
C24   H15   S    
C22   C23   S    
C25   H18   S    
C4    H2    S    
Cu1   N2    S    
C16   H10   S    
C4    H19   S    
