data_mof_unit_48074.cif
_audit_creation_date              2012-12-11T15:35:36-0500
_audit_creation_method            fapswitch 2.2
_symmetry_space_group_name_H-M    P1
_symmetry_Int_Tables_number       1
_space_group_crystal_system       triclinic
_cell_length_a                    17.388007
_cell_length_b                    24.458262
_cell_length_c                    14.97854
_cell_angle_alpha                 90.332267
_cell_angle_beta                  125.508536
_cell_angle_gamma                 89.438577
_cell_volume                      5185.18079759

loop_
_atom_site_label
_atom_site_type_symbol
_atom_type_description
_atom_site_fract_x
_atom_site_fract_y
_atom_site_fract_z
_atom_type_partial_charge
C1    C     C_R   0.352324 0.151548 0.906477 -0.120650
C2    C     C_R   0.596230 0.124525 0.907273 -0.136363
C3    C     C_R   0.242422 0.544764 0.311681 0.353844
C4    C     C_R   0.382083 0.722846 0.901894 0.134151
C5    C     C_R   0.333168 0.730670 0.788340 -0.140151
C6    C     C_R   0.382587 0.733030 0.740948 -0.057106
C7    C     C_R   0.480953 0.727783 0.806704 -0.111656
C8    C     C_R   0.529669 0.719368 0.919513 -0.106264
C9    C     C_R   0.480415 0.716180 0.967040 -0.157680
C10   C     C_R   0.273984 0.258293 0.782898 0.119506
C11   C     C_R   0.350049 0.261750 0.774006 -0.139497
C12   C     C_R   0.336752 0.249728 0.674595 -0.102843
C13   C     C_R   0.096072 0.372517 0.908841 -0.124764
C14   C     C_R   0.247806 0.234053 0.583880 -0.031857
C15   C     C_R   0.171920 0.231068 0.592066 -0.022992
C16   C     C_R   0.184402 0.243501 0.690577 -0.168214
C17   C     C_R   0.882089 0.222895 0.901946 0.134209
C18   C     C_R   0.833228 0.230867 0.788429 -0.140148
C19   C     C_R   0.882687 0.233266 0.741090 -0.057111
C20   C     C_R   0.981040 0.227902 0.806860 -0.111643
C21   C     C_R   0.029699 0.219338 0.919626 -0.106235
C22   C     C_R   0.980405 0.216120 0.967100 -0.157812
C23   C     C_R   0.773985 0.758293 0.782899 0.119511
C24   C     C_R   0.096224 0.624532 0.907272 -0.136371
C25   C     C_R   0.850053 0.761751 0.774014 -0.139496
C26   C     C_R   0.836762 0.749729 0.674606 -0.102859
C27   C     C_R   0.747820 0.734053 0.583888 -0.031865
C28   C     C_R   0.671930 0.731066 0.592067 -0.022974
C29   C     C_R   0.684405 0.743500 0.690575 -0.168224
C30   C     C_R   0.450596 0.892404 0.384094 0.032219
C31   C     C_R   0.386121 0.851433 0.317755 -0.095724
C32   C     C_R   0.418554 0.802449 0.301847 -0.092132
C33   C     C_R   0.515233 0.793485 0.354671 -0.200674
C34   C     C_R   0.579862 0.833308 0.424720 -0.029458
C35   C     C_R   0.430958 0.999298 0.631688 0.060503
C36   C     C_R   0.547969 0.882372 0.440958 -0.116592
C37   C     C_R   0.341012 0.091147 0.288068 0.112526
C38   C     C_R   0.384215 0.142217 0.328767 -0.192508
C39   C     C_R   0.359828 0.185655 0.256496 -0.074483
C40   C     C_R   0.288709 0.179440 0.144871 -0.109498
C41   C     C_R   0.243680 0.129232 0.104229 -0.122184
C42   C     C_R   0.270092 0.085053 0.175362 -0.131813
C43   C     C_R   0.950569 0.392406 0.384076 0.032229
C44   C     C_R   0.886089 0.351439 0.317726 -0.095770
C45   C     C_R   0.918518 0.302453 0.301818 -0.092172
C46   C     C_R   0.930960 0.499300 0.631689 0.060499
C47   C     C_R   0.015197 0.293483 0.354651 -0.200646
C48   C     C_R   0.079829 0.333304 0.424705 -0.029483
C49   C     C_R   0.047941 0.382369 0.440946 -0.116607
C50   C     C_R   0.841012 0.591155 0.288071 0.112529
C51   C     C_R   0.884228 0.642222 0.328770 -0.192522
C52   C     C_R   0.859830 0.685664 0.256504 -0.074512
C53   C     C_R   0.788685 0.679457 0.144885 -0.109464
C54   C     C_R   0.743641 0.629253 0.104244 -0.122133
C55   C     C_R   0.770068 0.585069 0.175370 -0.131812
C56   C     C_R   0.755703 0.149801 0.199787 0.105032
C57   C     C_R   0.788055 0.999703 0.376427 -0.077083
C58   C     C_R   0.852468 0.139162 0.254126 -0.177332
C59   C     C_R   0.917972 0.162420 0.356679 -0.156940
C60   C     C_R   0.887449 0.198017 0.403801 -0.131251
C61   C     C_R   0.791660 0.211812 0.346398 -0.003730
C62   C     C_R   0.725917 0.188088 0.244090 -0.040146
C63   C     C_R   0.731017 0.834875 0.193781 0.151312
C64   C     C_R   0.677484 0.794787 0.200739 -0.094510
C65   C     C_R   0.717330 0.762827 0.295128 -0.078247
C66   C     C_R   0.811272 0.770718 0.383747 -0.065817
C67   C     C_R   0.865052 0.810748 0.378150 -0.071741
C68   C     C_R   0.288058 0.499701 0.376426 -0.077087
C69   C     C_R   0.824781 0.843259 0.284284 -0.135660
C70   C     C_R   0.255702 0.649803 0.199789 0.105024
C71   C     C_R   0.352465 0.639162 0.254124 -0.177321
C72   C     C_R   0.417973 0.662417 0.356679 -0.156921
C73   C     C_R   0.387456 0.698012 0.403808 -0.131287
C74   C     C_R   0.291668 0.711810 0.346410 -0.003769
C75   C     C_R   0.225920 0.688089 0.244099 -0.040141
C76   C     C_R   0.230990 0.334858 0.193765 0.151353
C77   C     C_R   0.177450 0.294760 0.200689 -0.094601
C78   C     C_R   0.217283 0.262795 0.295070 -0.078313
C79   C     C_R   0.683173 0.139186 0.997677 0.011496
C80   C     C_R   0.311217 0.270689 0.383709 -0.065822
C81   C     C_R   0.365004 0.310725 0.378141 -0.071687
C82   C     C_R   0.324747 0.343241 0.284284 -0.135622
C83   C     C_R   0.682880 0.854943 0.000159 0.019737
C84   C     C_R   0.183164 0.639195 0.997675 0.011510
C85   C     C_R   0.338430 0.853423 0.904414 -0.048609
C86   C     C_R   0.182872 0.354934 0.000158 0.019756
C87   C     C_3   0.038148 0.949122 0.603259 -0.429767
C88   C     C_3   0.036819 0.051662 0.600467 -0.438044
C89   C     C_3   0.538154 0.449115 0.603241 -0.429763
C90   C     C_3   0.536824 0.551656 0.600468 -0.438066
C91   C     C_3   0.929894 0.948908 0.528602 -0.340578
C92   C     C_3   0.928534 0.050676 0.528918 -0.337863
C93   C     C_3   0.429900 0.448903 0.528594 -0.340568
C94   C     C_3   0.428540 0.550671 0.528916 -0.337871
C95   C     C_3   0.042099 0.998943 0.458508 -0.293421
C96   C     C_R   0.852320 0.651547 0.906476 -0.120651
C97   C     C_3   0.542100 0.498947 0.458496 -0.293406
C98   C     C_3   0.077324 0.999885 0.579187 0.393353
C99   C     C_3   0.577329 0.499882 0.579177 0.393337
C100  C     C_3   0.892675 0.999774 0.453481 0.326432
C101  C     C_3   0.392679 0.499770 0.453475 0.326432
C102  C     C_R   0.435457 0.849259 0.087744 -0.107407
C103  C     C_R   0.445872 0.154164 0.088286 -0.093199
C104  C     C_R   0.935416 0.349272 0.087740 -0.107538
C105  C     C_R   0.945868 0.654163 0.088287 -0.093207
C106  C     C_3   0.934032 0.999818 0.384664 -0.488267
C107  C     C_R   0.838370 0.353449 0.904408 -0.048773
C108  C     C_3   0.434033 0.499815 0.384655 -0.488256
C109  C     C_R   0.330311 0.725864 0.952422 -0.024946
C110  C     C_R   0.289420 0.268195 0.889668 -0.004159
C111  C     C_R   0.830294 0.225894 0.952447 -0.024981
C112  C     C_R   0.789416 0.768193 0.889666 -0.004175
C113  C     C_R   0.786882 0.179672 0.956297 -0.228758
C114  C     C_R   0.728730 0.803893 0.893428 -0.221880
C115  C     C_R   0.286863 0.679656 0.956257 -0.228814
C116  C     C_R   0.228731 0.303891 0.893431 -0.221888
C117  C     C_R   0.729694 0.185041 0.992894 0.077784
C118  C     C_R   0.687393 0.126099 0.090518 0.005472
C119  C     C_R   0.752838 0.824043 0.994219 0.060251
C120  C     C_R   0.229705 0.685039 0.992892 0.077790
C121  C     C_R   0.252833 0.324036 0.994221 0.060279
C122  C     C_R   0.708662 0.235718 0.017190 -0.283212
C123  C     C_R   0.846016 0.816835 0.085889 -0.270342
C124  C     C_R   0.208722 0.735721 0.017224 -0.283208
C125  C     C_R   0.346010 0.316828 0.085896 -0.270361
C126  C     C_R   0.252481 0.781427 0.015793 0.464474
C127  C     C_R   0.403311 0.277052 0.085197 0.458227
C128  C     C_R   0.752395 0.281436 0.015756 0.464465
C129  C     C_R   0.684931 0.868526 0.093106 -0.009096
C130  C     C_R   0.903310 0.777053 0.085194 0.458212
C131  C     C_R   0.317150 0.775750 0.989501 -0.084200
C132  C     C_R   0.366993 0.245885 0.989316 -0.060535
C133  C     C_R   0.817078 0.275776 0.989484 -0.084282
C134  C     C_R   0.866987 0.745883 0.989314 -0.060537
C135  C     C_R   0.404568 0.947409 0.477608 -0.200432
C136  C     C_R   0.375508 0.044518 0.454443 -0.218600
C137  C     C_R   0.904550 0.447413 0.477595 -0.200415
C138  C     C_R   0.875513 0.544524 0.454446 -0.218593
C139  C     C_R   0.416284 0.945676 0.394571 0.034177
C140  C     C_R   0.187387 0.626105 0.090517 0.005474
C141  C     C_R   0.374935 0.042829 0.360711 0.016621
C142  C     C_R   0.916264 0.445679 0.394556 0.034172
C143  C     C_R   0.874934 0.542835 0.360709 0.016618
C144  C     C_R   0.408750 0.995024 0.339278 0.035433
C145  C     C_R   0.908740 0.495028 0.339269 0.035426
C146  C     C_R   0.483529 0.044980 0.253767 -0.019108
C147  C     C_R   0.473809 0.954711 0.239067 -0.015757
C148  C     C_R   0.983524 0.544982 0.253761 -0.019124
C149  C     C_R   0.973808 0.454712 0.239068 -0.015766
C150  C     C_R   0.398286 0.997282 0.517590 0.131512
C151  C     C_R   0.184923 0.368518 0.093104 -0.009100
C152  C     C_R   0.898283 0.497286 0.517587 0.131507
C153  C     C_R   0.237807 0.954030 0.702781 0.379490
C154  C     C_R   0.237058 0.045613 0.702600 0.383957
C155  C     C_R   0.737812 0.454030 0.702774 0.379455
C156  C     C_R   0.737061 0.545612 0.702593 0.383945
C157  C     C_R   0.387952 0.186411 0.995265 0.041968
C158  C     C_R   0.364375 0.823416 0.993940 0.084395
C159  C     C_R   0.887946 0.686409 0.995265 0.041999
C160  C     C_R   0.864288 0.323451 0.993933 0.084642
C161  C     C_R   0.449387 0.998788 0.275516 -0.028163
C162  C     C_R   0.596077 0.872522 0.908843 -0.124772
C163  C     C_R   0.949381 0.498790 0.275510 -0.028157
C164  C     C_R   0.182410 0.999817 0.649532 -0.178552
C165  C     C_R   0.682416 0.499816 0.649520 -0.178498
C166  C     C_R   0.448689 0.044958 0.695201 -0.094777
C167  C     C_R   0.448459 0.954386 0.696471 -0.111163
C168  C     C_R   0.948690 0.544959 0.695202 -0.094786
C169  C     C_R   0.948461 0.454387 0.696470 -0.111133
C170  C     C_R   0.743283 0.954824 0.311064 0.347042
C171  C     C_R   0.742420 0.044766 0.311680 0.353828
C172  C     C_R   0.243283 0.454823 0.311063 0.347020
Cl1   Cl    Cl    0.220334 0.845468 0.040414 -0.705248
Cl2   Cl    Cl    0.709191 0.096004 0.365968 -0.717215
Cl3   Cl    Cl    0.212508 0.402238 0.363746 -0.745064
Cl4   Cl    Cl    0.209196 0.596002 0.365974 -0.717255
Cl5   Cl    Cl    0.520528 0.271312 0.202272 -0.721362
Cl6   Cl    Cl    0.720212 0.345468 0.040365 -0.705215
Cl7   Cl    Cl    0.020527 0.771311 0.202267 -0.721391
Cl8   Cl    Cl    0.231013 0.893157 0.635505 -0.747428
Cl9   Cl    Cl    0.229620 0.104814 0.633225 -0.790249
Cl10  Cl    Cl    0.731031 0.393160 0.635497 -0.747516
Cl11  Cl    Cl    0.729626 0.604814 0.633223 -0.790248
Cl12  Cl    Cl    0.712511 0.902240 0.363750 -0.745097
H1    H     H_    0.312320 0.161904 0.821609 0.185718
H2    H     H_    0.902685 0.050244 0.581660 0.190189
H3    H     H_    0.768282 0.240513 0.381427 0.149880
H4    H     H_    0.651895 0.198745 0.200178 0.162337
H5    H     H_    0.604392 0.789033 0.133416 0.098433
H6    H     H_    0.675406 0.731970 0.299439 0.093582
H7    H     H_    0.842773 0.745630 0.456398 0.088866
H8    H     H_    0.937677 0.817000 0.447073 0.122482
H9    H     H_    0.865932 0.875870 0.284068 0.094766
H10   H     H_    0.376923 0.612371 0.217491 0.116843
H11   H     H_    0.492185 0.652503 0.399575 0.139590
H12   H     H_    0.438164 0.715896 0.483441 0.112233
H13   H     H_    0.401724 0.448192 0.578951 0.193155
H14   H     H_    0.268293 0.740510 0.381444 0.149872
H15   H     H_    0.151899 0.698748 0.200191 0.162346
H16   H     H_    0.104365 0.288998 0.133344 0.098530
H17   H     H_    0.175356 0.231931 0.299358 0.093603
H18   H     H_    0.342709 0.245595 0.456351 0.088861
H19   H     H_    0.437624 0.316976 0.447078 0.122444
H20   H     H_    0.365903 0.375856 0.284087 0.094752
H21   H     H_    0.402688 0.550239 0.581656 0.190182
H22   H     H_    0.906705 0.911038 0.478969 0.192889
H23   H     H_    0.901973 0.088792 0.480062 0.208009
H24   H     H_    0.406707 0.411034 0.478958 0.192868
H25   H     H_    0.401981 0.588787 0.480061 0.208004
H26   H     H_    0.068516 0.961530 0.441436 0.200212
H27   H     H_    0.069290 0.034972 0.440028 0.185418
H28   H     H_    0.568524 0.461539 0.441418 0.200207
H29   H     H_    0.290749 0.841393 0.819917 0.162414
H30   H     H_    0.569283 0.534981 0.440019 0.185416
H31   H     H_    0.908644 0.964051 0.328897 0.158973
H32   H     H_    0.909554 0.036595 0.331919 0.168389
H33   H     H_    0.408650 0.464044 0.328896 0.158979
H34   H     H_    0.409546 0.536589 0.331902 0.168382
H35   H     H_    0.796465 0.140296 0.930233 0.141269
H36   H     H_    0.664144 0.816166 0.817186 0.122014
H37   H     H_    0.296404 0.640276 0.930163 0.141271
H38   H     H_    0.164146 0.316165 0.817188 0.121994
H39   H     H_    0.657904 0.239529 0.036928 0.171050
H40   H     H_    0.812315 0.661903 0.821608 0.185714
H41   H     H_    0.874947 0.841732 0.157316 0.163860
H42   H     H_    0.157979 0.739545 0.036981 0.171052
H43   H     H_    0.374934 0.341720 0.157330 0.163855
H44   H     H_    0.415053 0.909689 0.520687 0.124082
H45   H     H_    0.360784 0.082637 0.479114 0.133645
H46   H     H_    0.915026 0.409692 0.520667 0.124081
H47   H     H_    0.860797 0.582644 0.479123 0.133647
H48   H     H_    0.478173 0.832651 0.169436 0.133081
H49   H     H_    0.490701 0.167412 0.172337 0.181394
H50   H     H_    0.978132 0.332654 0.169425 0.133099
H51   H     H_    0.790663 0.341429 0.819908 0.162358
H52   H     H_    0.990696 0.667412 0.172337 0.181389
H53   H     H_    0.480345 0.087209 0.271815 0.136127
H54   H     H_    0.451122 0.913560 0.229472 0.141998
H55   H     H_    0.980337 0.587211 0.271803 0.136114
H56   H     H_    0.951124 0.413563 0.229479 0.141971
H57   H     H_    0.431236 0.086848 0.667230 0.122418
H58   H     H_    0.428883 0.912482 0.670739 0.131650
H59   H     H_    0.931237 0.586849 0.667233 0.122424
H60   H     H_    0.928888 0.412482 0.670739 0.131633
H61   H     H_    0.568264 0.868721 0.823419 0.100762
H62   H     H_    0.063343 0.949373 0.690649 0.175059
H63   H     H_    0.566372 0.133286 0.822298 0.114069
H64   H     H_    0.068259 0.368715 0.823417 0.100738
H65   H     H_    0.066366 0.633292 0.822295 0.114060
H66   H     H_    0.062553 0.910346 0.588608 0.219291
H67   H     H_    0.058217 0.089599 0.580509 0.214895
H68   H     H_    0.562556 0.410342 0.588574 0.219288
H69   H     H_    0.558225 0.589596 0.580521 0.214886
H70   H     H_    0.257140 0.736143 0.737129 0.132670
H71   H     H_    0.344778 0.739613 0.653559 0.136812
H72   H     H_    0.519436 0.730336 0.770384 0.099726
H73   H     H_    0.064103 0.053840 0.688484 0.163274
H74   H     H_    0.605582 0.715904 0.970044 0.111861
H75   H     H_    0.518652 0.709393 0.054414 0.109130
H76   H     H_    0.419670 0.273092 0.844292 0.142630
H77   H     H_    0.395559 0.251964 0.668260 0.113164
H78   H     H_    0.237464 0.223720 0.507363 0.098486
H79   H     H_    0.103741 0.217865 0.522736 0.109850
H80   H     H_    0.125151 0.239574 0.695803 0.101649
H81   H     H_    0.757216 0.236433 0.737215 0.132715
H82   H     H_    0.844923 0.239972 0.653736 0.136844
H83   H     H_    0.019559 0.230485 0.770587 0.099711
H84   H     H_    0.563357 0.449359 0.690633 0.175055
H85   H     H_    0.105603 0.215789 0.970169 0.111869
H86   H     H_    0.018607 0.209241 0.054448 0.109186
H87   H     H_    0.919672 0.773094 0.844303 0.142617
H88   H     H_    0.895573 0.751966 0.668277 0.113164
H89   H     H_    0.737484 0.723719 0.507374 0.098483
H90   H     H_    0.603754 0.717861 0.522736 0.109856
H91   H     H_    0.625152 0.739572 0.695796 0.101648
H92   H     H_    0.311038 0.858177 0.276150 0.181782
H93   H     H_    0.368713 0.771723 0.247286 0.152620
H94   H     H_    0.539915 0.755911 0.340373 0.117116
H95   H     H_    0.564107 0.553828 0.688484 0.163275
H96   H     H_    0.654659 0.826614 0.465183 0.164975
H97   H     H_    0.598518 0.913373 0.493964 0.147641
H98   H     H_    0.440298 0.147426 0.414999 0.126714
H99   H     H_    0.396967 0.223952 0.286657 0.158003
H100  H     H_    0.269579 0.213310 0.089658 0.112353
H101  H     H_    0.189601 0.124229 0.017367 0.119973
H102  H     H_    0.236497 0.045867 0.142551 0.132906
H103  H     H_    0.811007 0.358187 0.276115 0.181806
H104  H     H_    0.868674 0.271730 0.247251 0.152622
H105  H     H_    0.039876 0.255909 0.340352 0.117125
H106  H     H_    0.901711 0.948197 0.578953 0.193153
H107  H     H_    0.154626 0.326608 0.465170 0.164970
H108  H     H_    0.098493 0.413367 0.493957 0.147637
H109  H     H_    0.940329 0.647425 0.414998 0.126717
H110  H     H_    0.896979 0.723959 0.286664 0.158015
H111  H     H_    0.769546 0.713331 0.089678 0.112336
H112  H     H_    0.689538 0.624258 0.017387 0.119985
H113  H     H_    0.736460 0.545886 0.142559 0.132903
H114  H     H_    0.876929 0.112370 0.217498 0.116837
H115  H     H_    0.992184 0.152508 0.399578 0.139591
H116  H     H_    0.938155 0.215903 0.483433 0.112238
N1    N     N_R   0.392140 0.102630 0.941800 -0.049630
N2    N     N_R   0.525160 0.972040 0.206160 -0.027569
N3    N     N_R   0.025160 0.527960 0.206160 -0.030227
N4    N     N_R   0.025160 0.472040 0.206160 -0.027561
N5    N     N_R   0.317870 0.971120 0.792790 -0.096819
N6    N     N_R   0.317870 0.028880 0.792790 -0.095022
N7    N     N_R   0.817870 0.471120 0.792790 -0.096816
N8    N     N_R   0.817870 0.528880 0.792790 -0.095021
N9    N     N_R   0.473480 0.027920 0.793480 -0.044185
N10   N     N_R   0.473480 0.972080 0.793480 -0.046545
N11   N     N_R   0.973480 0.527920 0.793480 -0.044185
N12   N     N_R   0.392140 0.897370 0.941800 -0.050934
N13   N     N_R   0.973480 0.472080 0.793480 -0.046543
N14   N     N_R   0.681610 0.971120 0.207570 -0.104444
N15   N     N_R   0.681610 0.028880 0.207570 -0.107405
N16   N     N_R   0.181610 0.471120 0.207570 -0.104444
N17   N     N_R   0.181610 0.528880 0.207570 -0.107404
N18   N     N_R   0.605410 0.102620 0.056870 -0.057537
N19   N     N_R   0.605410 0.897380 0.056870 -0.055512
N20   N     N_R   0.105410 0.602620 0.056870 -0.057535
N21   N     N_R   0.105410 0.397380 0.056870 -0.055502
N22   N     N_R   0.549680 0.896430 0.944180 -0.051198
N23   N     N_R   0.892140 0.602630 0.941800 -0.049629
N24   N     N_R   0.549680 0.103570 0.944180 -0.048959
N25   N     N_R   0.049680 0.396430 0.944180 -0.051185
N26   N     N_R   0.049680 0.603570 0.944180 -0.048955
N27   N     N_R   0.892140 0.397370 0.941800 -0.050927
N28   N     N_R   0.450890 0.896450 0.057150 -0.051087
N29   N     N_R   0.450890 0.103550 0.057150 -0.056119
N30   N     N_R   0.950890 0.396450 0.057150 -0.051093
N31   N     N_R   0.950890 0.603550 0.057150 -0.056122
N32   N     N_R   0.525160 0.027960 0.206160 -0.030231
Ni1   Ni    Ni4+2 0.433410 0.064680 0.868830 0.243623
Ni2   Ni    Ni4+2 0.433410 0.935320 0.868830 0.249695
Ni3   Ni    Ni4+2 0.933410 0.564680 0.868830 0.243626
Ni4   Ni    Ni4+2 0.933410 0.435320 0.868830 0.249687
Ni5   Ni    Ni4+2 0.565650 0.934380 0.131170 0.266797
Ni6   Ni    Ni4+2 0.565650 0.065620 0.131170 0.263008
Ni7   Ni    Ni4+2 0.065650 0.434380 0.131170 0.266815
Ni8   Ni    Ni4+2 0.065650 0.565620 0.131170 0.263007

loop_
_geom_bond_atom_site_label_1
_geom_bond_atom_site_label_2
_ccdc_geom_bond_type
C87   H66   S    
C70   C140  S    
C97   H28   S    
C87   C91   S    
C19   C20   A    
N2    N32   A    
C155  Cl10  S    
C135  C139  A    
C23   C112  S    
C166  N9    A    
C89   C99   S    
C24   H65   S    
C138  C143  A    
C5    C6    A    
N16   Ni7   S    
N21   Ni7   S    
C148  N3    A    
C60   H116  S    
C73   C74   A    
C83   C119  S    
C37   C42   A    
N20   N26   A    
C91   C100  S    
C172  Cl3   S    
C170  N14   A    
C153  Cl8   S    
C59   C60   A    
C21   C22   A    
C102  H48   S    
C130  C134  A    
C13   N25   A    
C41   H101  S    
C31   H92   S    
C20   H83   S    
N27   Ni4   S    
C156  Cl11  S    
C107  C160  A    
C45   C47   A    
C140  N20   A    
C146  C161  A    
C116  C121  A    
C51   C52   A    
C68   C101  S    
C74   C75   A    
C141  C144  A    
C93   C101  S    
C72   C73   A    
C71   H10   S    
C76   C151  S    
N14   N15   A    
C96   N23   A    
C90   H95   S    
C131  C158  S    
N9    Ni1   S    
C2    H63   S    
C37   C38   A    
N2    Ni5   S    
N3    N4    A    
C167  H58   S    
C86   C121  S    
C69   H9    S    
C111  C113  A    
C42   H102  S    
C46   C168  A    
C88   H73   S    
C19   H82   S    
C108  H33   S    
C155  N7    A    
C119  C123  A    
C97   H30   S    
C56   C62   A    
C85   C158  A    
C169  H60   S    
C47   H105  S    
C110  C116  A    
C91   H22   S    
C62   H4    S    
C147  H54   S    
C170  Cl12  S    
C95   H26   S    
C111  C133  A    
C114  H36   S    
C137  H46   S    
C6    C7    A    
C123  H41   S    
C1    H1    S    
C106  H32   S    
C136  H45   S    
C100  C106  S    
C132  C157  S    
C30   C36   A    
C133  C160  S    
C168  N11   A    
C48   H107  S    
C10   C16   A    
C32   C33   A    
C155  C165  A    
C6    H71   S    
C3    N17   A    
C8    H74   S    
C15   H79   S    
C3    Cl4   S    
C13   H64   S    
C20   C21   A    
C73   H12   S    
C125  C127  A    
C166  H57   S    
C43   C142  S    
C32   H93   S    
C54   H112  S    
C99   C165  S    
C137  C142  A    
C89   H68   S    
C7    H72   S    
N30   Ni7   S    
C102  C158  A    
C112  C114  A    
C7    C8    A    
C53   C54   A    
C118  N18   A    
C45   H104  S    
C23   C29   A    
C154  C164  A    
C36   H97   S    
C83   C129  A    
C38   C39   A    
C78   C80   A    
C79   C118  A    
N5    Ni2   S    
N1    N29   A    
N20   Ni8   S    
C14   H78   S    
C63   C69   A    
N12   N28   A    
C103  N29   A    
C35   C150  S    
C114  C119  A    
C27   H89   S    
C162  N22   A    
C104  H50   S    
C66   C67   A    
C17   C111  S    
C58   H114  S    
C85   N12   A    
C33   H94   S    
C105  N31   A    
C167  N10   A    
C76   C82   A    
C39   C40   A    
C67   H8    S    
C145  C163  S    
C25   C26   A    
C93   H13   S    
C117  C122  A    
C121  C125  A    
C136  C150  A    
C95   C106  S    
C31   C32   A    
C171  N15   A    
C17   C18   A    
C25   H87   S    
C113  C117  A    
C83   C162  A    
N11   N13   A    
C123  C130  A    
C26   H88   S    
C90   C99   S    
C52   C53   A    
C89   H84   S    
C124  C126  A    
C57   C170  A    
C44   H103  S    
C54   C55   A    
C40   H100  S    
C30   C139  S    
C75   H15   S    
C135  C150  A    
N18   N24   A    
C95   H27   S    
C162  H61   S    
C71   C72   A    
C92   H23   S    
C64   C65   A    
C56   C58   A    
C34   C36   A    
C116  H38   S    
C61   C62   A    
C77   H16   S    
C10   C11   A    
C63   C64   A    
C4    C5    A    
C96   C159  A    
C128  Cl6   S    
C70   C75   A    
C14   C15   A    
N25   Ni4   S    
C4    C9    A    
C93   H24   S    
C88   C98   S    
C29   H91   S    
C144  C161  S    
C41   C42   A    
C3    C68   A    
N13   Ni4   S    
C78   H17   S    
C4    C109  S    
C151  N21   A    
C64   H5    S    
C21   H85   S    
C77   C78   A    
N10   Ni2   S    
C26   C27   A    
C37   C141  S    
C172  N16   A    
C28   C29   A    
C30   C31   A    
C154  Cl9   S    
C61   H3    S    
C35   C166  A    
N12   Ni2   S    
C18   C19   A    
N7    Ni4   S    
C34   H96   S    
C2    C79   A    
C55   H113  S    
C80   H18   S    
C109  C131  A    
C137  C152  A    
C110  C132  A    
C70   C71   A    
C87   C98   S    
C108  H34   S    
C101  C108  S    
C154  N6    A    
C103  H49   S    
C142  C145  A    
C104  C160  A    
C90   C94   S    
C171  Cl2   S    
N7    N8    A    
C127  Cl5   S    
N23   Ni3   S    
C147  C161  A    
C138  C152  A    
C58   C59   A    
C60   C61   A    
C28   H90   S    
C84   C120  S    
C50   C51   A    
C24   N26   A    
C126  Cl1   S    
C88   H67   S    
C59   H115  S    
C48   C49   A    
C2    N24   A    
C122  H39   S    
C9    H75   S    
C105  H52   S    
N14   Ni5   S    
N6    Ni1   S    
C44   C45   A    
N24   Ni1   S    
N26   Ni3   S    
C56   C118  S    
C115  H37   S    
C103  C157  A    
N17   Ni8   S    
C104  N30   A    
C18   H81   S    
C124  H42   S    
C17   C22   A    
N4    Ni7   S    
C11   H76   S    
C86   C151  A    
C68   C172  A    
C105  C159  A    
C156  C165  A    
C79   C117  S    
C112  C134  A    
C10   C110  S    
C92   H2    S    
C12   H77   S    
C63   C129  S    
C122  C128  A    
C38   H98   S    
C65   H6    S    
N5    N6    A    
N16   N17   A    
C146  N32   A    
C125  H43   S    
C46   C152  S    
C91   H106  S    
C148  H55   S    
N15   Ni6   S    
C43   C44   A    
C72   H11   S    
C81   C82   A    
C95   C98   S    
C169  N13   A    
C81   H19   S    
N9    N10   A    
C106  H31   S    
C156  N8    A    
C136  C141  A    
C138  H47   S    
C153  N5    A    
N31   Ni8   S    
C168  H59   S    
C15   C16   A    
C149  H56   S    
C127  C132  A    
C97   C108  S    
N19   N22   A    
C88   C92   S    
C94   C101  S    
C39   H99   S    
C8    C9    A    
C96   H40   S    
C13   C86   A    
C35   C167  A    
C149  C163  A    
C102  N28   A    
N8    Ni3   S    
N28   Ni5   S    
C22   H86   S    
C134  C159  S    
N18   Ni6   S    
C147  N2    A    
C89   C93   S    
C1    N1    A    
C94   H21   S    
C97   C99   S    
N22   Ni2   S    
C135  H44   S    
C153  C164  A    
C74   H14   S    
C76   C77   A    
N32   Ni6   S    
C43   C49   A    
C57   C100  S    
C67   C69   A    
C5    H70   S    
C85   H29   S    
N11   Ni3   S    
C139  C144  A    
C47   C48   A    
C146  H53   S    
C149  N4    A    
C66   H7    S    
C33   C34   A    
N3    Ni8   S    
C107  N27   A    
C129  N19   A    
C40   C41   A    
N19   Ni5   S    
C90   H69   S    
C12   C14   A    
C65   C66   A    
N23   N31   A    
N29   Ni6   S    
C50   C143  S    
C92   C100  S    
C87   H62   S    
C143  C145  A    
C107  H51   S    
C148  C163  A    
C80   C81   A    
C49   H108  S    
N27   N30   A    
C98   C164  S    
C11   C12   A    
C50   C55   A    
C46   C169  A    
C1    C157  A    
C24   C84   A    
C128  C133  A    
C82   H20   S    
C126  C131  A    
N21   N25   A    
C53   H111  S    
C23   C25   A    
C51   H109  S    
C130  Cl7   S    
C109  C115  A    
C16   H80   S    
C84   C140  A    
C94   H25   S    
C115  C120  A    
C27   C28   A    
N1    Ni1   S    
C52   H110  S    
C113  H35   S    
C120  C124  A    
C57   C171  A    
