data_mof_unit_60493.cif
_audit_creation_date              2012-12-10T18:36:59-0500
_audit_creation_method            fapswitch 2.2
_symmetry_space_group_name_H-M    P1
_symmetry_Int_Tables_number       1
_space_group_crystal_system       triclinic
_cell_length_a                    30.24174
_cell_length_b                    21.310496
_cell_length_c                    21.341449
_cell_angle_alpha                 90.09471
_cell_angle_beta                  135.146924
_cell_angle_gamma                 89.867768
_cell_volume                      9700.44273888

loop_
_atom_site_label
_atom_site_type_symbol
_atom_type_description
_atom_site_fract_x
_atom_site_fract_y
_atom_site_fract_z
_atom_type_partial_charge
C1    C     C_R   0.121640 0.500510 0.121837 0.882681
C2    C     C_3   0.500267 0.810701 0.999969 0.014628
C3    C     C_3   0.499563 0.499916 0.188790 -0.093675
C4    C     C_3   0.000299 0.770714 0.941591 -0.150167
C5    C     C_3   0.983741 0.229152 0.926803 -0.137934
C6    C     C_3   0.502492 0.270697 0.943744 -0.141920
C7    C     C_3   0.454244 0.729393 0.915857 -0.165285
C8    C     C_3   0.000093 0.810727 0.000955 0.020258
C9    C     C_3   0.000142 0.189290 0.000546 0.025827
C10   C     C_3   0.500151 0.310732 0.000907 0.023022
C11   C     C_3   0.500104 0.689275 0.999806 0.027753
C12   C     C_3   0.051515 0.770540 0.082520 -0.156337
C13   C     C_3   0.229385 0.440772 0.226262 -0.263842
C14   C     C_3   0.057994 0.229323 0.072933 -0.162289
C15   C     C_3   0.550517 0.270593 0.083214 -0.150593
C16   C     C_3   0.555948 0.729192 0.035075 -0.155645
C17   C     C_3   0.999809 0.729413 0.060022 -0.156372
C18   C     C_3   0.016664 0.270765 0.074162 -0.168764
C19   C     C_3   0.497841 0.229447 0.057922 -0.163311
C20   C     C_3   0.546182 0.770587 0.083929 -0.170545
C21   C     C_3   0.948383 0.770737 0.978494 -0.153955
C22   C     C_3   0.958882 0.229606 0.001864 -0.153451
C23   C     C_3   0.447469 0.270720 0.975642 -0.163915
C24   C     C_3   0.229360 0.534771 0.180841 -0.286179
C25   C     C_3   0.490339 0.729427 0.048685 -0.142286
C26   C     C_1   0.208097 0.555253 0.320419 0.166529
C27   C     C_1   0.707996 0.057601 0.319052 0.165964
C28   C     C_1   0.706636 0.398989 0.633836 0.164063
C29   C     C_1   0.206872 0.065880 0.602107 0.146441
C30   C     C_3   0.749318 0.634241 0.843002 0.104022
C31   C     C_3   0.778985 0.688686 0.908094 -0.813696
C32   C     C_3   0.246739 0.912461 0.884923 0.094414
C33   C     C_3   0.274716 0.875755 0.967315 -0.796868
C34   C     C_1   0.052175 0.111385 0.847385 0.177959
C35   C     C_3   0.729395 0.940687 0.227495 -0.264694
C36   C     C_1   0.069995 0.898141 0.864115 0.173871
C37   C     C_1   0.549596 0.612550 0.844928 0.178735
C38   C     C_1   0.571707 0.399574 0.866044 0.183368
C39   C     C_1   0.427365 0.601857 0.633308 0.171542
C40   C     C_1   0.448289 0.385971 0.655264 0.211826
C41   C     C_1   0.929486 0.103283 0.635616 0.173413
C42   C     C_1   0.946133 0.887000 0.652979 0.208790
C43   C     C_3   0.833702 0.994122 0.580844 0.114343
C44   C     C_3   0.775652 0.957108 0.540763 -0.800347
C45   C     C_3   0.333739 0.490926 0.580932 0.112348
C46   C     C_3   0.729359 0.033694 0.180069 -0.286265
C47   C     C_3   0.276310 0.453021 0.541604 -0.798701
C48   C     C_3   0.083527 0.858121 0.334081 0.111886
C49   C     C_3   0.113778 0.800835 0.334392 -0.814063
C50   C     C_3   0.064296 0.151134 0.312216 0.111551
C51   C     C_3   0.110343 0.199831 0.334337 -0.799127
C52   C     C_3   0.581160 0.356741 0.331508 0.119131
C53   C     C_3   0.608734 0.298032 0.329311 -0.805301
C54   C     C_3   0.583481 0.641478 0.334325 0.113943
C55   C     C_3   0.613810 0.698597 0.334852 -0.824479
C56   C     C_3   0.249248 0.428209 0.102765 0.105903
C57   C     C_3   0.269973 0.475189 0.218520 0.556706
C58   C     C_3   0.278958 0.401915 0.073324 -0.819352
C59   C     C_3   0.749347 0.925347 0.104205 0.106438
C60   C     C_3   0.779151 0.897396 0.075654 -0.821627
C61   C     C_3   0.769982 0.974070 0.219028 0.556716
C62   C     C_3   0.311010 0.500622 0.312272 -0.046837
C63   C     C_3   0.811006 0.000624 0.312225 -0.046401
C64   C     C_3   0.271166 0.467058 0.321786 -0.260216
C65   C     C_R   0.621639 0.000498 0.121828 0.882617
C66   C     C_3   0.270988 0.560502 0.276406 -0.255193
C67   C     C_3   0.771162 0.968113 0.322437 -0.260533
C68   C     C_3   0.770969 0.060574 0.275067 -0.255469
C69   C     C_3   0.230175 0.526487 0.284078 0.071177
C70   C     C_3   0.730156 0.027598 0.283446 0.071150
C71   C     C_3   0.189189 0.500843 0.189989 -0.080077
C72   C     C_3   0.689188 0.000825 0.189934 -0.079952
C73   C     C_3   0.770659 0.505188 0.710048 -0.263425
C74   C     C_3   0.771054 0.445335 0.795169 -0.245809
C75   C     C_3   0.271086 0.059121 0.773293 -0.239105
C76   C     C_3   0.948594 0.729465 0.919113 -0.150692
C77   C     C_3   0.270720 0.971495 0.717114 -0.258719
C78   C     C_3   0.729810 0.451726 0.694827 0.075745
C79   C     C_3   0.229846 0.030975 0.679719 0.087165
C80   C     C_R   0.999987 0.621685 0.000103 0.879529
C81   C     C_R   0.000171 0.378320 0.000164 0.854508
C82   C     C_R   0.500062 0.121686 0.000170 0.858761
C83   C     C_R   0.500153 0.878316 0.000079 0.863103
C84   C     C_3   0.689130 0.499900 0.688102 -0.078827
C85   C     C_3   0.189078 0.999613 0.688380 -0.080537
C86   C     C_3   0.729255 0.554257 0.702790 -0.290996
C87   C     C_3   0.942471 0.270777 0.928061 -0.163491
C88   C     C_3   0.729542 0.494106 0.788289 -0.263161
C89   C     C_3   0.229387 0.027511 0.781893 -0.272131
C90   C     C_3   0.229163 0.939386 0.725559 -0.291596
C91   C     C_3   0.770091 0.547569 0.802754 0.553469
C92   C     C_3   0.269829 0.967847 0.818564 0.551455
C93   C     C_3   0.810944 0.499625 0.810008 -0.049524
C94   C     C_3   0.310943 0.999090 0.810541 -0.052030
C95   C     C_R   0.999792 0.999793 0.878405 0.898841
C96   C     C_R   0.499774 0.499826 0.878389 0.899347
C97   C     C_R   0.000046 0.878314 0.000568 0.874787
C98   C     C_3   0.449798 0.229436 0.918453 -0.164659
C99   C     C_R   0.000008 0.121693 0.000298 0.871724
C100  C     C_R   0.500054 0.378316 0.000515 0.874874
C101  C     C_R   0.499999 0.621688 0.999887 0.873003
C102  C     C_R   0.999961 0.999862 0.121663 0.946933
C103  C     C_R   0.499976 0.499970 0.121685 0.948514
C104  C     C_R   0.499912 0.499955 0.378294 0.931289
C105  C     C_R   0.999700 0.999950 0.378078 0.934248
C106  C     C_R   0.378399 0.500115 0.378864 0.915244
C107  C     C_R   0.878397 0.000115 0.378849 0.914966
C108  C     C_R   0.499595 0.500023 0.621132 0.893869
C109  C     C_3   0.444461 0.770848 0.964761 -0.160537
C110  C     C_R   0.999624 0.000022 0.621157 0.892007
C111  C     C_R   0.878398 0.500014 0.878193 0.912410
C112  C     C_R   0.378400 0.999234 0.878299 0.896913
C113  C     C_R   0.621629 0.499959 0.621101 0.878794
C114  C     C_R   0.121613 0.999922 0.621231 0.880071
C115  C     C_3   0.024364 0.053268 0.795088 -0.028592
C116  C     C_3   0.032886 0.951202 0.803314 -0.039639
C117  C     C_3   0.523172 0.553832 0.793895 -0.030450
C118  C     C_3   0.533736 0.451945 0.804214 -0.041278
C119  C     C_3   0.558814 0.506081 0.788113 -0.212845
C120  C     C_3   0.000029 0.689301 0.000596 0.014295
C121  C     C_3   0.059010 0.004824 0.788263 -0.213997
C122  C     C_3   0.498912 0.500023 0.687667 -0.148394
C123  C     C_3   0.998986 0.000011 0.687724 -0.148024
C124  C     C_3   0.464103 0.548417 0.693605 -0.118113
C125  C     C_3   0.474857 0.445541 0.704252 -0.105496
C126  C     C_3   0.965184 0.049077 0.694716 -0.119389
C127  C     C_3   0.973875 0.945998 0.703225 -0.104115
C128  C     C_3   0.940180 0.995036 0.710045 0.438633
C129  C     C_3   0.440179 0.493910 0.710050 0.439101
C130  C     C_3   0.999114 0.999685 0.810456 -0.152950
C131  C     C_3   0.000286 0.310713 0.000396 0.016102
C132  C     C_3   0.499005 0.499756 0.810353 -0.153113
C133  C     C_3   0.029462 0.949447 0.259637 0.476992
C134  C     C_3   0.027943 0.050840 0.258171 0.491934
C135  C     C_3   0.528284 0.448768 0.258364 0.485083
C136  C     C_3   0.529637 0.550163 0.259914 0.489067
C137  C     C_3   0.560409 0.498989 0.331406 -0.377274
C138  C     C_3   0.059997 0.000647 0.331050 -0.346896
C139  C     C_3   0.500044 0.499874 0.310925 -0.102422
C140  C     C_3   0.999617 0.999836 0.310489 -0.105036
C141  C     C_3   0.051738 0.729261 0.023133 -0.163602
C142  C     C_3   0.500161 0.189305 0.000674 0.016090
C143  C     C_3   0.041613 0.270388 0.999213 -0.157558
C144  C     C_3   0.552858 0.229273 0.026010 -0.157599
C145  C     C_3   0.510036 0.770431 0.951073 -0.159209
C146  C     C_3   0.468847 0.448411 0.239503 -0.214963
C147  C     C_3   0.470244 0.552271 0.241089 -0.226562
C148  C     C_3   0.969984 0.947444 0.240630 -0.219301
C149  C     C_3   0.968389 0.051330 0.239161 -0.247650
C150  C     C_3   0.939637 0.998956 0.168879 -0.258933
C151  C     C_3   0.439878 0.500797 0.169246 -0.264723
C152  C     C_3   0.999459 0.999706 0.188664 -0.096243
H1    H     H_    0.000436 0.789555 0.893258 0.147150
H2    H     H_    0.711021 0.490138 0.818132 0.133911
H3    H     H_    0.807304 0.933611 0.079396 0.252346
H4    H     H_    0.210842 0.049953 0.806449 0.140425
H5    H     H_    0.210891 0.890670 0.705295 0.157610
H6    H     H_    0.607217 0.511101 0.818252 0.140267
H7    H     H_    0.107509 0.008817 0.818484 0.136224
H8    H     H_    0.609004 0.498306 0.398848 0.136189
H9    H     H_    0.108611 0.001595 0.398388 0.154990
H10   H     H_    0.093885 0.710413 0.041348 0.140346
H11   H     H_    0.075389 0.288850 0.998172 0.143284
H12   H     H_    0.595834 0.210422 0.046571 0.138935
H13   H     H_    0.970244 0.210198 0.866678 0.145905
H14   H     H_    0.518176 0.788631 0.911222 0.158710
H15   H     H_    0.444113 0.406569 0.233202 0.161293
H16   H     H_    0.446631 0.594819 0.236067 0.152022
H17   H     H_    0.946304 0.904997 0.235390 0.160812
H18   H     H_    0.943295 0.092926 0.232852 0.148188
H19   H     H_    0.891021 0.998323 0.101493 0.175612
H20   H     H_    0.391232 0.501640 0.101919 0.175812
H21   H     H_    0.093450 0.789042 0.149307 0.160247
H22   H     H_    0.105199 0.210859 0.132305 0.157291
H23   H     H_    0.591550 0.289153 0.150527 0.159584
H24   H     H_    0.504313 0.289518 0.897130 0.146117
H25   H     H_    0.601478 0.710570 0.063672 0.156373
H26   H     H_    0.999584 0.711084 0.108463 0.153915
H27   H     H_    0.030099 0.289474 0.134331 0.146835
H28   H     H_    0.495936 0.211136 0.104643 0.152114
H29   H     H_    0.583697 0.789227 0.152505 0.138860
H30   H     H_    0.906224 0.789378 0.960401 0.144149
H31   H     H_    0.925207 0.211087 0.003069 0.142360
H32   H     H_    0.404466 0.289335 0.955194 0.148797
H33   H     H_    0.482369 0.710675 0.088528 0.147654
H34   H     H_    0.906598 0.710774 0.852523 0.143748
H35   H     H_    0.416780 0.710745 0.847281 0.148800
H36   H     H_    0.895383 0.289689 0.869030 0.134063
H37   H     H_    0.408712 0.210725 0.851287 0.139480
H38   H     H_    0.399014 0.789833 0.936089 0.145780
H39   H     H_    0.210696 0.392326 0.203658 0.134001
H40   H     H_    0.210869 0.561894 0.121907 0.151182
H41   H     H_    0.710714 0.892169 0.205920 0.133441
H42   H     H_    0.710871 0.059959 0.120575 0.151912
H43   H     H_    0.290004 0.440386 0.381233 0.151316
H44   H     H_    0.289345 0.609054 0.299085 0.171683
H45   H     H_    0.790001 0.942306 0.382439 0.150876
H46   H     H_    0.788801 0.508914 0.679655 0.168864
H47   H     H_    0.789312 0.109209 0.296694 0.171520
H48   H     H_    0.720922 0.606417 0.848219 0.138937
H49   H     H_    0.718110 0.654001 0.774782 0.138618
H50   H     H_    0.807241 0.717740 0.903848 0.249243
H51   H     H_    0.741808 0.718430 0.891974 0.206018
H52   H     H_    0.809887 0.670632 0.976945 0.259401
H53   H     H_    0.215114 0.880510 0.826610 0.138690
H54   H     H_    0.218947 0.952081 0.876766 0.132782
H55   H     H_    0.306000 0.906537 0.026777 0.257883
H56   H     H_    0.236604 0.858036 0.959700 0.213825
H57   H     H_    0.789919 0.400912 0.833712 0.148754
H58   H     H_    0.302174 0.835253 0.976831 0.250919
H59   H     H_    0.849701 0.976581 0.550315 0.111375
H60   H     H_    0.820302 0.044296 0.562829 0.166948
H61   H     H_    0.756797 0.974683 0.567087 0.259316
H62   H     H_    0.739110 0.962394 0.467356 0.211620
H63   H     H_    0.787643 0.906597 0.557531 0.254032
H64   H     H_    0.349997 0.473527 0.550701 0.112068
H65   H     H_    0.319516 0.540864 0.561984 0.166289
H66   H     H_    0.257215 0.470388 0.567667 0.258438
H67   H     H_    0.239656 0.457645 0.468106 0.211137
H68   H     H_    0.289971 0.107631 0.793725 0.144476
H69   H     H_    0.289113 0.402719 0.559285 0.255605
H70   H     H_    0.045358 0.841621 0.327229 0.138241
H71   H     H_    0.119786 0.883019 0.398605 0.143397
H72   H     H_    0.152666 0.815558 0.342173 0.258981
H73   H     H_    0.132810 0.769446 0.390407 0.209821
H74   H     H_    0.078485 0.774621 0.271012 0.249503
H75   H     H_    0.081906 0.133395 0.375734 0.164543
H76   H     H_    0.018080 0.174357 0.272823 0.132831
H77   H     H_    0.093945 0.218760 0.272260 0.246129
H78   H     H_    0.114194 0.238994 0.372370 0.204684
H79   H     H_    0.289047 0.949396 0.692062 0.165297
H80   H     H_    0.157310 0.178164 0.375130 0.266005
H81   H     H_    0.543722 0.341999 0.327111 0.141767
H82   H     H_    0.619104 0.381141 0.395840 0.158981
H83   H     H_    0.646808 0.311014 0.334547 0.257101
H84   H     H_    0.628295 0.266933 0.385828 0.218912
H85   H     H_    0.571739 0.272216 0.266130 0.246458
H86   H     H_    0.619696 0.616515 0.398825 0.142692
H87   H     H_    0.545276 0.658173 0.327406 0.137174
H88   H     H_    0.578578 0.724928 0.271545 0.250132
H89   H     H_    0.632830 0.729957 0.390937 0.205608
H90   H     H_    0.710791 0.598582 0.664089 0.150639
H91   H     H_    0.652726 0.683669 0.342686 0.261767
H92   H     H_    0.217707 0.467591 0.057503 0.140260
H93   H     H_    0.221214 0.390307 0.096907 0.138386
H94   H     H_    0.310484 0.362125 0.116824 0.257126
H95   H     H_    0.241840 0.385002 0.003700 0.207167
H96   H     H_    0.306576 0.438978 0.077205 0.251638
H97   H     H_    0.718235 0.964672 0.058279 0.140209
H98   H     H_    0.720855 0.888231 0.098615 0.138833
H99   H     H_    0.810192 0.857572 0.119774 0.256950
H100  H     H_    0.742063 0.880109 0.006222 0.205647
N1    N     N_1   0.190724 0.577941 0.349110 -0.217767
N2    N     N_1   0.427298 0.339103 0.616624 -0.207200
N3    N     N_1   0.901379 0.145940 0.589024 -0.205728
N4    N     N_1   0.924218 0.840584 0.613346 -0.211428
N5    N     N_1   0.690554 0.081267 0.347157 -0.215123
N6    N     N_1   0.688321 0.357438 0.585698 -0.229661
N7    N     N_1   0.188965 0.093502 0.541065 -0.230532
N8    N     N_1   0.074076 0.157152 0.888658 -0.223033
N9    N     N_1   0.099234 0.856350 0.912066 -0.224484
N10   N     N_1   0.570339 0.658798 0.885178 -0.229596
N11   N     N_1   0.601589 0.358314 0.914803 -0.217151
N12   N     N_1   0.398439 0.643908 0.585767 -0.208832
O1    O     O_R   0.093030 0.500000 0.145540 -0.617274
O2    O     O_R   0.552490 0.500000 0.145610 -0.585140
O3    O     O_R   0.499990 0.552490 0.407030 -0.638780
O4    O     O_R   0.499990 0.447510 0.407030 -0.624849
O5    O     O_R   0.999990 0.052490 0.407030 -0.634489
O6    O     O_R   0.999990 0.947510 0.407030 -0.629591
O7    O     O_R   0.406970 0.552510 0.407040 -0.633669
O8    O     O_R   0.406970 0.447490 0.407040 -0.606329
O9    O     O_R   0.906970 0.052510 0.407040 -0.635138
O10   O     O_R   0.906970 0.947490 0.407040 -0.604470
O11   O     O_R   0.500000 0.552540 0.593090 -0.618050
O12   O     O_R   0.593030 1.000000 0.145540 -0.617667
O13   O     O_R   0.500000 0.447460 0.593090 -0.621798
O14   O     O_R   1.000000 0.052540 0.593090 -0.615412
O15   O     O_R   0.000000 0.947460 0.593090 -0.625214
O16   O     O_R   0.593020 0.552520 0.593090 -0.640744
O17   O     O_R   0.593020 0.447480 0.593090 -0.616548
O18   O     O_R   0.093020 0.052520 0.593090 -0.618914
O19   O     O_R   0.093020 0.947480 0.593090 -0.637944
O20   O     O_R   0.093020 0.500000 0.040510 -0.638505
O21   O     O_R   0.593020 1.000000 0.040510 -0.637486
O22   O     O_R   0.999990 0.593020 0.052510 -0.617757
O23   O     O_R   0.052520 0.906980 0.052620 -0.620172
O24   O     O_R   0.999990 0.406980 0.052510 -0.631771
O25   O     O_R   0.499990 0.093020 0.052510 -0.628546
O26   O     O_R   0.499990 0.906980 0.052510 -0.617050
O27   O     O_R   0.999990 0.593020 0.947470 -0.627340
O28   O     O_R   0.999990 0.406980 0.947470 -0.625801
O29   O     O_R   0.499990 0.093020 0.947470 -0.623125
O30   O     O_R   0.499990 0.906980 0.947470 -0.633577
O31   O     O_R   0.906980 0.500000 0.959490 -0.599179
O32   O     O_R   0.406980 1.000000 0.959490 -0.586057
O33   O     O_R   0.906970 0.500000 0.854460 -0.635301
O34   O     O_R   0.052520 0.093020 0.052620 -0.621065
O35   O     O_R   0.406970 0.000000 0.854460 -0.632787
O36   O     O_R   0.947510 0.000000 0.854550 -0.577465
O37   O     O_R   0.447510 0.500000 0.854550 -0.578367
O38   O     O_R   0.052540 0.000000 0.959610 -0.627141
O39   O     O_R   0.552540 0.500000 0.959610 -0.628475
O40   O     O_R   0.947490 0.906970 0.947560 -0.630732
O41   O     O_R   0.947490 0.093030 0.947560 -0.630848
O42   O     O_R   0.447490 0.406970 0.947560 -0.629262
O43   O     O_R   0.447490 0.593030 0.947560 -0.632381
O44   O     O_3   0.797161 0.597094 0.864458 -0.615592
O45   O     O_R   0.552520 0.406980 0.052620 -0.620950
O46   O     O_3   0.295632 0.934775 0.895589 -0.605079
O47   O     O_3   0.879405 0.987816 0.674296 -0.589770
O48   O     O_3   0.379573 0.485471 0.674492 -0.590134
O49   O     O_3   0.059784 0.897343 0.262707 -0.611471
O50   O     O_3   0.058704 0.102671 0.261956 -0.609535
O51   O     O_3   0.556867 0.395708 0.259641 -0.617716
O52   O     O_3   0.559770 0.602250 0.262897 -0.613612
O53   O     O_3   0.297054 0.449036 0.191328 -0.618098
O54   O     O_3   0.797111 0.946735 0.192483 -0.617450
O55   O     O_R   0.552520 0.593020 0.052620 -0.621376
O56   O     O_R   0.947460 0.000000 0.040550 -0.650042
O57   O     O_R   0.447460 0.500000 0.040550 -0.648158
O58   O     O_R   0.052490 1.000000 0.145610 -0.582709
Zn1   Zn    Zn3+2 0.000000 0.500000 0.070130 0.977693
Zn2   Zn    Zn3+2 0.499990 0.429870 0.500050 0.984479
Zn3   Zn    Zn3+2 0.999990 0.070130 0.500050 0.962034
Zn4   Zn    Zn3+2 0.999990 0.929870 0.500050 0.962707
Zn5   Zn    Zn3+2 0.500000 1.000000 0.070130 0.986209
Zn6   Zn    Zn3+2 0.000000 0.500000 0.929870 0.945167
Zn7   Zn    Zn3+2 0.500000 0.000000 0.929870 0.944357
Zn8   Zn    Zn3+2 0.929870 0.000000 0.929930 0.980973
Zn9   Zn    Zn3+2 0.429870 0.500000 0.929930 0.980464
Zn10  Zn    Zn3+2 0.070130 1.000000 0.070230 1.001265
Zn11  Zn    Zn3+2 0.570130 0.500000 0.070230 0.997759
Zn12  Zn    Zn3+2 0.499990 0.570130 0.500050 0.944468

loop_
_geom_bond_atom_site_label_1
_geom_bond_atom_site_label_2
_ccdc_geom_bond_type
C33   H56   S    
C50   H76   S    
C73   C93   S    
O38   Zn10  S    
C52   H82   S    
C21   C76   S    
C44   H62   S    
C85   C114  S    
C84   C86   S    
C117  C119  S    
C5    C143  S    
O21   Zn7   S    
C64   H43   S    
C49   H73   S    
C65   O21   A    
C61   C63   S    
C117  C132  S    
C30   O44   S    
C62   C64   S    
C114  O18   A    
C96   O39   A    
C43   H59   S    
C134  O50   S    
C46   C72   S    
C40   N2    T    
C4    H1    S    
C59   C60   S    
C144  H12   S    
C51   H78   S    
C74   C93   S    
C2    C83   S    
O20   Zn6   S    
O17   Zn2   S    
C143  H11   S    
C129  O48   S    
C145  H14   S    
C45   C47   S    
C27   N5    T    
C112  O35   A    
C116  C121  S    
C54   H86   S    
C123  C126  S    
C17   C21   S    
C39   C124  S    
O45   Zn11  S    
C43   C44   S    
C110  C123  S    
O4    Zn2   S    
C90   C92   S    
C16   C20   S    
C135  C146  S    
C59   H98   S    
C92   C94   S    
C11   C101  S    
C81   O24   A    
C22   C87   S    
C115  C126  S    
C138  C140  S    
O33   Zn6   S    
C135  O51   S    
O27   Zn6   S    
C49   H72   S    
C142  C144  S    
O39   Zn11  S    
C32   H54   S    
C79   C85   S    
C131  C143  S    
C110  O15   A    
O55   Zn11  S    
C3    C103  S    
C105  O6    A    
C135  C137  S    
O29   Zn7   S    
C58   H95   S    
C137  H8    S    
O31   Zn1   S    
C84   C88   S    
C85   C90   S    
C62   C106  S    
C80   O22   A    
O57   Zn9   S    
C86   C91   S    
C36   N9    T    
C60   H3    S    
O42   Zn9   S    
C105  C140  S    
C48   H70   S    
C32   O46   S    
C99   O41   A    
C106  O8    A    
C107  O9    A    
C81   O28   A    
C121  C123  S    
C125  C129  S    
C37   C117  S    
C26   C69   S    
C75   C79   S    
O30   Zn7   S    
O10   Zn4   S    
C30   H48   S    
C146  H15   S    
C2    C109  S    
C115  C121  S    
O32   Zn5   S    
C108  O11   A    
C5    C9    S    
C29   N7    T    
C102  O58   A    
C7    H35   S    
C82   O25   A    
C148  C150  S    
C81   C131  S    
O7    Zn12  S    
C13   C57   S    
C11   C25   S    
C77   C94   S    
C12   C141  S    
C3    C136  S    
C87   C131  S    
C37   N10   T    
C59   O54   S    
C17   C120  S    
C24   C57   S    
C95   C130  S    
O12   Zn5   S    
O8    Zn2   S    
O14   Zn3   S    
C25   C109  S    
C47   H69   S    
C106  O7    A    
C98   C142  S    
O2    Zn11  S    
C46   H42   S    
C21   H30   S    
C77   H79   S    
C111  O31   A    
C62   C66   S    
C74   H57   S    
O40   Zn8   S    
C35   C61   S    
C53   H85   S    
C35   H41   S    
C56   O53   S    
C34   C115  S    
C134  C149  S    
C16   C145  S    
C116  C130  S    
C88   H2    S    
C147  C151  S    
C46   C68   S    
O3    Zn12  S    
C33   H58   S    
C123  C127  S    
C113  O16   A    
C88   C91   S    
C35   C67   S    
C109  H38   S    
C8    C12   S    
O58   Zn10  S    
C73   H46   S    
C148  H17   S    
C34   N8    T    
C24   H40   S    
C54   O52   S    
C64   C69   S    
C53   H84   S    
C31   H52   S    
O19   Zn4   S    
C28   N6    T    
C6    C144  S    
C108  O13   A    
C36   C116  S    
C52   C53   S    
C63   C68   S    
C33   H55   S    
C126  C128  S    
C18   C22   S    
C120  C141  S    
C45   O48   S    
C136  C137  S    
C26   N1    T    
C101  O43   A    
C65   C72   S    
C56   H93   S    
C41   N3    T    
O37   Zn9   S    
C67   C70   S    
C122  C125  S    
C58   H96   S    
C38   N11   T    
O23   Zn10  S    
C40   C125  S    
C94   C112  S    
C56   C58   S    
C118  C132  S    
C75   C89   S    
C146  C151  S    
C5    C87   S    
C114  O19   A    
C23   C98   S    
C110  O14   A    
C122  C124  S    
O26   Zn5   S    
C102  C152  S    
C20   H29   S    
C65   O12   A    
C115  C130  S    
C139  C146  S    
C51   H77   S    
C95   O36   A    
C104  O3    A    
C133  O49   S    
C82   C142  S    
C18   C131  S    
C2    C145  S    
C15   C19   S    
C137  C139  S    
C128  O47   S    
C55   H91   S    
C68   H47   S    
C6    C98   S    
C52   O51   S    
C117  C124  S    
C54   H87   S    
C39   N12   T    
C30   C31   S    
C83   O30   A    
C20   C25   S    
C31   H50   S    
C54   C55   S    
C116  C127  S    
C12   C17   S    
C59   H97   S    
C60   H99   S    
C118  C125  S    
C55   H88   S    
O22   Zn1   S    
C24   C66   S    
C129  C132  S    
C77   C79   S    
C133  C138  S    
O15   Zn4   S    
C50   H75   S    
C133  C152  S    
C98   H37   S    
C52   H81   S    
C105  O5    A    
C47   H66   S    
C77   C90   S    
C46   C61   S    
C2    C20   S    
C44   H61   S    
C112  O32   A    
C58   H94   S    
C4    C141  S    
C85   C89   S    
C89   H4    S    
C13   C71   S    
C9    C14   S    
C91   C93   S    
C11   C16   S    
C150  H19   S    
C29   C79   S    
C134  C152  S    
C50   C51   S    
C97   O40   A    
C76   C120  S    
C10   C100  S    
C43   H60   S    
C42   C127  S    
C93   C111  S    
O24   Zn1   S    
C48   C49   S    
C35   C72   S    
C19   C142  S    
O13   Zn2   S    
C127  C128  S    
C30   H49   S    
C14   C143  S    
C55   H89   S    
C3    C151  S    
C41   C126  S    
O43   Zn9   S    
C67   H45   S    
C82   O29   A    
C128  C130  S    
C6    C10   S    
C104  C139  S    
C32   C33   S    
C14   H22   S    
C149  C150  S    
C100  O45   A    
C13   C64   S    
O5    Zn3   S    
C75   H68   S    
C90   H5    S    
C124  C129  S    
C138  H9    S    
C3    C135  S    
C147  H16   S    
O25   Zn5   S    
C38   C118  S    
C74   C78   S    
O18   Zn3   S    
C74   C88   S    
C32   H53   S    
C19   H28   S    
C75   C94   S    
C113  O17   A    
C12   H21   S    
C101  O55   A    
C17   H26   S    
O35   Zn7   S    
C102  O56   A    
C80   C120  S    
O9    Zn3   S    
C84   C113  S    
C44   H63   S    
C45   H65   S    
C14   C18   S    
C19   C23   S    
C4    C8    S    
C140  C148  S    
C57   C62   S    
C92   O46   S    
C136  O52   S    
C7    C11   S    
C139  C147  S    
C1    C71   S    
C43   O47   S    
C10   C15   S    
C9    C22   S    
C66   C69   S    
C45   H64   S    
C103  O2    A    
C69   C71   S    
C107  O10   A    
C118  C119  S    
C111  O33   A    
C73   C78   S    
C57   O53   S    
C5    H13   S    
C28   C78   S    
C53   H83   S    
C31   H51   S    
C86   H90   S    
C96   C132  S    
C100  O42   A    
C91   O44   S    
C9    C99   S    
O6    Zn4   S    
C97   O23   A    
C83   O26   A    
C61   O54   S    
C63   C67   S    
C149  H18   S    
C47   H67   S    
C151  H20   S    
C7    C109  S    
O11   Zn12  S    
O36   Zn8   S    
C8    C97   S    
O1    Zn1   S    
C22   H31   S    
C42   N4    T    
C8    C21   S    
C48   O49   S    
C133  C148  S    
C89   C92   S    
C27   C70   S    
C25   H33   S    
C18   H27   S    
C150  C152  S    
C96   O37   A    
C63   C107  S    
C76   H34   S    
C16   H25   S    
C119  C122  S    
O16   Zn12  S    
C103  O57   A    
C51   H80   S    
C104  O4    A    
C108  C122  S    
C134  C138  S    
C1    O20   A    
C66   H44   S    
C80   O27   A    
C87   H36   S    
C48   H71   S    
C10   C23   S    
O34   Zn10  S    
C13   H39   S    
C15   H23   S    
C23   H32   S    
C99   O34   A    
C6    H24   S    
C119  H6    S    
C140  C149  S    
C95   O38   A    
C56   H92   S    
C73   C86   S    
C4    C76   S    
C136  C147  S    
C15   C144  S    
C50   O50   S    
C78   C84   S    
C141  H10   S    
C1    O1    A    
C68   C70   S    
C121  H7    S    
C60   H100  S    
O56   Zn8   S    
O41   Zn8   S    
C70   C72   S    
C7    C145  S    
C49   H74   S    
O28   Zn6   S    
C24   C71   S    
