data_mof_unit_62894.cif
_audit_creation_date              2013-03-05T15:47:31-0500
_audit_creation_method            fapswitch 2.2
_symmetry_space_group_name_H-M    P1
_symmetry_Int_Tables_number       1
_space_group_crystal_system       triclinic
_cell_length_a                    19.022764
_cell_length_b                    19.029667
_cell_length_c                    19.048832
_cell_angle_alpha                 109.066645
_cell_angle_beta                  106.89869
_cell_angle_gamma                 109.550812
_cell_volume                      5487.34686377

loop_
_atom_site_label
_atom_site_type_symbol
_atom_site_description
_atom_site_fract_x
_atom_site_fract_y
_atom_site_fract_z
_atom_type_partial_charge
C1    C     C_R   0.020358 0.063434 0.738362 0.802585
C2    C     C_R   0.000258 0.936057 0.267051 0.794569
N1    N     N_R   0.996890 0.041250 0.656740 -0.124100
N2    N     N_R   0.003110 0.958750 0.343260 -0.137954
C3    C     C_R   0.175132 0.931481 0.455081 0.775640
C4    C     C_R   0.831553 0.069357 0.565231 0.798208
N3    N     N_R   0.116500 0.956710 0.456640 -0.130268
N4    N     N_R   0.883500 0.043290 0.543360 -0.142250
C5    C     C_R   0.942814 0.774603 0.516501 -0.151934
C6    C     C_R   0.050473 0.219343 0.475234 -0.138853
H1    H     H_    0.902279 0.754185 0.543359 0.142075
H2    H     H_    0.089407 0.238461 0.446537 0.147961
N5    N     N_R   0.955840 0.840160 0.499880 -0.066662
N6    N     N_R   0.044160 0.159840 0.500120 -0.069578
C7    C     C_R   0.229583 0.230038 0.656849 0.703346
C8    C     C_R   0.761080 0.804404 0.333841 0.733447
N7    N     N_R   0.157540 0.157800 0.613510 -0.136820
N8    N     N_R   0.842460 0.842200 0.386490 -0.134163
C9    C     C_R   0.010779 0.771197 0.440253 0.342099
C10   C     C_R   0.975107 0.218774 0.543542 0.326755
N9    N     N_R   0.000720 0.840930 0.456640 -0.106879
N10   N     N_R   0.999280 0.159070 0.543360 -0.113862
C11   C     C_R   0.155198 0.231837 0.726399 0.296227
C12   C     C_R   0.832790 0.806428 0.262074 0.212524
N11   N     N_R   0.112670 0.157030 0.656740 -0.144779
N12   N     N_R   0.887330 0.842970 0.343260 -0.128526
C13   C     C_R   0.242057 0.071300 0.524486 -0.209051
C14   C     C_R   0.762846 0.930353 0.495087 -0.157397
H3    H     H_    0.289407 0.136430 0.554929 0.227045
H4    H     H_    0.720018 0.867033 0.478578 0.232579
N13   N     N_R   0.159720 0.044030 0.499880 -0.083648
N14   N     N_R   0.840280 0.955970 0.500120 -0.098941
C15   C     C_R   0.948136 0.923830 0.668089 -0.238364
C16   C     C_R   0.062129 0.075494 0.333981 -0.223034
H5    H     H_    0.911834 0.858509 0.651558 0.162533
H6    H     H_    0.100561 0.140738 0.351706 0.164288
N15   N     N_R   0.953670 0.953920 0.613510 -0.081233
N16   N     N_R   0.046330 0.046080 0.386490 -0.078823
C17   C     C_R   0.991323 0.991657 0.747795 -0.139287
C18   C     C_R   0.031019 0.007130 0.257046 -0.137848
C19   C     C_R   0.253917 0.001326 0.498316 -0.155468
C20   C     C_R   0.754094 0.000506 0.531234 -0.174701
C21   C     C_R   0.979726 0.731298 0.482016 -0.094633
C22   C     C_R   0.005345 0.256543 0.500333 -0.082606
C23   C     C_R   0.230164 0.277565 0.728727 -0.309910
C24   C     C_R   0.753881 0.784941 0.255721 -0.293794
Ni1   Ni    Ni4+2 0.998100 0.099260 0.599150 0.322110
Ni2   Ni    Ni4+2 0.001900 0.900740 0.400850 0.333230
Ni3   Ni    Ni4+2 0.898980 0.898980 0.500000 0.219780
Ni4   Ni    Ni4+2 0.101020 0.101020 0.500000 0.238846
C25   C     C_3   0.529217 0.548073 0.000932 -0.475821
C26   C     C_3   0.417979 0.601427 0.947225 -0.443938
C27   C     C_3   0.440078 0.514748 0.992201 0.201309
C28   C     C_3   0.508627 0.635659 0.957149 0.224839
H7    H     H_    0.574065 0.525698 0.022662 0.235871
H8    H     H_    0.372790 0.623183 0.924912 0.231242
C29   C     C_1   0.287624 0.363731 0.783866 0.210731
C30   C     C_1   0.678570 0.740240 0.181642 0.182626
C31   C     C_3   0.496272 0.545748 0.915459 0.819010
C32   C     C_3   0.451949 0.604196 0.033615 0.829830
C33   C     C_3   0.406914 0.510874 0.906538 -0.310291
C34   C     C_3   0.541056 0.638735 0.042254 -0.307333
C35   C     C_1   0.339209 0.433546 0.835974 0.257741
C36   C     C_1   0.615721 0.698666 0.118466 0.272569
C37   C     C_1   0.332312 0.001424 0.507868 0.126359
C38   C     C_1   0.679783 0.001144 0.536189 0.140108
C39   C     C_1   0.397939 0.001511 0.515942 0.047424
C40   C     C_1   0.616004 0.001442 0.535580 0.053462
C41   C     C_1   0.474834 0.001587 0.524766 0.048081
C42   C     C_1   0.540061 0.001583 0.530918 0.049205
C43   C     C_1   0.999505 0.327558 0.492841 0.089702
C44   C     C_1   0.976310 0.653965 0.480486 0.097035
C45   C     C_1   0.993602 0.387218 0.488065 0.057665
C46   C     C_1   0.977138 0.590810 0.480463 0.063685
C47   C     C_1   0.986515 0.457598 0.484007 0.045997
C48   C     C_1   0.981295 0.518385 0.481749 0.044638
C49   C     C_1   0.999187 0.990175 0.825566 0.113766
C50   C     C_1   0.033637 0.008052 0.181741 0.121664
C51   C     C_1   0.007027 0.992175 0.892000 0.050472
C52   C     C_1   0.030924 0.005750 0.116386 0.054589
C53   C     C_1   0.016623 0.996677 0.970887 0.049895
C54   C     C_1   0.024094 0.001075 0.038046 0.051412
F1    F     F_    0.062819 0.142784 0.801965 -0.639753
F2    F     F_    0.997367 0.862849 0.221238 -0.605658
F3    F     F_    0.429988 0.633916 0.095944 -0.607387
F4    F     F_    0.518712 0.516169 0.853488 -0.609711
F5    F     F_    0.160620 0.852442 0.410204 -0.637943
F6    F     F_    0.857837 0.142730 0.632371 -0.607976
F7    F     F_    0.277887 0.261222 0.623114 -0.680620
F8    F     F_    0.696703 0.777007 0.351928 -0.685542
N17   N     N_R   0.020732 0.729392 0.369127 0.277434
O1    O     O_R   0.039464 0.668397 0.361563 -0.321792
O2    O     O_R   0.006489 0.749024 0.309079 -0.240079
N18   N     N_R   0.934677 0.247951 0.589500 0.274296
O3    O     O_R   0.980592 0.314518 0.662005 -0.272727
O4    O     O_R   0.858581 0.231741 0.547923 -0.353305
N19   N     N_R   0.116096 0.269089 0.769500 0.292713
O5    O     O_R   0.160714 0.338117 0.840159 -0.279155
O6    O     O_R   0.035194 0.234417 0.737818 -0.258118
N20   N     N_R   0.848142 0.772913 0.192798 0.279761
O7    O     O_R   0.869206 0.713447 0.184073 -0.238678
O8    O     O_R   0.817692 0.782691 0.128163 -0.333881
N21   N     N_R   0.404753 0.450779 0.015997 0.284007
O9    O     O_R   0.441714 0.464468 0.091856 -0.289557
O10   O     O_R   0.336565 0.380454 0.962649 -0.320665
N22   N     N_R   0.547037 0.701831 0.937281 0.282434
O11   O     O_R   0.513607 0.691494 0.862236 -0.301684
O12   O     O_R   0.614476 0.771424 0.994150 -0.330441

loop_
_geom_bond_atom_site_label_1
_geom_bond_atom_site_label_2
_geom_bond_distance
_ccdc_geom_bond_type
C38   C40   1.211871 T    
C8    F8    1.351132 S    
C21   C44   1.441398 S    
C11   C23   1.378521 A    
C13   H3    1.078575 S    
C2    F2    1.353482 S    
N8    N12   1.347228 A    
C53   C54   1.216632 T    
C23   C29   1.412248 S    
C15   C17   1.389582 A    
C46   C48   1.414288 S    
C16   C18   1.387568 A    
C17   C49   1.455734 S    
C9    N9    1.352412 A    
C12   N12   1.354022 A    
C26   C33   1.550554 S    
C50   C52   1.216534 T    
N17   O2    1.299278 A    
N22   O11   1.300278 A    
N19   O5    1.300798 A    
C4    F6    1.352600 S    
C22   C43   1.440921 S    
C32   C34   1.534226 S    
C10   N18   1.423324 S    
C33   C35   1.436576 S    
C5    N5    1.347122 A    
C34   C36   1.435621 S    
C26   C32   1.559112 S    
N19   O6    1.299352 A    
C27   C33   1.535567 S    
C9    C21   1.387785 A    
C37   C39   1.212023 T    
N1    Ni1   1.792060 S    
N11   Ni1   1.838613 S    
C16   H6    1.079403 S    
N12   Ni2   1.838612 S    
N9    Ni2   1.792301 S    
N10   Ni1   1.792304 S    
C12   N20   1.425583 S    
C24   C30   1.411421 S    
C45   C47   1.414312 S    
N18   O3    1.300080 A    
C25   C34   1.548064 S    
C10   C22   1.382009 A    
C27   C32   1.527273 S    
C26   C28   1.552990 S    
C29   C35   1.188644 T    
C28   C31   1.532318 S    
C49   C51   1.216627 T    
C30   C36   1.188263 T    
C5    C21   1.380372 A    
C31   C33   1.536916 S    
C28   N22   1.455708 S    
C6    C22   1.375099 A    
N4    N14   1.383218 A    
C14   N14   1.350317 A    
N3    N13   1.383215 A    
C44   C46   1.207044 T    
C6    N6    1.346878 A    
C8    C24   1.363040 A    
N17   O1    1.300913 A    
C51   C53   1.429931 S    
C19   C37   1.448173 S    
C28   C34   1.531179 S    
C13   N13   1.346291 A    
C15   N15   1.353553 A    
C1    N1    1.355146 A    
C2    N2    1.351233 A    
C47   C48   1.206951 T    
C7    F7    1.355337 S    
N15   Ni3   1.827012 S    
C13   C19   1.380326 A    
N20   O8    1.301238 A    
N5    N9    1.347537 A    
N21   O10   1.299809 A    
N18   O4    1.301101 A    
C5    H1    1.079803 S    
C6    H2    1.079197 S    
N5    Ni3   1.798024 S    
C52   C54   1.429878 S    
C11   N19   1.434424 S    
C10   N10   1.360255 A    
C18   C50   1.455290 S    
C25   C31   1.544930 S    
C7    C23   1.366834 A    
N13   Ni4   1.798162 S    
C3    N3    1.357827 A    
N2    Ni2   1.792060 S    
C39   C41   1.422453 S    
C7    N7    1.337651 A    
C3    C19   1.387468 A    
C16   N16   1.353532 A    
N2    N16   1.383363 A    
N7    Ni4   1.828464 S    
C4    N4    1.352222 A    
C32   F3    1.382684 S    
N16   Ni4   1.827016 S    
C1    F1    1.349057 S    
N7    N11   1.347229 A    
N3    Ni2   1.837348 S    
N6    N10   1.347534 A    
C14   H4    1.077508 S    
C31   F4    1.382827 S    
C12   C24   1.373425 A    
N6    Ni4   1.798026 S    
N22   O12   1.300312 A    
C27   N21   1.459103 S    
C14   C20   1.377997 A    
N20   O7    1.299257 A    
C15   H5    1.079120 S    
C25   H7    1.110604 S    
C11   N11   1.346367 A    
C41   C42   1.211963 T    
N14   Ni3   1.798162 S    
N4    Ni1   1.837346 S    
C9    N17   1.431832 S    
C1    C17   1.384247 A    
C3    F5    1.346886 S    
C2    C18   1.382562 A    
N1    N15   1.383366 A    
C8    N8    1.341855 A    
C4    C20   1.380579 A    
C43   C45   1.206928 T    
N21   O9    1.300426 A    
C20   C38   1.447616 S    
C40   C42   1.422352 S    
C25   C27   1.533804 S    
C26   H8    1.109845 S    
N8    Ni3   1.828467 S    
