data_mof_unit_60563.cif
_audit_creation_date              2012-10-26T19:17:31-0400
_audit_creation_method            fapswitch 2.2
_symmetry_space_group_name_H-M    P1
_symmetry_Int_Tables_number       1
_space_group_crystal_system       triclinic
_cell_length_a                    14.322606
_cell_length_b                    15.900675
_cell_length_c                    17.071361
_cell_angle_alpha                 96.00888
_cell_angle_beta                  92.874545
_cell_angle_gamma                 91.286845
_cell_volume                      3860.08774342

loop_
_atom_site_label
_atom_site_type_symbol
_atom_type_description
_atom_site_fract_x
_atom_site_fract_y
_atom_site_fract_z
_atom_type_partial_charge
C1    C     C_R   0.506274 0.489616 0.348469 0.539785
C2    C     C_R   0.551329 0.155575 0.528526 -0.083531
C3    C     C_R   0.530475 0.890971 0.508058 0.193630
C4    C     C_R   0.483531 0.108036 0.480430 0.192020
C5    C     C_R   0.594415 0.845745 0.550421 -0.127357
C6    C     C_R   0.418670 0.152154 0.437674 -0.125641
C7    C     C_R   0.584021 0.757179 0.550682 0.121130
C8    C     C_R   0.422397 0.241403 0.442937 0.121151
C9    C     C_R   0.331074 0.500621 0.499802 0.539589
C10   C     C_R   0.668933 0.499366 0.500275 0.543323
C11   C     C_1   0.228820 0.501715 0.499834 -0.029799
C12   C     C_R   0.495765 0.510327 0.651868 0.543368
C13   C     C_1   0.771178 0.498234 0.500191 -0.026011
C14   C     C_1   0.143381 0.501465 0.499867 -0.025817
C15   C     C_1   0.856610 0.498410 0.500131 -0.027736
C16   C     C_1   0.042722 0.500425 0.499949 0.014886
C17   C     C_1   0.957263 0.499387 0.500036 0.014040
C18   C     C_R   0.522979 0.484339 0.262061 -0.051250
C19   C     C_R   0.483075 0.515548 0.738999 -0.049124
C20   C     C_R   0.550495 0.557997 0.227022 -0.077144
C21   C     C_R   0.460166 0.441424 0.775343 -0.073633
C22   C     C_R   0.556837 0.554589 0.144770 -0.015465
C23   C     C_R   0.524910 0.403119 0.131640 -0.027079
C24   C     C_R   0.453014 0.445976 0.857542 -0.014960
C25   C     C_R   0.536720 0.478228 0.096812 0.174509
C26   C     C_R   0.471980 0.522950 0.904819 0.174287
C27   C     C_1   0.439606 0.360217 0.729613 0.235991
C28   C     C_1   0.578919 0.636451 0.274516 0.228399
C29   C     C_1   0.418659 0.373047 0.893004 0.259634
C30   C     C_1   0.591296 0.627848 0.109900 0.259416
C31   C     C_1   0.522277 0.322833 0.082543 0.257049
C32   C     C_1   0.487125 0.678218 0.918058 0.256777
C33   C     C_1   0.509532 0.325209 0.246581 0.254777
C34   C     C_R   0.483002 0.597697 0.869284 -0.027361
C35   C     C_1   0.496273 0.674774 0.753523 0.255437
C36   C     C_3   0.632841 0.286780 0.587627 -0.234520
C37   C     C_3   0.727844 0.274938 0.551434 -0.434443
C38   C     C_3   0.346560 0.723069 0.439018 -0.222232
C39   C     C_3   0.344694 0.672347 0.357711 -0.373683
C40   C     C_1   0.650469 0.716711 0.599401 0.281425
C41   C     C_1   0.354310 0.282035 0.395911 0.282025
C42   C     C_R   0.517576 0.405417 0.213732 -0.064576
C43   C     C_R   0.488459 0.594824 0.786928 -0.065237
C44   C     C_R   0.443111 0.757595 0.470719 0.142620
C45   C     C_R   0.554588 0.244602 0.533243 0.148908
C46   C     C_R   0.455834 0.845321 0.467149 -0.090126
Cu1   Cu    Cu3+1 0.495850 0.415220 0.496180 0.976107
Cu2   Cu    Cu3+1 0.504150 0.584780 0.503820 0.981495
H1    H     H_    0.602170 0.123750 0.563263 0.135483
H2    H     H_    0.404050 0.691279 0.323528 0.174950
H3    H     H_    0.344311 0.603594 0.362648 0.177450
H4    H     H_    0.279027 0.684331 0.323685 0.126240
H5    H     H_    0.308723 0.691668 0.483024 0.168553
H6    H     H_    0.299445 0.776730 0.431670 0.101029
H7    H     H_    0.404261 0.878906 0.434866 0.135063
H8    H     H_    0.652048 0.879803 0.584313 0.121780
H9    H     H_    0.365047 0.116842 0.399928 0.123080
H10   H     H_    0.726897 0.297480 0.492004 0.182529
H11   H     H_    0.782717 0.311542 0.589821 0.146553
H12   H     H_    0.746341 0.207198 0.546059 0.149462
H13   H     H_    0.623953 0.353960 0.605166 0.206791
H14   H     H_    0.634472 0.257955 0.644293 0.127660
N1    N     N_2   0.532100 0.474869 0.013353 -0.221880
N2    N     N_1   0.619813 0.686347 0.082782 -0.233629
N3    N     N_1   0.520950 0.258396 0.044030 -0.226291
N4    N     N_1   0.489763 0.742793 0.956404 -0.226883
N5    N     N_1   0.504209 0.260502 0.271620 -0.271648
N6    N     N_1   0.501672 0.739153 0.727863 -0.269437
N7    N     N_1   0.704096 0.684857 0.638988 -0.286968
N8    N     N_1   0.299379 0.314139 0.357754 -0.288512
N9    N     N_2   0.477114 0.526948 0.988358 -0.222316
N10   N     N_R   0.510380 0.712130 0.509560 -0.211649
N11   N     N_R   0.489620 0.287870 0.490440 -0.218742
N12   N     N_2   0.539979 0.981739 0.511965 -0.227744
N13   N     N_2   0.476740 0.017179 0.474869 -0.229421
N14   N     N_1   0.422941 0.295340 0.693615 -0.269387
N15   N     N_1   0.601967 0.699029 0.312068 -0.266549
N16   N     N_1   0.390031 0.314820 0.920470 -0.234281
O1    O     O_R   0.496120 0.420530 0.382500 -0.476688
O2    O     O_R   0.503880 0.579470 0.617500 -0.475616
O3    O     O_R   0.503120 0.563720 0.388950 -0.491544
O4    O     O_R   0.496880 0.436280 0.611050 -0.506460
O5    O     O_R   0.372550 0.428390 0.496770 -0.465856
O6    O     O_R   0.627450 0.571610 0.503230 -0.467609
O7    O     O_R   0.379550 0.571580 0.503220 -0.505320
O8    O     O_R   0.620450 0.428420 0.496780 -0.507243

loop_
_geom_bond_atom_site_label_1
_geom_bond_atom_site_label_2
_ccdc_geom_bond_type
C39   H3    S    
C30   N2    T    
C5    H8    S    
Cu1   O1    S    
C1    C18   S    
C23   C42   A    
C33   C42   S    
C36   C37   S    
C19   C21   A    
C24   C26   A    
C18   C42   A    
C38   C39   S    
C11   C14   T    
C1    O3    A    
Cu2   O3    S    
C45   N11   A    
C25   N1    S    
Cu1   O4    S    
C3    N12   S    
C24   C29   S    
C4    N13   S    
C9    O7    A    
C26   C34   A    
C29   N16   T    
C44   C46   A    
C16   C17   T    
C22   C25   A    
C46   H7    S    
C7    C40   S    
Cu1   O5    S    
C35   C43   S    
C37   H10   S    
C39   H4    S    
C21   C27   S    
C26   N9    S    
C6    H9    S    
Cu2   N10   S    
C36   H14   S    
C19   C43   A    
C2    C45   A    
C40   N7    T    
Cu1   O8    S    
C8    C41   S    
Cu1   N11   S    
C4    C6    A    
N12   N13   D    
C7    N10   A    
C5    C7    A    
C6    C8    A    
C20   C28   S    
Cu2   O6    S    
C23   C31   S    
C2    C4    A    
C38   C44   S    
C2    H1    S    
Cu1   Cu2   S    
C38   H6    S    
C12   O4    A    
C36   C45   S    
C28   N15   T    
C9    C11   S    
C37   H11   S    
C9    O5    A    
N1    N9    D    
C13   C15   T    
C1    O1    A    
C14   C16   S    
C36   H13   S    
C33   N5    T    
C32   N4    T    
C31   N3    T    
C10   O8    A    
C22   C30   S    
C34   C43   A    
C20   C22   A    
C3    C5    A    
C10   C13   S    
C15   C17   S    
C3    C46   A    
Cu2   O2    S    
C38   H5    S    
C35   N6    T    
C12   O2    A    
C12   C19   S    
C10   O6    A    
C8    N11   A    
C44   N10   A    
C18   C20   A    
C23   C25   A    
C37   H12   S    
C39   H2    S    
C21   C24   A    
Cu2   O7    S    
C27   N14   T    
C32   C34   S    
C41   N8    T    
