data_mof_unit_7992.cif
_audit_creation_date              2012-12-10T20:26:27-0500
_audit_creation_method            fapswitch 2.2
_symmetry_space_group_name_H-M    P1
_symmetry_Int_Tables_number       1
_space_group_crystal_system       triclinic
_cell_length_a                    10.641441
_cell_length_b                    10.673471
_cell_length_c                    9.872843
_cell_angle_alpha                 89.828711
_cell_angle_beta                  91.205041
_cell_angle_gamma                 89.985975
_cell_volume                      1121.11541745

loop_
_atom_site_label
_atom_site_type_symbol
_atom_type_description
_atom_site_fract_x
_atom_site_fract_y
_atom_site_fract_z
_atom_type_partial_charge
C1    C     C_R   0.504322 0.259892 0.500242 0.873437
C2    C     C_R   0.526383 0.128598 0.501036 -0.104699
C3    C     C_R   0.547919 0.065186 0.379374 -0.229379
C4    C     C_R   0.548028 0.935585 0.379143 -0.227788
C5    C     C_R   0.526699 0.871271 0.500593 -0.107232
C6    C     C_R   0.530824 0.935521 0.623101 0.136566
C7    C     C_3   0.446018 0.927596 0.741603 -0.470518
C8    C     C_3   0.445751 0.069549 0.741817 -0.498330
C9    C     C_R   0.390670 0.483810 0.068628 0.223095
C10   C     C_R   0.606149 0.526843 0.074100 -0.140248
C11   C     C_R   0.606182 0.526698 0.930319 -0.146945
C12   C     C_R   0.261929 0.502159 0.498535 0.940771
C13   C     C_R   0.390715 0.484086 0.926179 0.227436
C14   C     C_3   0.306266 0.373183 0.917853 -0.512187
C15   C     C_3   0.306384 0.372255 0.071496 -0.518823
C16   C     C_R   0.504686 0.740028 0.499920 0.881797
C17   C     C_R   0.736907 0.485443 0.501544 0.902549
C18   C     C_2   0.931050 0.449662 0.391781 -0.210020
C19   C     C_2   0.864328 0.438307 0.505212 0.021230
C20   C     C_2   0.066316 0.445787 0.395006 -0.178643
C21   C     C_2   0.128415 0.505235 0.494163 -0.366028
C22   C     C_R   0.530675 0.063374 0.623352 0.133745
H1    H     H_    0.888177 0.480926 0.296716 0.153569
H2    H     H_    0.493747 0.110060 0.832690 0.202948
H3    H     H_    0.692402 0.546909 0.129543 0.147782
H4    H     H_    0.692403 0.546335 0.878289 0.151262
H5    H     H_    0.213142 0.396786 0.871363 0.199106
H6    H     H_    0.352968 0.290249 0.873995 0.212777
H7    H     H_    0.212815 0.395151 0.111911 0.193144
H8    H     H_    0.352774 0.288404 0.117293 0.215228
H9    H     H_    0.114206 0.401016 0.312438 0.167676
H10   H     H_    0.080414 0.552613 0.575561 0.148243
H11   H     H_    0.555088 0.114462 0.283753 0.172190
H12   H     H_    0.555236 0.887004 0.283431 0.172901
H13   H     H_    0.352762 0.886261 0.715203 0.202201
H14   H     H_    0.494074 0.886217 0.832270 0.205081
H15   H     H_    0.352288 0.110550 0.715333 0.201759
N1    N     N_R   0.499170 0.499140 0.142800 -0.106773
N2    N     N_R   0.499170 0.499180 0.857150 -0.107715
O1    O     O_R   0.500020 0.316790 0.614690 -0.623997
O2    O     O_R   0.500000 0.316760 0.385350 -0.622611
O3    O     O_R   0.319080 0.500020 0.614640 -0.621064
O4    O     O_R   0.319070 0.499980 0.385300 -0.606462
O5    O     O_R   0.500000 0.683240 0.614650 -0.615098
O6    O     O_R   0.499980 0.683210 0.385310 -0.618697
O7    O     O_R   0.680930 0.500020 0.614700 -0.623123
O8    O     O_R   0.680920 0.499980 0.385360 -0.640541
Zn1   Zn    Zn3+2 0.500010 0.500020 0.653130 0.930288
Zn2   Zn    Zn3+2 0.499990 0.499980 0.346870 0.937151
C23   C     C_3   0.912724 0.370401 0.632858 -0.399738
C24   C     C_3   0.833765 0.254583 0.664347 -0.863954
H16   H     H_    0.738865 0.281413 0.698181 0.279559
H17   H     H_    0.824832 0.193633 0.573611 0.257641
H18   H     H_    0.879976 0.200127 0.747479 0.241572
H19   H     H_    0.010419 0.336144 0.622819 0.231367
H20   H     H_    0.911452 0.435558 0.720399 0.196540

loop_
_geom_bond_atom_site_label_1
_geom_bond_atom_site_label_2
_ccdc_geom_bond_type
C16   O6    A    
C2    C22   A    
C8    C22   S    
C6    C7    S    
C8    H2    S    
C14   H5    S    
C23   H20   S    
C7    H14   S    
C16   O5    A    
C18   C20   S    
C23   H19   S    
C11   H4    S    
O6    Zn2   S    
C10   N1    A    
C24   H18   S    
C23   C24   S    
C9    C15   S    
C7    C8    S    
O8    Zn2   S    
N1    Zn2   S    
O3    Zn1   S    
C13   C14   S    
C17   O7    A    
C11   N2    A    
C19   C23   S    
C10   H3    S    
O2    Zn2   S    
C9    N1    A    
C17   C19   S    
C15   H7    S    
C12   O4    A    
C2    C3    A    
C5    C6    A    
C21   H10   S    
C4    H12   S    
C13   N2    A    
C10   C11   A    
C3    H11   S    
C24   H17   S    
C18   H1    S    
C6    C22   A    
O7    Zn1   S    
O5    Zn1   S    
C24   H16   S    
C20   C21   D    
C15   H8    S    
C1    C2    S    
C8    H15   S    
C1    O2    A    
O1    Zn1   S    
C9    C13   A    
C14   C15   S    
C18   C19   D    
C5    C16   S    
C12   O3    A    
C1    O1    A    
C14   H6    S    
C7    H13   S    
C12   C21   S    
O4    Zn2   S    
C3    C4    A    
C17   O8    A    
C4    C5    A    
N2    Zn1   S    
C20   H9    S    
