data_mof_unit_22532.cif
_audit_creation_date              2012-12-10T18:47:44-0500
_audit_creation_method            fapswitch 2.2
_symmetry_space_group_name_H-M    P1
_symmetry_Int_Tables_number       1
_space_group_crystal_system       triclinic
_cell_length_a                    9.82281
_cell_length_b                    10.763688
_cell_length_c                    15.665388
_cell_angle_alpha                 90.028353
_cell_angle_beta                  68.271332
_cell_angle_gamma                 89.256229
_cell_volume                      1538.45743107

loop_
_atom_site_label
_atom_site_type_symbol
_atom_type_description
_atom_site_fract_x
_atom_site_fract_y
_atom_site_fract_z
_atom_type_partial_charge
C1    C     C_R   0.498568 0.740088 0.500343 0.925409
C2    C     C_R   0.500514 0.259725 0.500628 0.925899
C3    C     C_R   0.333381 0.575462 0.097325 -0.235133
C4    C     C_R   0.677970 0.498688 0.897279 -0.222774
C5    C     C_R   0.233840 0.594507 0.054499 -0.248140
C6    C     C_R   0.780042 0.484201 0.938779 -0.243065
C7    C     C_R   0.612041 0.932611 0.512874 -0.358523
C8    C     C_R   0.384126 0.066639 0.489202 -0.368486
C9    C     C_R   0.617719 0.059929 0.511247 0.487287
C10   C     C_R   0.380875 0.938873 0.487524 0.483180
C11   C     C_R   0.501851 0.127092 0.500369 -0.202332
C12   C     C_R   0.496135 0.872358 0.500229 -0.201953
C13   C     C_R   0.969181 0.441860 0.431122 -0.076861
C14   C     C_R   0.031661 0.561088 0.567489 -0.057073
C15   C     C_R   0.112942 0.441108 0.431379 -0.102532
C16   C     C_R   0.887518 0.560536 0.567763 -0.085691
C17   C     C_R   0.409188 0.501655 0.675258 0.879737
C18   C     C_R   0.590768 0.498362 0.324594 0.855129
C19   C     C_R   0.354785 0.516443 0.774411 -0.048985
C20   C     C_R   0.645253 0.495057 0.224719 -0.048312
C21   C     C_R   0.174895 0.591481 0.917594 -0.227734
C22   C     C_R   0.838132 0.469672 0.075803 -0.221658
C23   C     C_R   0.214468 0.565132 0.824443 -0.201558
C24   C     C_R   0.794432 0.475683 0.170982 -0.212727
C25   C     C_R   0.454114 0.494635 0.817203 -0.258864
C26   C     C_R   0.541625 0.509242 0.183320 -0.271809
C27   C     C_R   0.420221 0.528699 0.908925 0.096563
C28   C     C_R   0.584372 0.512518 0.088364 0.093560
C29   C     C_R   0.275626 0.571609 0.960712 0.180899
C30   C     C_R   0.734873 0.488638 0.033969 0.180495
C31   C     C_R   0.526477 0.519444 0.950036 0.068312
C32   C     C_R   0.480400 0.535260 0.046521 0.068573
H1    H     H_    0.122752 0.625216 0.094946 0.148582
H2    H     H_    0.894991 0.468729 0.896070 0.151161
H3    H     H_    0.426272 0.514672 0.226796 0.153566
H4    H     H_    0.558170 0.450350 0.777324 0.160724
H5    H     H_    0.875734 0.462683 0.202440 0.150191
H6    H     H_    0.137583 0.585199 0.791230 0.151773
H7    H     H_    0.066670 0.629155 0.955519 0.145301
H8    H     H_    0.952065 0.450352 0.035364 0.149510
H9    H     H_    0.292474 0.597492 0.169826 0.141482
H10   H     H_    0.722392 0.497969 0.823087 0.145246
H11   H     H_    0.698505 0.881390 0.525168 0.197267
H12   H     H_    0.292918 0.117971 0.482844 0.193494
H13   H     H_    0.947542 0.395281 0.375864 0.115383
H14   H     H_    0.054103 0.609822 0.621439 0.133692
H15   H     H_    0.199915 0.392801 0.376825 0.129088
H16   H     H_    0.800402 0.608678 0.622295 0.134227
N1    N     N_R   0.142780 0.500030 0.500020 -0.072095
N2    N     N_R   0.857220 0.499970 0.499980 -0.070478
O1    O     O_R   0.385370 0.683250 0.500010 -0.558332
O2    O     O_R   0.614630 0.316750 0.499990 -0.575981
O3    O     O_R   0.614700 0.683220 0.500000 -0.635065
O4    O     O_R   0.385300 0.316780 0.500000 -0.628435
O5    O     O_R   0.319830 0.500020 0.632250 -0.624934
O6    O     O_R   0.680170 0.499980 0.367750 -0.630389
O7    O     O_R   0.549160 0.499990 0.632240 -0.621492
O8    O     O_R   0.450840 0.500010 0.367760 -0.632848
Zn1   Zn    Zn3+2 0.346870 0.500020 0.500000 0.957779
Zn2   Zn    Zn3+2 0.653130 0.499980 0.500000 0.955025
O9    O     O_3   0.727351 0.117029 0.530783 -0.581657
C33   C     C_3   0.856930 0.112320 0.452621 0.103776
H17   H     H_    0.852099 0.182808 0.402104 0.142382
H18   H     H_    0.877721 0.019281 0.419127 0.121566
C34   C     C_3   0.984391 0.141583 0.480915 -0.804648
H19   H     H_    0.005691 0.061765 0.519145 0.270416
H20   H     H_    0.083050 0.160375 0.419430 0.178444
H21   H     H_    0.959383 0.224282 0.525750 0.276979
O10   O     O_3   0.257814 0.879922 0.484597 -0.593933
C35   C     C_3   0.257297 0.884285 0.395012 0.112310
H22   H     H_    0.364353 0.852971 0.343561 0.125747
H23   H     H_    0.233889 0.979649 0.378339 0.125742
C36   C     C_3   0.138304 0.799520 0.388059 -0.781138
H24   H     H_    0.086856 0.842123 0.342702 0.189609
H25   H     H_    0.186928 0.708440 0.358902 0.230413
H26   H     H_    0.050777 0.783397 0.456561 0.269713

loop_
_geom_bond_atom_site_label_1
_geom_bond_atom_site_label_2
_ccdc_geom_bond_type
O5    Zn1   S    
C27   C29   A    
C36   H24   S    
C15   H15   S    
C16   H16   S    
C14   H14   S    
C4    H10   S    
C9    O9    S    
C16   N2    A    
C14   N1    A    
C1    O3    A    
C33   H18   S    
O2    Zn2   S    
C18   O8    A    
C20   C24   A    
C34   H20   S    
C5    H1    S    
C35   H22   S    
C14   C16   A    
C7    H11   S    
C17   O5    A    
O9    C33   S    
C18   O6    A    
C36   H25   S    
O10   C35   S    
C1    C12   S    
C2    C11   S    
C10   C12   A    
O3    Zn2   S    
C5    C29   A    
O4    Zn1   S    
C21   C23   A    
C7    C12   A    
C27   C31   A    
C28   C32   A    
C4    C6    A    
C2    O4    A    
O7    Zn2   S    
O8    Zn1   S    
C21   C29   A    
C6    H2    S    
C19   C23   A    
C33   H17   S    
C1    O1    A    
C31   C32   A    
C21   H7    S    
C34   H21   S    
C22   H8    S    
C35   C36   S    
C24   H5    S    
C9    C11   A    
C2    O2    A    
C6    C30   A    
C13   C15   A    
C36   H26   S    
C22   C24   A    
O1    Zn1   S    
C7    C9    A    
C3    H9    S    
C22   C30   A    
C33   C34   S    
C8    H12   S    
C3    C5    A    
C25   C27   A    
C23   H6    S    
C26   C28   A    
N1    Zn1   S    
N2    Zn2   S    
C28   C30   A    
C13   H13   S    
C20   C26   A    
C8    C11   A    
C17   C19   S    
C18   C20   S    
C15   N1    A    
C3    C32   A    
C19   C25   A    
C4    C31   A    
C25   H4    S    
C13   N2    A    
C10   O10   S    
O6    Zn2   S    
C26   H3    S    
C8    C10   A    
C34   H19   S    
C35   H23   S    
C17   O7    A    
