data_mof_unit_47558.cif
_audit_creation_date              2012-12-10T18:09:12-0500
_audit_creation_method            fapswitch 2.2
_symmetry_space_group_name_H-M    P1
_symmetry_Int_Tables_number       1
_space_group_crystal_system       triclinic
_cell_length_a                    12.596653
_cell_length_b                    13.214283
_cell_length_c                    13.681977
_cell_angle_alpha                 90.995112
_cell_angle_beta                  96.826945
_cell_angle_gamma                 97.146823
_cell_volume                      2242.53146354

loop_
_atom_site_label
_atom_site_type_symbol
_atom_type_description
_atom_site_fract_x
_atom_site_fract_y
_atom_site_fract_z
_atom_type_partial_charge
C1    C     C_R   0.558812 0.690927 0.518153 0.876562
C2    C     C_R   0.465135 0.035259 0.541619 0.015386
C3    C     C_R   0.356272 0.991875 0.538855 -0.000131
C4    C     C_R   0.516483 0.496600 0.318213 0.924952
C5    C     C_R   0.333444 0.892471 0.572392 0.448962
C6    C     C_R   0.417013 0.832190 0.586034 -0.274957
C7    C     C_R   0.486288 0.139528 0.530603 -0.241369
C8    C     C_R   0.299075 0.148044 0.468264 0.067122
C9    C     C_R   0.594678 0.799416 0.540968 -0.077074
C10   C     C_R   0.900148 0.358537 0.647577 -0.313565
C11   C     C_R   0.202516 0.624494 0.379935 0.538562
C12   C     C_1   0.525176 0.491898 0.217027 -0.115339
C13   C     C_R   0.104052 0.662524 0.373402 -0.211885
C14   C     C_R   0.026324 0.623114 0.428854 -0.232608
C15   C     C_R   0.044158 0.542022 0.490308 0.037577
C16   C     C_R   0.440220 0.307934 0.488741 0.832769
C17   C     C_R   0.149372 0.512458 0.505652 0.176380
C18   C     C_R   0.959861 0.488215 0.534812 0.013020
C19   C     C_R   0.983489 0.413996 0.604650 0.193209
C20   C     C_R   0.089237 0.393216 0.627402 -0.289146
C21   C     C_R   0.169973 0.438341 0.575184 -0.154524
C22   C     C_R   0.851307 0.501525 0.508129 -0.054312
C23   C     C_R   0.274522 0.048103 0.499464 -0.119998
C24   C     C_R   0.794525 0.375820 0.618759 0.012132
C25   C     C_R   0.483163 0.502604 0.681623 0.876387
C26   C     C_1   0.469878 0.497803 0.781642 -0.179428
C27   C     C_2   0.442035 0.486361 0.966712 0.102696
C28   C     C_2   0.532073 0.481837 0.027953 -0.197333
C29   C     C_1   0.530953 0.487035 0.131139 0.009372
C30   C     C_1   0.455675 0.492606 0.865652 -0.013748
C31   C     C_3   0.333784 0.497869 0.001694 -0.320842
C32   C     C_3   0.237872 0.474835 0.920442 -0.379030
C33   C     C_3   0.131250 0.482611 0.960825 -0.804495
C34   C     C_R   0.405624 0.197571 0.493876 -0.081652
C35   C     C_3   0.213663 0.191659 0.399642 -0.415768
C36   C     C_3   0.111469 0.200979 0.448108 -0.339690
C37   C     C_3   0.035113 0.262339 0.385885 -0.840062
C38   C     C_R   0.702252 0.837672 0.533348 -0.173097
C39   C     C_R   0.734090 0.942023 0.536446 -0.134626
C40   C     C_R   0.658139 0.009166 0.541605 -0.159705
C41   C     C_R   0.548958 0.972532 0.550862 0.103925
C42   C     C_R   0.520313 0.867045 0.560208 0.019226
H1    H     H_    0.608931 0.477182 0.000397 0.151962
H2    H     H_    0.192467 0.012166 0.485328 0.206502
H3    H     H_    0.566802 0.176544 0.551815 0.162633
H4    H     H_    0.761087 0.787069 0.521041 0.155668
H5    H     H_    0.687315 0.088549 0.534784 0.125651
H6    H     H_    0.816867 0.971058 0.528845 0.148266
H7    H     H_    0.168369 0.709263 0.162865 0.352426
H8    H     H_    0.119202 0.426384 0.019182 0.261668
H9    H     H_    0.130252 0.560674 0.991897 0.273459
H10   H     H_    0.063731 0.466301 0.900445 0.250087
H11   H     H_    0.246028 0.530143 0.860629 0.253771
H12   H     H_    0.400477 0.757259 0.615371 0.205608
H13   H     H_    0.236326 0.396522 0.888768 0.224522
H14   H     H_    0.320457 0.444686 0.062433 0.226749
H15   H     H_    0.336540 0.577321 0.030821 0.250154
H16   H     H_    0.075557 0.340060 0.374675 0.259865
H17   H     H_    0.008471 0.223270 0.312981 0.261802
H18   H     H_    0.963043 0.269242 0.423824 0.252653
H19   H     H_    0.067751 0.124096 0.457393 0.221580
H20   H     H_    0.133978 0.237438 0.522172 0.235011
H21   H     H_    0.244376 0.265566 0.370246 0.232321
H22   H     H_    0.191519 0.139124 0.334010 0.207579
H23   H     H_    0.729104 0.334313 0.651885 0.133558
H24   H     H_    0.040456 0.829577 0.536802 0.375911
H25   H     H_    0.108118 0.335961 0.680289 0.151454
H26   H     H_    0.916325 0.301708 0.701648 0.151803
H27   H     H_    0.825355 0.553697 0.453439 0.128052
H28   H     H_    0.952514 0.657244 0.420967 0.151642
H29   H     H_    0.084554 0.721114 0.322570 0.201146
H30   H     H_    0.245793 0.409455 0.587001 0.204759
N1    N     N_R   0.773270 0.445590 0.549770 -0.101967
N2    N     N_R   0.227520 0.553880 0.450750 -0.187497
O1    O     O_R   0.631100 0.627590 0.523760 -0.626037
O2    O     O_2   0.279940 0.568728 0.216258 -0.370929
O3    O     O_3   0.221392 0.748722 0.213076 -0.553428
O4    O     O_2   0.205795 0.739497 0.645278 -0.300259
O5    O     O_2   0.178804 0.915381 0.684931 -0.305746
O6    O     O_3   0.109826 0.841833 0.508901 -0.603027
O7    O     O_R   0.455900 0.662370 0.491970 -0.569520
O8    O     O_R   0.600200 0.480080 0.377830 -0.629583
O9    O     O_R   0.425000 0.514870 0.346040 -0.520580
O10   O     O_R   0.544100 0.337630 0.508030 -0.621313
O11   O     O_R   0.368900 0.372410 0.476240 -0.647884
O12   O     O_R   0.575000 0.485130 0.653960 -0.609006
O13   O     O_R   0.399800 0.519920 0.622170 -0.632942
O14   O     O_2   0.392057 0.706729 0.316926 -0.243574
S1    S     S_3+6 0.278766 0.660900 0.281797 0.031871
S2    S     S_3+6 0.205191 0.845110 0.606226 -0.003580
Zn1   Zn    Zn3+2 0.616980 0.476780 0.521230 0.944051
Zn2   Zn    Zn3+2 0.383020 0.523220 0.478770 1.008835

loop_
_geom_bond_atom_site_label_1
_geom_bond_atom_site_label_2
_ccdc_geom_bond_type
C40   H5    S    
C12   C29   T    
C15   C18   A    
C41   C42   A    
C20   H25   S    
C3    C23   A    
C35   C36   S    
C25   O13   A    
O4    S2    D    
C33   H10   S    
O9    Zn2   S    
O3    S1    S    
C9    C42   A    
C7    H3    S    
C36   C37   S    
O12   Zn1   S    
C38   C39   A    
C24   N1    A    
C2    C41   A    
C1    O7    A    
C16   O10   A    
C8    C23   A    
C18   C19   A    
N2    Zn2   S    
C25   O12   A    
O5    S2    D    
C2    C7    A    
C16   C34   S    
O7    Zn2   S    
C19   C20   A    
C35   H22   S    
O10   Zn1   S    
C31   H14   S    
C4    C12   S    
C22   H27   S    
C5    S2    S    
O1    Zn1   S    
O2    S1    D    
C13   C14   A    
C27   C30   S    
C14   H28   S    
C6    H12   S    
C36   H20   S    
O11   Zn2   S    
C21   H30   S    
C27   C31   S    
C1    O1    A    
C1    C9    S    
N1    Zn1   S    
C39   C40   A    
C13   H29   S    
C10   C24   A    
C25   C26   S    
C17   C21   A    
O8    Zn1   S    
C8    C35   S    
C11   S1    S    
C31   C32   S    
C10   C19   A    
C8    C34   A    
O14   S1    D    
C37   H17   S    
C24   H23   S    
C40   C41   A    
C26   C30   T    
C16   O11   A    
C7    C34   A    
C36   H19   S    
C32   H11   S    
C15   C17   A    
C28   C29   S    
C32   H13   S    
C17   N2    A    
C18   C22   A    
C37   H16   S    
C3    C5    A    
C11   N2    A    
C10   H26   S    
C33   H9    S    
H24   O6    S    
C28   H1    S    
C32   C33   S    
C31   H15   S    
C2    C3    A    
C33   H8    S    
C11   C13   A    
C5    C6    A    
C4    O9    A    
C9    C38   A    
H7    O3    S    
O6    S2    S    
C38   H4    S    
C37   H18   S    
C23   H2    S    
C4    O8    A    
C20   C21   A    
C6    C42   A    
C27   C28   D    
C14   C15   A    
C35   H21   S    
C22   N1    A    
O13   Zn2   S    
C39   H6    S    
