data_mof_unit_48131.cif
_audit_creation_date              2012-12-10T18:54:26-0500
_audit_creation_method            fapswitch 2.2
_symmetry_space_group_name_H-M    P1
_symmetry_Int_Tables_number       1
_space_group_crystal_system       triclinic
_cell_length_a                    19.413676
_cell_length_b                    18.225767
_cell_length_c                    9.051732
_cell_angle_alpha                 89.995646
_cell_angle_beta                  91.491519
_cell_angle_gamma                 89.971148
_cell_volume                      3201.68095543

loop_
_atom_site_label
_atom_site_type_symbol
_atom_type_description
_atom_site_fract_x
_atom_site_fract_y
_atom_site_fract_z
_atom_type_partial_charge
C1    C     C_R   0.367568 0.499944 0.500849 0.813902
C2    C     C_R   0.632428 0.499915 0.498714 0.813094
C3    C     C_R   0.454603 0.721754 0.409179 0.343507
C4    C     C_R   0.536658 0.278493 0.607520 0.315379
C5    C     C_R   0.545437 0.721608 0.590892 0.346268
C6    C     C_R   0.463355 0.278505 0.392515 0.315461
C7    C     C_R   0.453020 0.799765 0.409807 0.080612
C8    C     C_R   0.536716 0.200219 0.610664 0.073817
C9    C     C_R   0.547083 0.799619 0.590445 0.080954
C10   C     C_R   0.463289 0.200229 0.389501 0.073660
C11   C     C_R   0.500064 0.839349 0.500168 -0.107560
C12   C     C_R   0.500006 0.160710 0.500107 -0.049264
C13   C     C_R   0.466553 0.961338 0.610779 -0.211627
C14   C     C_R   0.532597 0.038509 0.388152 -0.180291
C15   C     C_R   0.533590 0.961315 0.389614 -0.211829
C16   C     C_R   0.467487 0.038532 0.612169 -0.180106
C17   C     C_R   0.500025 0.078108 0.500139 0.220769
C18   C     C_R   0.500089 0.921818 0.500217 0.199073
C19   C     C_R   0.499954 0.499982 0.220576 0.854792
C20   C     C_R   0.500045 0.499978 0.779424 0.855009
C21   C     C_1   0.500001 0.499917 0.065567 -0.218003
C22   C     C_1   0.499997 0.499912 0.934434 -0.218039
C23   C     C_R   0.742737 0.435237 0.454468 -0.276413
C24   C     C_R   0.254367 0.562009 0.460311 -0.201623
C25   C     C_R   0.256840 0.435431 0.541050 -0.280248
C26   C     C_R   0.745885 0.562232 0.532340 -0.260593
C27   C     C_R   0.814692 0.432961 0.454930 0.231303
C28   C     C_R   0.182361 0.561149 0.455323 0.231259
C29   C     C_R   0.184894 0.432998 0.535382 0.254903
C30   C     C_R   0.817883 0.561677 0.530777 0.228472
C31   C     C_R   0.852651 0.496504 0.493128 0.020051
C32   C     C_R   0.147397 0.495862 0.491533 -0.021369
C33   C     C_R   0.708032 0.499256 0.495113 -0.104525
C34   C     C_R   0.291920 0.499325 0.501348 -0.130271
C35   C     C_R   0.966247 0.508139 0.624472 -0.160945
C36   C     C_R   0.034318 0.480981 0.361186 -0.219222
C37   C     C_R   0.037962 0.507677 0.624064 -0.154295
C38   C     C_R   0.962610 0.480985 0.361703 -0.151808
C39   C     C_R   0.072010 0.494334 0.492364 0.149105
C40   C     C_R   0.928340 0.494916 0.493225 0.159622
Cu1   Cu    Cu3+1 0.500000 0.573360 0.500000 0.965294
Cu2   Cu    Cu3+1 0.500000 0.426640 0.500000 0.967022
H1    H     H_    0.440178 0.932282 0.696999 0.135271
H2    H     H_    0.558257 0.067509 0.300859 0.137934
H3    H     H_    0.559969 0.932241 0.303393 0.134986
H4    H     H_    0.441803 0.067551 0.699432 0.138104
N1    N     N_R   0.500000 0.683620 0.500000 -0.234331
N2    N     N_R   0.500000 0.316380 0.500000 -0.218007
O1    O     O_R   0.400190 0.561980 0.499980 -0.568448
O2    O     O_R   0.599810 0.438020 0.500020 -0.565416
O3    O     O_R   0.599810 0.561980 0.500020 -0.566458
O4    O     O_R   0.400190 0.438020 0.499980 -0.563359
O5    O     O_R   0.500000 0.561940 0.288400 -0.560903
O6    O     O_R   0.500000 0.438060 0.711600 -0.559695
O7    O     O_R   0.500000 0.561940 0.711600 -0.560478
O8    O     O_R   0.500000 0.438060 0.288400 -0.559678
H5    H     H_    0.714025 0.386511 0.423092 0.154927
H6    H     H_    0.280819 0.611659 0.429943 0.162573
H7    H     H_    0.285209 0.387083 0.576419 0.157069
H8    H     H_    0.719696 0.612199 0.562056 0.151918
N3    N     N_2   0.848614 0.366438 0.417845 -0.432926
H9    H     H_    0.821772 0.335206 0.340693 0.243725
C41   C     C_3   0.871198 0.323301 0.544225 -0.688227
H10   H     H_    0.899741 0.274343 0.505963 0.224871
H11   H     H_    0.826028 0.304744 0.607367 0.214065
H12   H     H_    0.906247 0.355687 0.617892 0.242802
N4    N     N_2   0.146177 0.626164 0.412472 -0.432007
H13   H     H_    0.097946 0.618258 0.364973 0.257471
C42   C     C_3   0.147230 0.683564 0.522801 -0.695775
H14   H     H_    0.120349 0.732850 0.477875 0.224736
H15   H     H_    0.201068 0.699231 0.552998 0.229502
H16   H     H_    0.120437 0.664877 0.623109 0.226236
N5    N     N_2   0.150345 0.367576 0.576537 -0.422858
H17   H     H_    0.173650 0.341214 0.665489 0.242758
C43   C     C_3   0.136645 0.317754 0.454972 -0.692302
H18   H     H_    0.106526 0.270193 0.494506 0.225231
H19   H     H_    0.185836 0.297370 0.409886 0.211618
H20   H     H_    0.106120 0.345384 0.365752 0.240946
N6    N     N_2   0.855052 0.626776 0.567672 -0.433852
H21   H     H_    0.830877 0.659563 0.643480 0.245338
C44   C     C_3   0.877385 0.668301 0.441425 -0.693321
H22   H     H_    0.908496 0.716017 0.480031 0.224615
H23   H     H_    0.832012 0.688715 0.376179 0.218636
H24   H     H_    0.909948 0.634073 0.369620 0.237328
H25   H     H_    0.940214 0.518646 0.726743 0.133586
H26   H     H_    0.060511 0.471050 0.258876 0.128834
H27   H     H_    0.066970 0.518218 0.725695 0.125583
H28   H     H_    0.933767 0.471176 0.259570 0.135963
N7    N     N_2   0.405620 0.682732 0.320124 -0.361718
H29   H     H_    0.355461 0.697538 0.339913 0.234702
C45   C     C_3   0.419069 0.679586 0.163450 -0.612067
H30   H     H_    0.389132 0.722377 0.102955 0.208452
H31   H     H_    0.401945 0.625620 0.119377 0.219049
H32   H     H_    0.474816 0.686535 0.141567 0.217400
N8    N     N_2   0.573535 0.318397 0.718863 -0.366937
H33   H     H_    0.555587 0.311843 0.824276 0.222934
C46   C     C_3   0.647914 0.319185 0.710773 -0.645764
H34   H     H_    0.670987 0.281393 0.794593 0.195906
H35   H     H_    0.667011 0.375338 0.735441 0.231356
H36   H     H_    0.665180 0.303089 0.599249 0.215698
N9    N     N_2   0.594382 0.682411 0.679852 -0.360669
H37   H     H_    0.644600 0.696773 0.659614 0.229650
C47   C     C_3   0.581122 0.679441 0.836620 -0.618232
H38   H     H_    0.611264 0.722140 0.896801 0.207333
H39   H     H_    0.598137 0.625430 0.880769 0.218474
H40   H     H_    0.525424 0.686641 0.858783 0.218877
N10   N     N_2   0.426515 0.318419 0.281060 -0.366946
H41   H     H_    0.444471 0.311778 0.175674 0.222888
C48   C     C_3   0.352137 0.319326 0.289102 -0.645487
H42   H     H_    0.329061 0.281408 0.205585 0.195908
H43   H     H_    0.333057 0.375457 0.263950 0.232454
H44   H     H_    0.334864 0.303479 0.400759 0.215291
N11   N     N_2   0.401549 0.837516 0.324140 -0.417770
H45   H     H_    0.373670 0.875371 0.382639 0.255631
C49   C     C_3   0.422413 0.864428 0.181393 -0.691905
H46   H     H_    0.431806 0.924462 0.186464 0.231507
H47   H     H_    0.380254 0.854586 0.098712 0.221264
H48   H     H_    0.469773 0.836499 0.143522 0.222092
N12   N     N_2   0.572138 0.161270 0.726755 -0.417858
H49   H     H_    0.574620 0.187667 0.827352 0.247456
C50   C     C_3   0.637001 0.127917 0.688027 -0.680432
H50   H     H_    0.659955 0.099685 0.786257 0.215320
H51   H     H_    0.673748 0.169997 0.649941 0.216493
H52   H     H_    0.629487 0.086474 0.599696 0.239011
N13   N     N_2   0.598591 0.837217 0.676169 -0.419493
H53   H     H_    0.626537 0.874993 0.617683 0.254874
C51   C     C_3   0.577719 0.864214 0.818856 -0.693982
H54   H     H_    0.568348 0.924260 0.813676 0.231924
H55   H     H_    0.619865 0.854342 0.901579 0.219979
H56   H     H_    0.530348 0.836364 0.856752 0.222893
N14   N     N_2   0.427821 0.161282 0.273539 -0.417959
H57   H     H_    0.425319 0.187637 0.172888 0.247482
C52   C     C_3   0.362955 0.128059 0.312451 -0.679675
H58   H     H_    0.339931 0.099852 0.214301 0.215599
H59   H     H_    0.326257 0.170215 0.350590 0.216035
H60   H     H_    0.370490 0.086617 0.400808 0.239079

loop_
_geom_bond_atom_site_label_1
_geom_bond_atom_site_label_2
_ccdc_geom_bond_type
C19   O8    A    
C15   C18   A    
C41   H11   S    
C11   C18   S    
N9    H37   S    
N5    C43   S    
Cu1   Cu2   S    
N8    H33   S    
C4    C8    A    
C44   H24   S    
C46   H34   S    
C7    C11   A    
C5    N1    A    
C6    N2    A    
C13   C18   A    
C35   C37   A    
C29   C32   A    
C3    C7    A    
C1    O4    A    
C48   H43   S    
C30   C31   A    
C29   N5    S    
C49   H46   S    
C31   C40   S    
N3    C41   S    
N5    H17   S    
C32   C39   S    
C42   H15   S    
C10   N14   S    
Cu1   O7    S    
C50   H52   S    
C2    O2    A    
Cu2   O8    S    
C16   C17   A    
C23   C33   A    
C12   C17   S    
C52   H60   S    
C6    N10   S    
C23   C27   A    
N7    C45   S    
C27   N3    S    
C25   C34   A    
C19   O5    A    
C41   H12   S    
N9    C47   S    
C21   C22   T    
N10   C48   S    
C14   C17   A    
N3    H9    S    
C20   O7    A    
Cu1   O1    S    
C46   H35   S    
C1    C34   S    
C44   H22   S    
N12   C50   S    
C25   C29   A    
C5    N9    S    
C27   C31   A    
N4    H13   S    
C28   C32   A    
C28   N4    S    
C20   O6    A    
C48   H44   S    
C16   H4    S    
C45   H30   S    
N6    C44   S    
C49   H47   S    
C9    N13   S    
C41   H10   S    
C38   H28   S    
N4    C42   S    
C42   H16   S    
C43   H18   S    
C51   H55   S    
C5    C9    A    
C45   H31   S    
C4    N8    S    
C43   H19   S    
C44   H23   S    
C26   C33   A    
C8    C12   A    
C49   H48   S    
Cu1   N1    S    
C47   H39   S    
Cu2   N2    S    
N13   C51   S    
C9    C11   A    
Cu1   O5    S    
C50   H50   S    
C10   C12   A    
Cu2   O2    S    
C30   N6    S    
C2    C33   S    
C20   C22   S    
C26   C30   A    
N13   H53   S    
C15   H3    S    
N10   H41   S    
C51   H54   S    
C13   H1    S    
C46   H36   S    
C14   H2    S    
N11   H45   S    
C4    N2    A    
C23   H5    S    
C19   C21   S    
C37   H27   S    
C36   C39   A    
C24   C28   A    
N14   C52   S    
C6    C10   A    
N12   H49   S    
N8    C46   S    
C3    N7    S    
C36   H26   S    
C7    N11   S    
C36   C38   A    
C35   C40   A    
C51   H56   S    
C37   C39   A    
C48   H42   S    
Cu2   O6    S    
C45   H32   S    
C38   C40   A    
C35   H25   S    
C52   H58   S    
C1    O1    A    
C3    N1    A    
C47   H40   S    
C42   H14   S    
C43   H20   S    
C24   C34   A    
C50   H51   S    
C2    O3    A    
N6    H21   S    
C24   H6    S    
C13   C16   A    
C47   H38   S    
C52   H59   S    
C14   C15   A    
C25   H7    S    
N7    H29   S    
C26   H8    S    
Cu1   O3    S    
N14   H57   S    
C8    N12   S    
Cu2   O4    S    
N11   C49   S    
