data_mof_unit_56583.cif
_audit_creation_date              2012-12-10T16:38:42-0500
_audit_creation_method            fapswitch 2.2
_symmetry_space_group_name_H-M    P1
_symmetry_Int_Tables_number       1
_space_group_crystal_system       triclinic
_cell_length_a                    10.90472
_cell_length_b                    10.843942
_cell_length_c                    17.831948
_cell_angle_alpha                 97.657683
_cell_angle_beta                  73.41098
_cell_angle_gamma                 98.119597
_cell_volume                      1990.98559228

loop_
_atom_site_label
_atom_site_type_symbol
_atom_type_description
_atom_site_fract_x
_atom_site_fract_y
_atom_site_fract_z
_atom_type_partial_charge
C1    C     C_R   0.158955 0.481269 0.516520 0.509291
C2    C     C_R   0.588748 0.385954 0.922312 -0.143507
C3    C     C_R   0.643393 0.319549 0.963333 -0.145169
C4    C     C_R   0.842661 0.519683 0.483224 0.513881
C5    C     C_R   0.616641 0.341668 0.044529 0.044011
C6    C     C_R   0.532184 0.431579 0.085496 0.046204
C7    C     C_R   0.677086 0.278083 0.085157 -0.139714
C8    C     C_R   0.659729 0.307880 0.165605 -0.131491
C9    C     C_R   0.530275 0.470959 0.164128 -0.089630
C10   C     C_2   0.978916 0.522838 0.478162 -0.100376
C11   C     C_2   0.022083 0.469530 0.529063 0.004047
C12   C     C_R   0.354520 0.695416 0.837718 -0.119450
C13   C     C_2   0.538628 0.964939 0.469668 0.029798
C14   C     C_2   0.460991 0.037228 0.524521 -0.123294
C15   C     C_R   0.465962 0.169014 0.519573 0.538064
C16   C     C_R   0.529299 0.832478 0.481192 0.493484
C17   C     C_R   0.564890 0.435185 0.288519 0.511405
C18   C     C_R   0.437518 0.563553 0.712147 0.494792
C19   C     C_R   0.413845 0.590544 0.797675 0.004485
C20   C     C_R   0.589679 0.407064 0.204231 0.031608
C21   C     C_R   0.333376 0.720252 0.919366 -0.004431
C22   C     C_3   0.155611 0.651367 0.077292 -0.249722
C23   C     C_R   0.458765 0.514320 0.838660 -0.136761
C24   C     C_3   0.054983 0.536631 0.078854 -0.300799
C25   C     C_3   0.918786 0.575304 0.108449 -0.436831
C26   C     C_3   0.936925 0.403455 0.599778 -0.233987
C27   C     C_3   0.010086 0.357168 0.650978 -0.309401
C28   C     C_3   0.917175 0.293471 0.719909 -0.463589
C29   C     C_2   0.632607 0.014042 0.397957 0.584920
C30   C     C_3   0.301020 0.850298 0.956873 -0.264910
C31   C     C_3   0.402119 0.953992 0.919131 -0.304416
C32   C     C_3   0.368818 0.082853 0.959529 -0.435774
C33   C     C_2   0.273140 0.519622 0.166758 0.533341
C34   C     C_R   0.437768 0.535683 0.920544 -0.001662
C35   C     C_R   0.356576 0.627916 0.962178 0.035703
C36   C     C_R   0.494064 0.467009 0.961905 0.008175
C37   C     C_R   0.458504 0.483710 0.045361 0.000025
C38   C     C_R   0.346172 0.544780 0.084984 0.054083
C39   C     C_R   0.293151 0.615715 0.042691 -0.021596
H1    H     H_    0.738105 0.206112 0.054671 0.113389
H2    H     H_    0.900527 0.618313 0.170214 0.187526
H3    H     H_    0.904127 0.642791 0.070897 0.155310
H4    H     H_    0.848740 0.491655 0.105958 0.161333
H5    H     H_    0.068348 0.488545 0.018398 0.163312
H6    H     H_    0.065192 0.468834 0.117436 0.201396
H7    H     H_    0.143879 0.702277 0.136637 0.202200
H8    H     H_    0.130465 0.714858 0.042080 0.134553
H9    H     H_    0.851745 0.360275 0.758045 0.150911
H10   H     H_    0.859039 0.211366 0.698158 0.158553
H11   H     H_    0.972441 0.260833 0.755607 0.143676
H12   H     H_    0.047400 0.570465 0.430816 0.093489
H13   H     H_    0.076111 0.289038 0.614975 0.168840
H14   H     H_    0.067702 0.437510 0.674925 0.178270
H15   H     H_    0.871083 0.469715 0.638362 0.167964
H16   H     H_    0.879866 0.320386 0.577956 0.186571
H17   H     H_    0.751094 0.158895 0.347652 0.329685
H18   H     H_    0.270094 0.097465 0.959382 0.156368
H19   H     H_    0.375500 0.092818 0.021099 0.180257
H20   H     H_    0.437324 0.155817 0.927134 0.156480
H21   H     H_    0.498457 0.939150 0.923714 0.171258
H22   H     H_    0.407088 0.952636 0.855964 0.157087
H23   H     H_    0.396620 0.000432 0.577268 0.095493
H24   H     H_    0.205422 0.864696 0.950878 0.135763
H25   H     H_    0.297358 0.860617 0.020274 0.159487
H26   H     H_    0.190580 0.589417 0.277585 0.339817
H27   H     H_    0.483695 0.551662 0.195253 0.140302
H28   H     H_    0.703936 0.256524 0.197178 0.125130
H29   H     H_    0.711738 0.254847 0.930882 0.104608
H30   H     H_    0.328529 0.760204 0.805038 0.130692
H31   H     H_    0.504906 0.435034 0.805584 0.127937
H32   H     H_    0.623821 0.371532 0.859297 0.100782
O1    O     O_3   0.500000 0.500000 0.500000 -0.447871
O2    O     O_R   0.470800 0.371790 0.332500 -0.509321
O3    O     O_R   0.380610 0.619380 0.674980 -0.551770
O4    O     O_R   0.632640 0.524780 0.317540 -0.538412
O5    O     O_R   0.515950 0.484050 0.674980 -0.558974
O6    O     O_2   0.660813 0.944912 0.336970 -0.492703
O7    O     O_R   0.689956 0.137857 0.400066 -0.692518
O8    O     O_2   0.245229 0.411652 0.183768 -0.516886
O9    O     O_R   0.239086 0.618918 0.224411 -0.716245
O10   O     O_R   0.535460 0.243030 0.556410 -0.520593
O11   O     O_R   0.437420 0.784080 0.535340 -0.558858
O12   O     O_R   0.223560 0.397520 0.472140 -0.533160
O13   O     O_R   0.803560 0.575360 0.436110 -0.527837
O14   O     O_R   0.209690 0.568800 0.556400 -0.549066
O15   O     O_R   0.763190 0.458310 0.535350 -0.551930
O16   O     O_R   0.414000 0.207090 0.472140 -0.517309
O17   O     O_R   0.613120 0.765800 0.436110 -0.497347
Zn1   Zn    Zn3+2 0.577310 0.422690 0.565550 0.934339
Zn2   Zn    Zn3+2 0.403760 0.371330 0.445150 0.981258
Zn3   Zn    Zn3+2 0.634990 0.589920 0.423760 0.986331
Zn4   Zn    Zn3+2 0.383940 0.616050 0.565540 0.919618

loop_
_geom_bond_atom_site_label_1
_geom_bond_atom_site_label_2
_ccdc_geom_bond_type
C12   H30   S    
C30   H25   S    
C31   H22   S    
C19   C23   A    
C3    H29   S    
C1    C11   S    
C32   H19   S    
C26   H16   S    
C25   H4    S    
C6    C9    A    
H17   O7    S    
C7    C8    A    
C15   O10   A    
C26   C27   S    
C8    C20   A    
C5    C6    A    
C24   H6    S    
C13   C29   S    
C36   C37   A    
O2    Zn2   S    
C18   C19   S    
C30   C31   S    
O1    Zn4   S    
C4    O15   A    
C14   H23   S    
C17   C20   S    
O11   Zn4   S    
C34   C35   A    
O3    Zn4   S    
C9    H27   S    
C28   H11   S    
C29   O7    S    
C7    H1    S    
O13   Zn3   S    
O4    Zn3   S    
O5    Zn1   S    
O10   Zn1   S    
C22   H8    S    
C18   O3    A    
H26   O9    S    
C30   H24   S    
C17   O2    A    
C23   H31   S    
C32   H18   S    
C10   H12   S    
C26   H15   S    
O14   Zn4   S    
C1    O14   A    
C24   C25   S    
C25   H2    S    
C5    C7    A    
O1    Zn3   S    
C33   O8    D    
C11   C26   S    
C12   C21   A    
C31   H21   S    
C35   C39   A    
C37   C38   A    
O1    Zn2   S    
C28   H10   S    
C9    C20   A    
C31   C32   S    
C4    O13   A    
O17   Zn3   S    
C23   C34   A    
C16   O11   A    
C6    C37   A    
C22   H7    S    
C24   H5    S    
C22   C24   S    
O16   Zn2   S    
C4    C10   S    
C2    H32   S    
C27   H13   S    
C15   O16   A    
C2    C36   A    
O12   Zn2   S    
C28   H9    S    
C18   O5    A    
C3    C5    A    
O15   Zn1   S    
C25   H3    S    
C27   H14   S    
C33   O9    S    
C21   C35   A    
C1    O12   A    
C21   C30   S    
C33   C38   S    
C2    C3    A    
O1    Zn1   S    
C38   C39   A    
C22   C39   S    
C12   C19   A    
C34   C36   A    
C10   C11   D    
C29   O6    D    
C8    H28   S    
C13   C16   S    
C27   C28   S    
C16   O17   A    
C14   C15   S    
C32   H20   S    
C13   C14   D    
C17   O4    A    
