data_mof_unit_44075.cif
_audit_creation_date              2012-12-10T16:44:18-0500
_audit_creation_method            fapswitch 2.2
_symmetry_space_group_name_H-M    P1
_symmetry_Int_Tables_number       1
_space_group_crystal_system       triclinic
_cell_length_a                    7.456998
_cell_length_b                    8.69241
_cell_length_c                    13.394215
_cell_angle_alpha                 94.567444
_cell_angle_beta                  77.507054
_cell_angle_gamma                 102.930014
_cell_volume                      825.708814475

loop_
_atom_site_label
_atom_site_type_symbol
_atom_type_description
_atom_site_fract_x
_atom_site_fract_y
_atom_site_fract_z
_atom_type_partial_charge
C1    C     C_R   0.539554 0.798992 0.511810 0.819779
C2    C     C_R   0.418275 0.504276 0.975290 0.065566
C3    C     C_R   0.465756 0.552079 0.872369 0.091423
C4    C     C_R   0.558874 0.541600 0.035653 0.064946
C5    C     C_R   0.737710 0.636575 0.995415 0.165363
C6    C     C_R   0.773527 0.696781 0.898178 -0.244927
C7    C     C_R   0.638606 0.657796 0.838332 -0.211226
C8    C     C_R   0.527381 0.487633 0.135105 -0.244064
C9    C     C_R   0.839102 0.624757 0.154445 -0.179778
C10   C     C_R   0.338233 0.493583 0.806396 -0.097092
C11   C     C_2   0.547840 0.963970 0.536806 -0.064299
C12   C     C_R   0.399940 0.497881 0.694348 0.738603
C13   C     C_2   0.437269 0.032898 0.495670 -0.371910
C14   C     C_R   0.454656 0.200207 0.499446 0.882458
C15   C     C_R   0.601229 0.510744 0.306038 0.821751
C16   C     C_R   0.877320 0.674385 0.054224 -0.183662
C17   C     C_R   0.661645 0.535324 0.196000 -0.056816
C18   C     C_R   0.155585 0.412179 0.847209 -0.206583
C19   C     C_R   0.101959 0.380187 0.950453 -0.135911
C20   C     C_R   0.231687 0.422445 0.013721 -0.186049
Cu1   Cu    Cu3+1 0.321300 0.483160 0.488710 1.010406
Cu2   Cu    Cu3+1 0.678700 0.516840 0.511290 1.001405
H1    H     H_    0.944655 0.662373 0.200666 0.171721
H2    H     H_    0.340903 0.965256 0.449828 0.160885
H3    H     H_    0.008880 0.615523 0.581311 0.180039
H4    H     H_    0.906391 0.775114 0.868272 0.140062
H5    H     H_    0.014182 0.746381 0.023663 0.145322
H6    H     H_    0.397154 0.410863 0.168591 0.168766
H7    H     H_    0.055495 0.368642 0.798525 0.157912
H8    H     H_    0.179673 0.392156 0.092681 0.158638
H9    H     H_    0.960025 0.317980 0.981204 0.157950
H10   H     H_    0.670677 0.714761 0.765875 0.159460
N1    N     N_2   0.947230 0.542220 0.528320 -0.169971
N2    N     N_2   0.052770 0.457780 0.471680 0.084951
O1    O     O_R   0.383920 0.714220 0.492660 -0.606842
O2    O     O_R   0.685730 0.742660 0.511730 -0.594473
O3    O     O_R   0.275440 0.478800 0.636790 -0.608947
O4    O     O_R   0.577250 0.507240 0.655860 -0.594239
O5    O     O_R   0.314270 0.257340 0.488270 -0.564278
O6    O     O_R   0.616080 0.285780 0.507340 -0.525424
O7    O     O_R   0.422750 0.492760 0.344140 -0.555786
O8    O     O_R   0.724560 0.521200 0.363210 -0.527523
Cl1   Cl    Cl    0.973513 0.330376 0.377322 -0.501083
C21   C     C_3   0.665269 0.042549 0.615080 -0.352840
C22   C     C_3   0.540548 0.090205 0.714734 -0.354026
C23   C     C_3   0.658441 0.181718 0.788774 -0.824865
H11   H     H_    0.753314 0.110464 0.806646 0.240368
H12   H     H_    0.743238 0.294307 0.754863 0.264180
H13   H     H_    0.564508 0.209775 0.861068 0.249355
H14   H     H_    0.447896 0.165021 0.699015 0.221972
H15   H     H_    0.449437 0.982041 0.751995 0.202572
H16   H     H_    0.743457 0.959132 0.635916 0.180420
H17   H     H_    0.776404 0.143701 0.582679 0.256342

loop_
_geom_bond_atom_site_label_1
_geom_bond_atom_site_label_2
_ccdc_geom_bond_type
C2    C4    A    
C6    C7    A    
Cu1   O1    S    
C13   C14   S    
Cu2   O2    S    
C15   O8    A    
C19   C20   A    
Cu1   O5    S    
C4    C8    A    
Cu2   O6    S    
C21   H16   S    
C16   H5    S    
C2    C3    A    
C6    H4    S    
C19   H9    S    
C11   C21   S    
C18   H7    S    
C20   H8    S    
Cu1   Cu2   S    
C11   C13   D    
C23   H13   S    
C15   O7    A    
Cu2   O8    S    
C10   C12   S    
C22   H14   S    
C10   C18   A    
Cu1   O7    S    
C9    C17   A    
C9    C16   A    
N1    N2    D    
C3    C7    A    
C12   O4    A    
C5    C6    A    
C8    H6    S    
C23   H12   S    
C22   H15   S    
C14   O6    A    
Cu2   O4    S    
C22   C23   S    
Cu1   O3    S    
C21   C22   S    
C1    O1    A    
C15   C17   S    
C18   C19   A    
C12   O3    A    
C3    C10   A    
Cu2   N1    S    
C23   H11   S    
C9    H1    S    
C5    C16   A    
C7    H10   S    
C14   O5    A    
C1    O2    A    
C2    C20   A    
C21   H17   S    
Cu1   N2    S    
N2    Cl1   S    
C8    C17   A    
C13   H2    S    
H3    N1    S    
C4    C5    A    
C1    C11   S    
