data_mof_unit_31242.cif
_audit_creation_date              2012-10-26T20:32:27-0400
_audit_creation_method            fapswitch 2.2
_symmetry_space_group_name_H-M    P1
_symmetry_Int_Tables_number       1
_space_group_crystal_system       triclinic
_cell_length_a                    19.344671
_cell_length_b                    10.829031
_cell_length_c                    9.599438
_cell_angle_alpha                 91.005085
_cell_angle_beta                  90.040971
_cell_angle_gamma                 91.507253
_cell_volume                      2009.92261554

loop_
_atom_site_label
_atom_site_type_symbol
_atom_type_description
_atom_site_fract_x
_atom_site_fract_y
_atom_site_fract_z
_atom_type_partial_charge
C1    C     C_R   0.499138 0.262545 0.499382 0.549898
C2    C     C_R   0.853816 0.500721 0.497580 0.034335
C3    C     C_R   0.512663 0.066740 0.621510 -0.015934
C4    C     C_R   0.367639 0.500752 0.499810 0.531216
C5    C     C_R   0.495233 0.129045 0.500635 -0.007117
C6    C     C_R   0.471376 0.060331 0.384443 -0.159098
C7    C     C_R   0.471675 0.931671 0.385359 -0.154658
C8    C     C_R   0.496335 0.870488 0.502643 0.037497
C9    C     C_R   0.513716 0.939584 0.622288 0.028857
C10   C     C_3   0.576914 0.938702 0.712940 0.126170
C11   C     C_3   0.575000 0.080457 0.713777 -0.072515
C12   C     C_R   0.291814 0.502860 0.498484 0.014709
C13   C     C_R   0.535969 0.589252 0.075545 0.132305
C14   C     C_R   0.460132 0.416465 0.071149 0.106509
C15   C     C_R   0.457509 0.421484 0.921895 0.404943
C16   C     C_R   0.500259 0.737439 0.500934 0.575868
C17   C     C_R   0.536836 0.587727 0.928619 0.102908
C18   C     C_3   0.613039 0.609043 0.925002 -0.280753
C19   C     C_3   0.612095 0.613717 0.082681 -0.262752
C20   C     C_R   0.632429 0.499871 0.499904 0.566969
C21   C     C_R   0.255832 0.550211 0.613388 -0.145641
C22   C     C_R   0.183827 0.550897 0.612633 -0.119611
C23   C     C_R   0.930037 0.502065 0.496866 0.347074
C24   C     C_R   0.146538 0.505038 0.496287 0.034630
C25   C     C_R   0.182780 0.459542 0.380290 -0.114257
C26   C     C_R   0.254800 0.458754 0.381296 -0.128850
C27   C     C_3   0.692982 0.888505 0.725801 -0.115500
C28   C     C_2   0.635075 0.146466 0.644767 0.253284
C29   C     C_2   0.422261 0.313552 0.139038 0.228136
C30   C     C_3   0.344872 0.374310 0.863955 -0.076483
C31   C     C_R   0.070323 0.504478 0.496146 0.345936
C32   C     C_R   0.817875 0.538233 0.617471 -0.114390
C33   C     C_R   0.745889 0.537346 0.618261 -0.101877
C34   C     C_R   0.708397 0.499433 0.499345 0.040781
C35   C     C_R   0.744149 0.461632 0.379496 -0.132284
C36   C     C_R   0.816217 0.462140 0.378597 -0.115754
Cu1   Cu    Cu3+1 0.500000 0.499980 0.640670 1.030921
Cu2   Cu    Cu3+1 0.500000 0.500020 0.359330 0.937212
H1    H     H_    0.283344 0.588334 0.703069 0.117278
H2    H     H_    0.155611 0.423929 0.288842 0.138368
H3    H     H_    0.281439 0.422370 0.290922 0.108717
H4    H     H_    0.845240 0.568693 0.710854 0.135699
H5    H     H_    0.719772 0.568295 0.711307 0.112934
H6    H     H_    0.716481 0.430422 0.286827 0.121483
H7    H     H_    0.842348 0.432356 0.284624 0.141481
H8    H     H_    0.454432 0.105358 0.292006 0.188518
H9    H     H_    0.728129 0.966475 0.696925 0.156959
H10   H     H_    0.720982 0.801992 0.705796 0.132838
H11   H     H_    0.682410 0.894854 0.839786 0.094387
H12   H     H_    0.454612 0.880595 0.293009 0.146848
H13   H     H_    0.650889 0.120111 0.540118 0.137053
H14   H     H_    0.397380 0.325009 0.238331 0.141044
H15   H     H_    0.315123 0.343428 0.770292 0.149068
H16   H     H_    0.338198 0.475745 0.877415 0.074974
H17   H     H_    0.321379 0.325827 0.953700 0.133471
H18   H     H_    0.564964 0.895453 0.814934 0.103921
H19   H     H_    0.561743 0.119974 0.817864 0.149433
H20   H     H_    0.640364 0.527482 0.883195 0.167961
H21   H     H_    0.627649 0.698492 0.877810 0.130141
H22   H     H_    0.640530 0.536848 0.129191 0.156947
H23   H     H_    0.157504 0.587759 0.703120 0.140121
H24   H     H_    0.625107 0.706924 0.127149 0.134776
N1    N     N_R   0.033989 0.463774 0.382579 -0.227190
N2    N     N_R   0.965215 0.462650 0.382901 -0.226499
N3    N     N_R   0.966385 0.542797 0.610364 -0.227485
N4    N     N_R   0.035132 0.543988 0.610014 -0.227852
N5    N     N_R   0.500440 0.500930 0.147930 -0.285121
N6    N     N_R   0.500440 0.500890 0.852020 -0.237963
O1    O     O_R   0.500000 0.319640 0.618810 -0.433189
O2    O     O_2   0.666086 0.230687 0.705987 -0.516220
O3    O     O_2   0.417748 0.211965 0.081913 -0.529191
O4    O     O_3   0.414645 0.341502 0.845202 -0.494483
O5    O     O_R   0.500010 0.319680 0.381230 -0.527762
O6    O     O_R   0.400140 0.499970 0.618830 -0.485706
O7    O     O_R   0.400150 0.500010 0.381250 -0.539494
O8    O     O_R   0.499990 0.680320 0.618770 -0.497797
O9    O     O_R   0.500000 0.680360 0.381190 -0.505301
O10   O     O_R   0.599850 0.499990 0.618750 -0.482275
O11   O     O_R   0.599860 0.500030 0.381170 -0.511860
O12   O     O_3   0.633389 0.887562 0.640272 -0.571717

loop_
_geom_bond_atom_site_label_1
_geom_bond_atom_site_label_2
_ccdc_geom_bond_type
C27   H10   S    
C31   N4    A    
Cu1   O6    S    
Cu1   O1    S    
C35   C36   A    
C7    C8    A    
C15   O4    S    
C30   H16   S    
C1    C5    S    
C34   C35   A    
C25   H2    S    
C5    C6    A    
C28   H13   S    
Cu2   O11   S    
C19   H24   S    
C27   H9    S    
Cu1   N6    S    
C2    C32   A    
C16   O9    A    
C4    O7    A    
C18   H20   S    
C8    C9    A    
C14   N5    A    
C4    C12   S    
C10   H18   S    
C9    C10   S    
C4    O6    A    
C20   C34   S    
C8    C16   S    
C21   C22   A    
C33   C34   A    
Cu2   O7    S    
C30   H15   S    
C13   C19   S    
C33   H5    S    
C31   N1    A    
C24   C25   A    
C27   O12   S    
C10   O12   S    
C18   C19   S    
C25   C26   A    
C12   C21   A    
C1    O1    A    
C12   C26   A    
Cu1   Cu2   S    
C3    C9    A    
C21   H1    S    
C17   C18   S    
C36   H7    S    
C35   H6    S    
C23   N2    A    
Cu1   O8    S    
C22   C24   A    
C14   C29   S    
C13   N5    A    
C2    C36   A    
C17   N6    A    
C6    H8    S    
C20   O11   A    
C16   O8    A    
C28   O2    D    
C7    H12   S    
C3    C5    A    
C30   O4    S    
C6    C7    A    
Cu2   O9    S    
C20   O10   A    
C19   H22   S    
C30   H17   S    
C13   C17   A    
C1    O5    A    
C32   C33   A    
C23   N3    A    
C24   C31   S    
C22   H23   S    
C11   C28   S    
C15   N6    A    
C3    C11   S    
C10   C11   S    
N1    N2    A    
C18   H21   S    
Cu2   N5    S    
N3    N4    A    
C2    C23   S    
C32   H4    S    
C14   C15   A    
C11   H19   S    
Cu1   O10   S    
C29   H14   S    
C27   H11   S    
C26   H3    S    
C29   O3    D    
Cu2   O5    S    
