data_mof_unit_65463.cif
_audit_creation_date              2012-12-10T16:55:32-0500
_audit_creation_method            fapswitch 2.2
_symmetry_space_group_name_H-M    P1
_symmetry_Int_Tables_number       1
_space_group_crystal_system       triclinic
_cell_length_a                    21.749414
_cell_length_b                    21.769034
_cell_length_c                    22.022283
_cell_angle_alpha                 119.330813
_cell_angle_beta                  119.306837
_cell_angle_gamma                 89.512643
_cell_volume                      7550.97921573

loop_
_atom_site_label
_atom_site_type_symbol
_atom_type_description
_atom_site_fract_x
_atom_site_fract_y
_atom_site_fract_z
_atom_type_partial_charge
C1    C     C_R   0.002726 0.382856 0.504128 0.880092
C2    C     C_1   0.839743 0.336502 0.173780 -0.118353
C3    C     C_1   0.124277 0.625716 0.751227 -0.195614
C4    C     C_1   0.875727 0.374195 0.248774 -0.195511
C5    C     C_2   0.989943 0.245061 0.557655 -0.141182
C6    C     C_2   0.931807 0.756711 0.444374 -0.140784
C7    C     C_2   0.982506 0.181354 0.494416 -0.295917
C8    C     C_2   0.987901 0.819248 0.506212 -0.294363
C9    C     C_2   0.981398 0.307448 0.548627 -0.172409
C10   C     C_2   0.932424 0.694428 0.453608 -0.172725
C11   C     C_2   0.013095 0.323095 0.516586 -0.057239
C12   C     C_R   0.998136 0.617085 0.495716 0.880366
C13   C     C_2   0.995220 0.676600 0.482773 -0.058125
C14   C     C_R   0.617460 0.998041 0.496978 0.932810
C15   C     C_R   0.382537 0.001956 0.503016 0.932759
C16   C     C_R   0.080817 0.581166 0.662327 0.915888
C17   C     C_R   0.919184 0.418834 0.337673 0.915637
C18   C     C_R   0.418679 0.919158 0.337685 0.911669
C19   C     C_R   0.581321 0.080840 0.662315 0.911640
C20   C     C_R   0.881128 0.002573 0.500734 0.925540
C21   C     C_R   0.118869 0.997415 0.499267 0.950566
C22   C     C_R   0.995393 0.118532 0.499169 0.928232
C23   C     C_3   0.273446 0.840653 0.046970 -0.396696
C24   C     C_R   0.996128 0.881626 0.500981 0.928492
C25   C     C_2   0.755084 0.008213 0.443269 -0.158780
C26   C     C_2   0.244954 0.991867 0.556791 -0.156480
C27   C     C_2   0.817216 0.010952 0.504475 -0.335035
C28   C     C_2   0.182789 0.989035 0.495534 -0.337958
C29   C     C_2   0.691873 0.017262 0.450607 -0.158844
C30   C     C_2   0.308164 0.982809 0.549454 -0.157404
C31   C     C_2   0.678934 0.991111 0.488286 -0.338536
C32   C     C_2   0.321057 0.008883 0.511692 -0.337636
C33   C     C_3   0.276945 0.689635 0.951469 -0.452493
C34   C     C_3   0.721403 0.159689 0.953076 -0.396624
C35   C     C_3   0.726040 0.314268 0.048417 -0.453078
C36   C     C_3   0.161036 0.695336 0.952273 -0.040353
C37   C     C_3   0.841349 0.299481 0.047817 -0.039890
C38   C     C_3   0.210972 0.744308 0.050788 -0.037147
C39   C     C_3   0.791417 0.250678 0.949299 -0.037292
C40   C     C_1   0.373147 0.875361 0.248811 -0.189875
C41   C     C_1   0.626857 0.124617 0.751189 -0.189840
C42   C     C_3   0.203705 0.709087 0.917744 0.313671
C43   C     C_3   0.796318 0.290547 0.082264 0.313587
C44   C     C_3   0.325541 0.738050 0.048375 -0.446014
C45   C     C_3   0.222911 0.792039 0.950117 -0.378328
C46   C     C_3   0.677426 0.265838 0.951511 -0.445460
C47   C     C_3   0.286545 0.791884 0.082455 0.290367
C48   C     C_3   0.713479 0.207839 0.917550 0.290327
C49   C     C_3   0.771857 0.208121 0.049935 -0.378248
C50   C     C_1   0.334287 0.837971 0.173857 -0.117292
C51   C     C_1   0.665724 0.161922 0.826144 -0.117195
C52   C     C_1   0.160268 0.663294 0.826224 -0.118309
H1    H     H_    0.336350 0.701909 0.072471 0.170969
H2    H     H_    0.288870 0.041677 0.492191 0.157002
H3    H     H_    0.150460 0.636066 0.931087 0.102118
H4    H     H_    0.855847 0.358562 0.069054 0.102801
H5    H     H_    0.223199 0.705751 0.071721 0.122190
H6    H     H_    0.783007 0.289245 0.928418 0.121971
H7    H     H_    0.251600 0.802233 0.924197 0.163548
H8    H     H_    0.741347 0.201272 0.075745 0.164173
H9    H     H_    0.308149 0.698481 0.927237 0.188429
H10   H     H_    0.693275 0.308948 0.072640 0.188563
H11   H     H_    0.380149 0.769592 0.070448 0.186596
H12   H     H_    0.670315 0.301656 0.927331 0.171070
H13   H     H_    0.621321 0.237739 0.929431 0.186881
H14   H     H_    0.001342 0.251138 0.614482 0.158268
H15   H     H_    0.886249 0.751449 0.388487 0.158186
H16   H     H_    0.950234 0.341242 0.569652 0.145542
H17   H     H_    0.881218 0.662594 0.435155 0.146492
H18   H     H_    0.048589 0.265144 0.441410 0.178771
H19   H     H_    0.117244 0.326072 0.543525 0.202459
H20   H     H_    0.104717 0.731614 0.553547 0.179396
H21   H     H_    0.069308 0.669667 0.450464 0.201887
H22   H     H_    0.751561 0.002113 0.389554 0.163595
H23   H     H_    0.248936 0.883277 0.072378 0.162796
H24   H     H_    0.248507 0.998052 0.610556 0.163256
H25   H     H_    0.654661 0.042605 0.422439 0.164049
H26   H     H_    0.345414 0.957532 0.577694 0.163724
H27   H     H_    0.264806 0.630197 0.929003 0.170254
H28   H     H_    0.741980 0.373413 0.070799 0.169869
H29   H     H_    0.060687 0.693775 0.939037 0.201067
H30   H     H_    0.056535 0.673318 0.853931 0.184733
H31   H     H_    0.941115 0.293635 0.061167 0.201120
H32   H     H_    0.943551 0.317038 0.146183 0.184574
H33   H     H_    0.164810 0.830756 0.075851 0.210643
H34   H     H_    0.743590 0.114360 0.927804 0.162854
H35   H     H_    0.203867 0.813866 0.151819 0.184741
H36   H     H_    0.831549 0.159883 0.924029 0.210637
H37   H     H_    0.796967 0.177001 0.848308 0.184197
H38   H     H_    0.171466 0.808172 0.928459 0.186943
H39   H     H_    0.821102 0.188929 0.071741 0.186364
H40   H     H_    0.327439 0.871340 0.066880 0.172271
H41   H     H_    0.665862 0.132440 0.933048 0.172145
H42   H     H_    0.962683 0.173842 0.434553 0.166187
H43   H     H_    0.028241 0.826265 0.565525 0.165423
H44   H     H_    0.823649 0.025615 0.562526 0.156063
H45   H     H_    0.176342 0.974302 0.437455 0.155787
H46   H     H_    0.711085 0.958264 0.507716 0.156384
N1    N     N_3   0.065100 0.286730 0.503060 -0.442373
N2    N     N_3   0.059057 0.710413 0.492711 -0.442507
N3    N     N_3   0.089041 0.709242 0.919238 -0.449912
N4    N     N_3   0.910785 0.281228 0.080867 -0.450384
N5    N     N_3   0.172410 0.789013 0.086984 -0.460752
N6    N     N_3   0.827784 0.201747 0.913111 -0.461177
O1    O     O_R   0.051090 0.409550 0.500010 -0.628403
O2    O     O_R   0.051070 0.590460 0.499970 -0.628989
O3    O     O_R   0.112510 0.561440 0.622850 -0.617346
O4    O     O_R   0.887490 0.438560 0.377150 -0.616670
O5    O     O_R   0.010350 0.561430 0.622870 -0.619865
O6    O     O_R   0.989650 0.438570 0.377130 -0.620760
O7    O     O_R   0.590290 0.948920 0.499990 -0.624706
O8    O     O_R   0.409710 0.051080 0.500010 -0.624413
O9    O     O_R   0.590320 0.051050 0.499970 -0.617232
O10   O     O_R   0.409680 0.948950 0.500030 -0.617062
O11   O     O_R   0.438380 0.887500 0.377150 -0.617229
O12   O     O_R   0.948910 0.590450 0.499990 -0.624778
O13   O     O_R   0.561620 0.112500 0.622850 -0.617108
O14   O     O_R   0.438400 0.989630 0.377130 -0.621765
O15   O     O_R   0.561600 0.010370 0.622870 -0.621885
O16   O     O_R   0.944190 0.034670 0.569380 -0.629990
O17   O     O_R   0.055810 0.965330 0.430620 -0.621539
O18   O     O_R   0.874830 0.965310 0.430660 -0.622904
O19   O     O_R   0.125170 0.034690 0.569340 -0.614815
O20   O     O_R   0.034670 0.125130 0.569340 -0.614827
O21   O     O_R   0.965330 0.874870 0.430660 -0.614878
O22   O     O_R   0.965310 0.055770 0.430620 -0.631524
O23   O     O_R   0.034690 0.944230 0.569380 -0.632087
O24   O     O_R   0.948930 0.409540 0.500030 -0.625216
Zn1   Zn    Zn3+2 0.068220 0.500010 0.499990 0.938571
Zn2   Zn    Zn3+2 0.931780 0.499990 0.500010 0.944323
Zn3   Zn    Zn3+2 0.499800 0.931810 0.500010 0.948346
Zn4   Zn    Zn3+2 0.500200 0.068190 0.499990 0.948530
Zn5   Zn    Zn3+2 0.046310 0.046310 0.592620 0.945658
Zn6   Zn    Zn3+2 0.953690 0.953690 0.407380 0.946068

loop_
_geom_bond_atom_site_label_1
_geom_bond_atom_site_label_2
_ccdc_geom_bond_type
C28   H45   S    
O21   Zn6   S    
O2    Zn1   S    
C30   C32   D    
C37   C43   S    
C23   C45   S    
O9    Zn4   S    
H21   N2    S    
H32   N4    S    
O10   Zn3   S    
C36   C42   S    
C1    C11   S    
C1    O24   A    
C14   C31   S    
O3    Zn1   S    
C17   O6    A    
C15   C32   S    
H29   N3    S    
C49   H8    S    
O20   Zn5   S    
O19   Zn5   S    
C33   C42   S    
H31   N4    S    
C25   H22   S    
C37   N4    S    
O11   Zn3   S    
C22   O22   A    
C35   H28   S    
O6    Zn1   S    
C11   N1    S    
O16   Zn5   S    
C34   H34   S    
C31   H46   S    
O13   Zn4   S    
C18   C40   S    
O18   Zn6   S    
C16   O3    A    
C37   H4    S    
C44   H1    S    
C48   C51   S    
C24   O23   A    
O15   Zn3   S    
C34   H41   S    
O17   Zn6   S    
C35   C43   S    
C18   O14   A    
C20   O18   A    
H33   N5    S    
C44   C47   S    
C19   O15   A    
C27   H44   S    
C8    H43   S    
C49   H39   S    
C32   H2    S    
H36   N6    S    
C16   O5    A    
C47   C50   S    
C44   H11   S    
C25   C29   S    
C14   O7    A    
C46   C48   S    
C23   C47   S    
C39   N6    S    
C46   H13   S    
C17   O4    A    
C5    C7    D    
C33   H27   S    
O1    Zn1   S    
C39   H6    S    
H19   N1    S    
C46   H12   S    
C36   N3    S    
C42   C45   S    
C21   O19   A    
C2    C4    T    
C5    C9    S    
C38   N5    S    
C38   H5    S    
C26   H24   S    
C2    C43   S    
C15   O10   A    
C29   H25   S    
O8    Zn4   S    
C45   H38   S    
C9    C11   D    
O22   Zn6   S    
C38   C47   S    
H35   N5    S    
C4    C17   S    
O7    Zn3   S    
C6    H15   S    
C21   C28   S    
C26   C30   S    
H37   N6    S    
C24   O21   A    
C34   C48   S    
C7    C22   S    
C20   O16   A    
H18   N1    S    
H20   N2    S    
C7    H42   S    
C45   H7    S    
C34   C49   S    
C33   C44   S    
O4    Zn2   S    
C15   O8    A    
C43   C49   S    
O23   Zn5   S    
C23   H23   S    
C5    H14   S    
C10   C13   D    
O24   Zn2   S    
C18   O11   A    
C6    C10   S    
C6    C8    D    
C3    C52   T    
C22   O20   A    
C20   C27   S    
C25   C27   D    
C14   O9    A    
C26   C28   D    
C13   N2    S    
C36   C38   S    
C9    H16   S    
C29   C31   D    
C36   H3    S    
C12   O2    A    
C33   H9    S    
C40   C50   T    
C8    C24   S    
H30   N3    S    
C35   H10   S    
C21   O17   A    
O14   Zn4   S    
C30   H26   S    
C10   H17   S    
O12   Zn2   S    
C12   C13   S    
C19   O13   A    
C37   C39   S    
C1    O1    A    
O5    Zn2   S    
C23   H40   S    
C35   C46   S    
C41   C51   T    
C3    C16   S    
C19   C41   S    
C42   C52   S    
C39   C48   S    
C12   O12   A    
