data_mof_unit_30176.cif
_audit_creation_date              2012-12-10T20:51:42-0500
_audit_creation_method            fapswitch 2.2
_symmetry_space_group_name_H-M    P1
_symmetry_Int_Tables_number       1
_space_group_crystal_system       triclinic
_cell_length_a                    8.125865
_cell_length_b                    8.932126
_cell_length_c                    16.58527
_cell_angle_alpha                 89.897223
_cell_angle_beta                  91.872169
_cell_angle_gamma                 89.996471
_cell_volume                      1203.13511041

loop_
_atom_site_label
_atom_site_type_symbol
_atom_type_description
_atom_site_fract_x
_atom_site_fract_y
_atom_site_fract_z
_atom_type_partial_charge
C1    C     C_R   0.499974 0.218059 0.499932 0.934142
C2    C     C_R   0.500107 0.781915 0.500936 0.933848
C3    C     C_R   0.517109 0.501616 0.654620 0.885592
C4    C     C_R   0.483123 0.505341 0.345999 0.899006
C5    C     C_R   0.520713 0.537153 0.740920 -0.141779
C6    C     C_R   0.487576 0.515368 0.258890 -0.099169
C7    C     C_R   0.384304 0.510786 0.790963 0.085087
C8    C     C_R   0.600031 0.615668 0.224370 0.095829
C9    C     C_R   0.393511 0.565438 0.870956 0.125107
C10   C     C_R   0.658367 0.582736 0.147456 0.124276
C11   C     C_R   0.546334 0.616581 0.902513 0.253108
C12   C     C_R   0.566211 0.481884 0.098013 0.230606
C13   C     C_R   0.671976 0.657198 0.851591 0.137578
C14   C     C_R   0.446885 0.387532 0.131542 0.139118
C15   C     C_R   0.657571 0.617928 0.770774 -0.315586
C16   C     C_R   0.411582 0.403352 0.212827 -0.300844
C17   C     C_1   0.500034 0.065192 0.500357 -0.202740
C18   C     C_1   0.500107 0.934776 0.500756 -0.194606
H1    H     H_    0.754615 0.649824 0.730898 0.180088
H2    H     H_    0.326377 0.327246 0.240698 0.171102
N1    N     N_1   0.073640 0.500030 0.499990 -0.039526
N2    N     N_1   0.926360 0.499970 0.500010 -0.042719
N3    N     N_2   0.574132 0.617374 0.986532 -0.191161
N4    N     N_2   0.574647 0.486964 0.013356 -0.207140
O1    O     O_R   0.636850 0.285340 0.500000 -0.610594
O2    O     O_R   0.363150 0.714660 0.500000 -0.618262
O3    O     O_R   0.363100 0.285350 0.500000 -0.613940
O4    O     O_R   0.636900 0.714650 0.500000 -0.616406
O5    O     O_R   0.652140 0.498630 0.616140 -0.622505
O6    O     O_R   0.347860 0.501370 0.383860 -0.616668
O7    O     O_R   0.378390 0.498650 0.616130 -0.608616
O8    O     O_R   0.621610 0.501350 0.383870 -0.619022
Zn1   Zn    Zn3+2 0.682780 0.499990 0.500010 0.968509
Zn2   Zn    Zn3+2 0.317220 0.500010 0.499990 0.970298
C19   C     C_3   0.645297 0.762206 0.267008 -0.416793
C20   C     C_3   0.491535 0.853451 0.284994 -0.874345
H3    H     H_    0.410903 0.862304 0.229926 0.262809
H4    H     H_    0.420309 0.800536 0.333164 0.256053
H5    H     H_    0.527544 0.967680 0.305209 0.250414
H6    H     H_    0.718195 0.740794 0.323566 0.234675
H7    H     H_    0.719993 0.836037 0.228899 0.201754
C21   C     C_3   0.242466 0.409582 0.763508 -0.390988
C22   C     C_3   0.097107 0.496465 0.725414 -0.769287
H8    H     H_    0.013519 0.534691 0.772304 0.219043
H9    H     H_    0.138295 0.595703 0.691139 0.269115
H10   H     H_    0.025192 0.422072 0.683877 0.248248
H11   H     H_    0.286016 0.325015 0.720080 0.205479
H12   H     H_    0.199458 0.341248 0.814756 0.181492
C23   C     C_3   0.824936 0.640949 0.121239 -0.400551
C24   C     C_3   0.938191 0.513246 0.096437 -0.892544
H13   H     H_    0.941927 0.424173 0.143318 0.263872
H14   H     H_    0.896451 0.464285 0.037854 0.266696
H15   H     H_    0.065228 0.556248 0.090162 0.251918
H16   H     H_    0.809538 0.723574 0.071723 0.221542
H17   H     H_    0.892808 0.697985 0.171376 0.202399
C25   C     C_3   0.244793 0.577950 0.924144 -0.407431
C26   C     C_3   0.216671 0.741560 0.948418 -0.883178
H18   H     H_    0.326794 0.790629 0.979401 0.266964
H19   H     H_    0.185719 0.810287 0.894188 0.262799
H20   H     H_    0.115620 0.749264 0.991383 0.251298
H21   H     H_    0.130274 0.536248 0.894675 0.208961
H22   H     H_    0.263613 0.509765 0.979329 0.209242
C27   C     C_3   0.821750 0.739742 0.883220 -0.420025
C28   C     C_3   0.778767 0.898070 0.910209 -0.865541
H23   H     H_    0.724401 0.962753 0.858633 0.264134
H24   H     H_    0.690010 0.895654 0.959677 0.260919
H25   H     H_    0.892253 0.955940 0.932504 0.246977
H26   H     H_    0.876391 0.675231 0.934338 0.226946
H27   H     H_    0.915498 0.749006 0.836276 0.210496
C29   C     C_3   0.355511 0.269639 0.081851 -0.417753
C30   C     C_3   0.398309 0.111966 0.111070 -0.870737
H28   H     H_    0.533438 0.093294 0.110238 0.267645
H29   H     H_    0.355040 0.095147 0.173109 0.256694
H30   H     H_    0.336216 0.028452 0.070989 0.247508
H31   H     H_    0.220790 0.287815 0.085987 0.206409
H32   H     H_    0.384608 0.275758 0.017041 0.214660

loop_
_geom_bond_atom_site_label_1
_geom_bond_atom_site_label_2
_ccdc_geom_bond_type
C30   H30   S    
C24   H14   S    
C22   H8    S    
C7    C9    A    
C29   C30   S    
C25   H21   S    
C2    C18   S    
C11   C13   A    
C12   N4    S    
C1    C17   S    
C19   C20   S    
C13   C27   S    
C27   H27   S    
C16   H2    S    
C23   H17   S    
C28   H23   S    
C23   C24   S    
C20   H4    S    
C17   C18   T    
O7    Zn2   S    
C30   H28   S    
C2    O2    A    
C9    C25   S    
C21   H12   S    
N1    N2    T    
O8    Zn1   S    
C3    O7    A    
C1    O1    A    
C22   H9    S    
C9    C11   A    
C3    O5    A    
C26   H18   S    
C14   C29   S    
C10   C12   A    
C6    C8    A    
C8    C10   A    
C20   H3    S    
C12   C14   A    
O4    Zn1   S    
C19   H6    S    
C14   C16   A    
C21   H11   S    
C13   C15   A    
O3    Zn2   S    
C29   H32   S    
C19   H7    S    
C22   H10   S    
C25   H22   S    
C5    C15   A    
C24   H15   S    
C26   H19   S    
C21   C22   S    
O6    Zn2   S    
N3    N4    D    
C6    C16   A    
C4    O8    A    
C28   H25   S    
O5    Zn1   S    
C30   H29   S    
C25   C26   S    
C1    O3    A    
C4    C6    S    
C7    C21   S    
C11   N3    S    
C29   H31   S    
C5    C7    A    
N2    Zn1   S    
C27   H26   S    
C26   H20   S    
C2    O4    A    
N1    Zn2   S    
C24   H13   S    
C15   H1    S    
C10   C23   S    
O2    Zn2   S    
C20   H5    S    
C4    O6    A    
C23   H16   S    
O1    Zn1   S    
C27   C28   S    
C3    C5    S    
C8    C19   S    
C28   H24   S    
