data_mof_unit_50103.cif
_audit_creation_date              2012-12-10T20:43:41-0500
_audit_creation_method            fapswitch 2.2
_symmetry_space_group_name_H-M    P1
_symmetry_Int_Tables_number       1
_space_group_crystal_system       triclinic
_cell_length_a                    18.697966
_cell_length_b                    18.626238
_cell_length_c                    18.800258
_cell_angle_alpha                 109.387081
_cell_angle_beta                  109.597315
_cell_angle_gamma                 109.183351
_cell_volume                      5055.54824341

loop_
_atom_site_label
_atom_site_type_symbol
_atom_type_description
_atom_site_fract_x
_atom_site_fract_y
_atom_site_fract_z
_atom_type_partial_charge
C1    C     C_R   0.380898 0.501435 0.380247 0.864241
C2    C     C_R   0.305322 0.447593 0.024365 0.301344
C3    C     C_R   0.120133 0.118872 0.498552 0.875453
C4    C     C_R   0.001808 0.380044 0.881372 0.868354
C5    C     C_R   0.119872 0.498060 0.118498 0.867793
C6    C     C_R   0.998789 0.620299 0.118719 0.871374
C7    C     C_R   0.879698 0.498648 0.878472 0.864322
C8    C     C_R   0.096394 0.762464 0.546016 -0.107436
C9    C     C_R   0.089213 0.776709 0.476038 -0.054138
C10   C     C_R   0.009469 0.726832 0.397284 0.108648
C11   C     C_R   0.938597 0.659401 0.388159 -0.186337
C12   C     C_R   0.945864 0.645555 0.458362 -0.110399
C13   C     C_R   0.337163 0.529933 0.029106 -0.118694
C14   C     C_R   0.798459 0.878584 0.808298 -0.179058
C15   C     C_R   0.024617 0.697269 0.537360 -0.096067
C16   C     C_R   0.998791 0.675814 0.254023 -0.228913
C17   C     C_R   0.997764 0.686539 0.183766 -0.087574
C18   C     C_R   0.999355 0.761004 0.179053 -0.007541
C19   C     C_R   0.998089 0.822047 0.244501 -0.275129
C20   C     C_R   0.999895 0.811768 0.315242 -0.091484
C21   C     C_R   0.002721 0.739310 0.321886 -0.020656
C22   C     C_R   0.073311 0.856637 0.130078 -0.150570
C23   C     C_R   0.081563 0.871623 0.064399 -0.147072
C24   C     C_R   0.077705 0.253284 0.756322 -0.248468
C25   C     C_R   0.021862 0.808292 0.977136 -0.143857
C26   C     C_3   0.774564 0.789797 0.944113 -0.813942
C27   C     C_3   0.640283 0.735414 0.047823 -0.811221
C28   C     C_3   0.131272 0.541882 0.644129 -0.733099
C29   C     C_3   0.415630 0.503520 0.175525 -0.811002
C30   C     C_R   0.823904 0.820526 0.576670 -0.263498
C31   C     C_R   0.996944 0.183980 0.685589 -0.082904
C32   C     C_R   0.917938 0.179850 0.678297 -0.001432
C33   C     C_R   0.922162 0.245454 0.744739 -0.278167
C34   C     C_R   0.002892 0.314851 0.815317 -0.091332
C35   C     C_R   0.082020 0.320527 0.820939 0.002126
C36   C     C_R   0.772428 0.129035 0.555723 -0.152739
C37   C     C_R   0.805783 0.820818 0.838703 0.289807
C38   C     C_R   0.690362 0.062266 0.484571 -0.142281
C39   C     C_R   0.665899 0.974748 0.460330 -0.116665
C40   C     C_R   0.723167 0.954015 0.507700 -0.116705
C41   C     C_R   0.804764 0.020524 0.579694 -0.117631
C42   C     C_R   0.813581 0.810111 0.496274 -0.082492
C43   C     C_R   0.830667 0.108607 0.603385 0.131626
C44   C     C_R   0.738599 0.739189 0.417675 0.007767
C45   C     C_R   0.677879 0.676508 0.422212 -0.264466
C46   C     C_R   0.688749 0.686559 0.502722 -0.086258
C47   C     C_R   0.760643 0.760553 0.581132 0.002479
C48   C     C_R   0.952976 0.730707 0.955546 -0.108903
C49   C     C_R   0.641500 0.715245 0.272625 -0.239064
C50   C     C_R   0.622606 0.699813 0.188709 -0.149588
C51   C     C_R   0.683323 0.697018 0.161098 0.309735
C52   C     C_R   0.621814 0.620289 0.501860 0.858621
C53   C     C_R   0.762716 0.708992 0.218794 -0.207479
C54   C     C_R   0.781608 0.724842 0.302793 -0.142392
C55   C     C_R   0.721201 0.727772 0.330389 0.144421
C56   C     C_R   0.435969 0.809400 0.515061 -0.134920
C57   C     C_R   0.369602 0.727256 0.443619 -0.095999
C58   C     C_R   0.390306 0.669193 0.396310 0.112045
C59   C     C_R   0.943286 0.716145 0.020883 -0.107498
C60   C     C_R   0.478259 0.695430 0.420539 -0.132948
C61   C     C_R   0.544376 0.777078 0.492857 -0.111054
C62   C     C_R   0.523367 0.834126 0.539926 -0.114590
C63   C     C_R   0.254584 0.577236 0.254165 -0.224273
C64   C     C_R   0.618508 0.498265 0.619805 0.873131
C65   C     C_R   0.185332 0.496233 0.183579 -0.058376
C66   C     C_R   0.178407 0.416708 0.179080 -0.000038
C67   C     C_R   0.245629 0.421573 0.244664 -0.235000
C68   C     C_R   0.315205 0.502556 0.314698 -0.070121
C69   C     C_R   0.319486 0.581643 0.321382 0.007887
C70   C     C_R   0.004703 0.778144 0.108804 0.131550
C71   C     C_R   0.064320 0.264509 0.127064 -0.160014
C72   C     C_R   0.997875 0.179901 0.060445 -0.136445
C73   C     C_R   0.971134 0.157448 0.973687 -0.120973
C74   C     C_R   0.010536 0.219605 0.953505 -0.123440
C75   C     C_R   0.076492 0.304456 0.020055 -0.110467
C76   C     C_R   0.378866 0.379943 0.498948 0.891706
C77   C     C_R   0.104317 0.328048 0.107592 0.122532
C78   C     C_R   0.245884 0.533596 0.524199 0.567326
C79   C     C_R   0.258554 0.470076 0.541931 -0.317467
C80   C     C_R   0.216771 0.383475 0.474305 0.036508
C81   C     C_R   0.286434 0.543261 0.966367 -0.204811
C82   C     C_R   0.158682 0.360331 0.389810 -0.289630
C83   C     C_R   0.144334 0.423474 0.372777 -0.331331
C84   C     C_R   0.188549 0.510209 0.439689 0.623578
C85   C     C_R   0.172941 0.251343 0.489564 -0.248322
C86   C     C_R   0.185892 0.183475 0.496304 -0.093557
C87   C     C_R   0.260965 0.178769 0.501092 -0.009712
C88   C     C_R   0.794237 0.740642 0.782671 -0.182125
C89   C     C_R   0.324157 0.245387 0.502953 -0.258852
C90   C     C_R   0.311995 0.314009 0.498237 -0.064402
C91   C     C_R   0.235720 0.317269 0.490312 0.059373
C92   C     C_R   0.203319 0.475334 0.898733 -0.087857
C93   C     C_R   0.345171 0.114891 0.565904 -0.149095
C94   C     C_R   0.357614 0.043767 0.561236 -0.136781
C95   C     C_R   0.298474 0.960544 0.488254 -0.128630
C96   C     C_R   0.226770 0.948294 0.419855 -0.135799
C97   C     C_R   0.213458 0.019022 0.424667 -0.125414
C98   C     C_R   0.272533 0.102908 0.497940 0.141914
C99   C     C_R   0.505264 0.536187 0.797555 -0.118787
C100  C     C_R   0.778088 0.719981 0.698220 -0.159804
C101  C     C_R   0.582257 0.548193 0.795534 -0.106440
C102  C     C_R   0.591755 0.475686 0.757517 0.114871
C103  C     C_R   0.169821 0.393337 0.893468 0.078834
C104  C     C_R   0.523759 0.390999 0.722569 -0.179960
C105  C     C_R   0.447035 0.379268 0.725313 -0.133866
C106  C     C_R   0.437637 0.451743 0.762375 -0.094206
C107  C     C_R   0.737561 0.488027 0.815471 -0.258698
C108  C     C_R   0.812647 0.496326 0.810471 -0.095843
C109  C     C_R   0.822568 0.502945 0.741522 0.004594
C110  C     C_R   0.757262 0.503257 0.679269 -0.268946
C111  C     C_R   0.683306 0.496612 0.685325 -0.073914
C112  C     C_R   0.771924 0.778548 0.668267 0.142344
C113  C     C_R   0.672195 0.488214 0.753024 -0.006310
C114  C     C_R   0.222561 0.378980 0.954306 -0.286066
C115  C     C_R   0.957537 0.582789 0.739438 -0.211785
C116  C     C_R   0.030214 0.587121 0.731324 -0.150422
C117  C     C_R   0.043822 0.514688 0.713108 0.289297
C118  C     C_R   0.984310 0.438612 0.704911 -0.208408
C119  C     C_R   0.912114 0.434627 0.713869 -0.158026
C120  C     C_R   0.898495 0.506764 0.731331 0.145269
C121  C     C_R   0.998741 0.877992 0.380317 0.870440
C122  C     C_R   0.879830 0.877610 0.497675 0.861749
C123  C     C_R   0.998274 0.118736 0.619796 0.869464
C124  C     C_R   0.781476 0.857680 0.723715 -0.215536
F1    F     F_    0.175627 0.571488 0.422522 -0.663926
F2    F     F_    0.289479 0.617946 0.589034 -0.659155
H1    H     H_    0.809987 0.705965 0.198625 0.143285
H2    H     H_    0.798778 0.694699 0.804402 0.138730
H3    H     H_    0.084659 0.280199 0.193773 0.120960
H4    H     H_    0.967538 0.131592 0.076143 0.134348
H5    H     H_    0.920140 0.091908 0.922098 0.120557
H6    H     H_    0.990094 0.201765 0.886243 0.145551
H7    H     H_    0.106082 0.351852 0.003592 0.107169
H8    H     H_    0.302648 0.488736 0.607758 0.183237
H9    H     H_    0.125460 0.293659 0.337174 0.171995
H10   H     H_    0.099679 0.405488 0.307527 0.192768
H11   H     H_    0.772021 0.659240 0.656759 0.110923
H12   H     H_    0.843127 0.734468 0.346363 0.116297
H13   H     H_    0.113934 0.253074 0.483991 0.162974
H14   H     H_    0.382642 0.243301 0.506914 0.153727
H15   H     H_    0.392059 0.179086 0.622398 0.113341
H16   H     H_    0.413456 0.053292 0.613961 0.128204
H17   H     H_    0.308437 0.905631 0.484451 0.122679
H18   H     H_    0.181903 0.884016 0.362933 0.146192
H19   H     H_    0.158010 0.008801 0.370886 0.100705
H20   H     H_    0.377958 0.442447 0.763780 0.126563
H21   H     H_    0.497854 0.592287 0.826018 0.127486
H22   H     H_    0.633655 0.613612 0.821830 0.126040
H23   H     H_    0.574824 0.897392 0.595699 0.130432
H24   H     H_    0.776983 0.903777 0.701749 0.134457
H25   H     H_    0.530006 0.334342 0.692845 0.126905
H26   H     H_    0.394541 0.314072 0.698354 0.138111
H27   H     H_    0.730383 0.482448 0.868625 0.160568
H28   H     H_    0.763957 0.508647 0.625833 0.151552
H29   H     H_    0.948073 0.639198 0.753605 0.130512
H30   H     H_    0.076335 0.647485 0.740590 0.131842
H31   H     H_    0.993878 0.382344 0.691524 0.140622
H32   H     H_    0.866868 0.375452 0.707327 0.116750
H33   H     H_    0.030287 0.686215 0.591534 0.118610
H34   H     H_    0.419658 0.853627 0.551494 0.130873
H35   H     H_    0.807100 0.940419 0.850752 0.135493
H36   H     H_    0.157752 0.801654 0.606801 0.127305
H37   H     H_    0.145700 0.826460 0.483133 0.131577
H38   H     H_    0.877751 0.617730 0.326763 0.135781
H39   H     H_    0.890637 0.594311 0.451316 0.134794
H40   H     H_    1.000000 0.619175 0.257547 0.175880
H41   H     H_    0.997615 0.879022 0.241311 0.156364
H42   H     H_    0.121273 0.905479 0.197478 0.124061
H43   H     H_    0.134846 0.931894 0.081185 0.133368
H44   H     H_    0.028795 0.819356 0.926237 0.127246
H45   H     H_    0.302171 0.708581 0.425686 0.179707
H46   H     H_    0.907603 0.681471 0.888136 0.128520
H47   H     H_    0.880597 0.877201 0.636427 0.155098
H48   H     H_    0.889069 0.655956 0.003043 0.091907
H49   H     H_    0.401145 0.584006 0.080600 0.127324
H50   H     H_    0.311619 0.606549 0.970255 0.140630
H51   H     H_    0.164843 0.486753 0.850751 0.142534
H52   H     H_    0.198119 0.314573 0.948207 0.136492
H53   H     H_    0.137847 0.256137 0.759968 0.160782
H54   H     H_    0.862161 0.242904 0.741194 0.155704
H55   H     H_    0.790949 0.196579 0.573172 0.125461
H56   H     H_    0.495514 0.652349 0.384023 0.097588
H57   H     H_    0.645967 0.078374 0.447906 0.132643
H58   H     H_    0.620654 0.620267 0.362553 0.156339
H59   H     H_    0.602668 0.922989 0.404818 0.129241
H60   H     H_    0.704548 0.886343 0.488132 0.131554
H61   H     H_    0.847998 0.003466 0.616467 0.093896
H62   H     H_    0.593623 0.716813 0.292421 0.134622
H63   H     H_    0.559960 0.688525 0.145023 0.129307
H64   H     H_    0.896438 0.867799 0.964920 0.235708
H65   H     H_    0.795169 0.822817 0.014297 0.250360
H66   H     H_    0.778840 0.728887 0.927659 0.229956
H67   H     H_    0.611958 0.795870 0.512958 0.130984
H68   H     H_    0.706114 0.773938 0.906045 0.247134
H69   H     H_    0.707017 0.666229 0.057439 0.220001
H70   H     H_    0.627193 0.715043 0.980165 0.236934
H71   H     H_    0.694854 0.804141 0.091162 0.242709
H72   H     H_    0.580068 0.731313 0.048689 0.242232
H73   H     H_    0.128937 0.467487 0.705217 0.209870
H74   H     H_    0.192889 0.545685 0.647877 0.264782
H75   H     H_    0.136912 0.606795 0.657868 0.249401
H76   H     H_    0.076125 0.490968 0.577444 0.233265
H77   H     H_    0.322061 0.372544 0.083331 0.225229
H78   H     H_    0.257387 0.637438 0.257346 0.147007
H79   H     H_    0.440524 0.478638 0.218882 0.250222
H80   H     H_    0.382243 0.536650 0.199569 0.246972
H81   H     H_    0.472683 0.550983 0.178559 0.241765
H82   H     H_    0.243402 0.361683 0.241861 0.154600
N1    N     N_2   0.831534 0.847742 0.927547 -0.316965
N2    N     N_2   0.663411 0.678089 0.074600 -0.308934
N3    N     N_2   0.119147 0.519390 0.707390 -0.335603
N4    N     N_2   0.355546 0.431431 0.087230 -0.303783
O1    O     O_R   0.408360 0.551710 0.460090 -0.595379
O2    O     O_R   0.948290 0.356630 0.908390 -0.621918
O3    O     O_R   0.143340 0.551690 0.091580 -0.623588
O4    O     O_R   0.408400 0.448280 0.356670 -0.634733
O5    O     O_R   0.039900 0.448270 0.091610 -0.609000
O6    O     O_R   0.051710 0.643320 0.091560 -0.610080
O7    O     O_R   0.948270 0.539900 0.091590 -0.624866
O8    O     O_R   0.960100 0.551680 0.908340 -0.606737
O9    O     O_R   0.856660 0.448270 0.908370 -0.627603
O10   O     O_R   0.591600 0.643340 0.551710 -0.603777
O11   O     O_R   0.591630 0.539900 0.448290 -0.628200
O12   O     O_R   0.948280 0.908380 0.356650 -0.620136
O13   O     O_R   0.591600 0.551720 0.643330 -0.617464
O14   O     O_R   0.591640 0.448290 0.539910 -0.625618
O15   O     O_R   0.408370 0.460100 0.551710 -0.614164
O16   O     O_R   0.408400 0.356660 0.448290 -0.628791
O17   O     O_R   0.051730 0.908360 0.460060 -0.621756
O18   O     O_R   0.960110 0.908350 0.551690 -0.621655
O19   O     O_R   0.856660 0.908370 0.448270 -0.608419
O20   O     O_R   0.051720 0.091580 0.643310 -0.628367
O21   O     O_R   0.948270 0.091600 0.539890 -0.609270
O22   O     O_R   0.143340 0.091590 0.551680 -0.613178
O23   O     O_R   0.039890 0.091610 0.448270 -0.627977
O24   O     O_R   0.051730 0.460050 0.908360 -0.618652
Zn1   Zn    Zn3+2 0.499980 0.569060 0.569060 1.014521
Zn2   Zn    Zn3+2 0.500020 0.430940 0.430940 0.942315
Zn3   Zn    Zn3+2 0.069070 0.999960 0.569030 0.953530
Zn4   Zn    Zn3+2 0.930930 0.999990 0.430930 0.969358
Zn5   Zn    Zn3+2 0.069070 0.569030 0.999960 0.972300
Zn6   Zn    Zn3+2 0.930930 0.430930 0.000000 0.963440

loop_
_geom_bond_atom_site_label_1
_geom_bond_atom_site_label_2
_ccdc_geom_bond_type
C25   H44   S    
C18   C70   S    
C63   C65   A    
C101  H22   S    
C95   H17   S    
C16   C21   A    
O14   Zn2   S    
C62   H23   S    
C74   H6    S    
C76   O16   A    
C41   C43   A    
O23   Zn4   S    
C54   C55   A    
C37   C88   A    
C95   C96   A    
C27   H71   S    
C51   N2    S    
C59   H48   S    
C64   O14   A    
C97   C98   A    
C85   C91   A    
C45   C46   A    
C56   C57   A    
C28   N3    S    
C52   O10   A    
C122  O19   A    
C42   C122  S    
C28   H74   S    
C42   C44   A    
C48   C59   A    
C28   H75   S    
C104  H25   S    
H64   N1    S    
C112  C124  A    
O1    Zn1   S    
C3    O22   A    
C85   C86   A    
C38   C39   A    
C7    O9    A    
C71   H3    S    
C58   C60   A    
C115  C116  A    
C5    O3    A    
C13   C81   A    
C88   H2    S    
C1    C68   S    
C29   H79   S    
C108  C109  A    
C41   H61   S    
C18   C19   A    
C73   C74   A    
O6    Zn5   S    
C82   H9    S    
C9    H37   S    
C2    C13   A    
O5    Zn6   S    
C107  C113  A    
C124  H24   S    
C53   H1    S    
C92   C103  A    
C3    O23   A    
C67   H82   S    
C6    O6    A    
C81   C92   A    
C121  O12   A    
C5    O5    A    
C123  O20   A    
C63   C69   A    
C16   H40   S    
C68   C69   A    
C114  H52   S    
O20   Zn3   S    
C107  C108  A    
O17   Zn3   S    
C9    C10   A    
C85   H13   S    
C30   H47   S    
C72   H4    S    
C14   H35   S    
C87   C98   S    
C22   H42   S    
C23   C25   A    
C66   C67   A    
C109  C120  S    
C123  O21   A    
C118  C119  A    
C76   O15   A    
C4    O24   A    
O18   Zn3   S    
C61   C62   A    
C27   H72   S    
C19   H41   S    
C1    O4    A    
C34   C35   A    
C104  C105  A    
C50   C51   A    
O9    Zn6   S    
C10   C21   S    
C60   H56   S    
C122  O18   A    
C4    C34   S    
C73   H5    S    
O3    Zn5   S    
C24   C35   A    
C4    O2    A    
C63   H78   S    
C67   C68   A    
C94   H16   S    
C101  C102  A    
C30   C47   A    
C117  N3    S    
C103  C114  A    
C14   C124  A    
H69   N2    S    
C80   C82   A    
C74   C75   A    
C12   H39   S    
C26   H66   S    
C78   C79   A    
C8    C9    A    
C64   C111  S    
C53   C54   A    
C27   N2    S    
C33   H54   S    
C29   H80   S    
C110  C111  A    
O19   Zn4   S    
C51   C53   A    
C39   H59   S    
O24   Zn5   S    
C81   H50   S    
C15   H33   S    
C110  H28   S    
C96   H18   S    
O12   Zn4   S    
C83   C84   A    
C23   H43   S    
C12   C15   A    
C119  C120  A    
C89   H14   S    
C96   C97   A    
C24   H53   S    
C17   C18   A    
C83   H10   S    
C111  C113  A    
C93   C94   A    
C107  H27   S    
C20   C21   A    
C102  C104  A    
C75   C77   A    
C25   C48   A    
C37   N1    S    
C20   C121  S    
C88   C100  A    
C7    C108  S    
C7    O8    A    
C5    C65   S    
C40   C41   A    
C99   C101  A    
C92   H51   S    
C82   C83   A    
C8    C15   A    
C87   C89   A    
C1    O1    A    
C49   C50   A    
C56   C62   A    
H77   N4    S    
C50   H63   S    
C65   C66   A    
C90   C91   A    
C6    C17   S    
C16   C17   A    
C61   H67   S    
C71   C77   A    
C93   H15   S    
C44   C45   A    
C48   H46   S    
C29   N4    S    
C105  C106  A    
C84   F1    S    
C13   H49   S    
C99   C106  A    
C99   H21   S    
C46   C47   A    
C115  H29   S    
C86   C87   A    
C97   H19   S    
C100  H11   S    
O21   Zn4   S    
C31   C32   A    
C30   C42   A    
C72   C73   A    
C118  H31   S    
O11   Zn2   S    
C106  H20   S    
C26   H65   S    
C75   H7    S    
C58   C69   S    
C100  C112  A    
O13   Zn1   S    
C36   H55   S    
C26   H68   S    
O8    Zn5   S    
O10   Zn1   S    
C35   C103  S    
C29   H81   S    
O7    Zn6   S    
O2    Zn6   S    
O15   Zn1   S    
C28   H76   S    
C32   C33   A    
C19   C20   A    
C36   C38   A    
O16   Zn2   S    
C24   C31   A    
O4    Zn2   S    
C71   C72   A    
C56   H34   S    
C102  C113  S    
C49   C55   A    
C117  C118  A    
C46   C52   S    
C121  O17   A    
C2    N4    S    
C2    C114  A    
C44   C55   S    
C57   C58   A    
C54   H12   S    
C49   H62   S    
C80   C91   S    
C119  H32   S    
C11   H38   S    
C32   C43   S    
C33   C34   A    
C116  C117  A    
C26   N1    S    
H73   N3    S    
O22   Zn3   S    
C66   C77   S    
C94   C95   A    
C116  H30   S    
C10   C11   A    
C38   H57   S    
C59   C70   A    
C31   C123  S    
C79   C80   A    
C39   C40   A    
C78   C84   A    
C40   H60   S    
C6    O7    A    
C45   H58   S    
C52   O11   A    
C14   C37   A    
C115  C120  A    
C79   H8    S    
C22   C23   A    
C60   C61   A    
C36   C43   A    
C8    H36   S    
C27   H70   S    
C105  H26   S    
C57   H45   S    
C89   C90   A    
C109  C110  A    
C93   C98   A    
C22   C70   A    
C64   O13   A    
C47   C112  S    
C11   C12   A    
C76   C90   S    
C3    C86   S    
C78   F2    S    
