data_mof_unit_47080.cif
_audit_creation_date              2012-12-11T15:25:39-0500
_audit_creation_method            fapswitch 2.2
_symmetry_space_group_name_H-M    P1
_symmetry_Int_Tables_number       1
_space_group_crystal_system       triclinic
_cell_length_a                    6.92805
_cell_length_b                    23.212884
_cell_length_c                    25.794921
_cell_angle_alpha                 104.449264
_cell_angle_beta                  90.020902
_cell_angle_gamma                 90.287109
_cell_volume                      4017.06747533

loop_
_atom_site_label
_atom_site_type_symbol
_atom_type_description
_atom_site_fract_x
_atom_site_fract_y
_atom_site_fract_z
_atom_type_partial_charge
O1    O     O_R   0.494330 0.439230 0.438150 -0.538635
O2    O     O_R   0.820190 0.446230 0.546380 -0.544091
O3    O     O_R   0.994320 0.560770 0.561850 -0.541113
C1    C     C_R   0.651446 0.433939 0.562908 0.685855
O4    O     O_R   0.823790 0.432220 0.437600 -0.538791
O5    O     O_R   0.997940 0.546660 0.452300 -0.528814
C2    C     C_R   0.654617 0.415650 0.417370 0.737261
O6    O     O_R   0.490700 0.453340 0.547700 -0.539925
O7    O     O_3   0.662060 0.537560 0.504950 -0.370902
V1    V     V_3+5 0.935420 0.493030 0.499080 1.417831
O8    O     O_R   0.327880 0.553770 0.453620 -0.538218
C3    C     C_R   0.158351 0.566420 0.437224 0.713435
O9    O     O_R   0.324280 0.567780 0.562400 -0.544593
C4    C     C_R   0.155528 0.584409 0.582457 0.700686
V2    V     V_3+5 0.435890 0.506970 0.500920 1.413010
O10   O     O_3   0.159380 0.462440 0.495050 -0.370391
C5    C     C_R   0.931761 0.859009 0.827394 0.321882
C6    C     C_R   0.082146 0.868382 0.866161 -0.174543
C7    C     C_R   0.244053 0.830843 0.857010 -0.225853
C8    C     C_R   0.257018 0.782482 0.811498 -0.006668
C9    C     C_R   0.105812 0.773160 0.773290 -0.055746
C10   C     C_R   0.942462 0.810799 0.781654 0.118623
C11   C     C_R   0.418729 0.743595 0.802268 0.366287
C12   C     C_R   0.431906 0.699286 0.754346 -0.191046
C13   C     C_R   0.283946 0.690248 0.716203 0.016758
C14   C     C_R   0.118910 0.726610 0.725965 0.073565
C15   C     C_R   0.967480 0.716722 0.688075 0.118148
C16   C     C_R   0.805847 0.753762 0.697097 -0.236989
C17   C     C_R   0.793989 0.800459 0.743055 -0.102275
C18   C     C_R   0.297519 0.644807 0.668701 -0.198173
C19   C     C_R   0.145181 0.634000 0.631407 -0.080110
C20   C     C_R   0.980214 0.670088 0.641608 -0.215635
H1    H     H_    0.359975 0.840243 0.885989 0.159737
H2    H     H_    0.557958 0.670901 0.747473 0.155540
H3    H     H_    0.424656 0.616901 0.661369 0.124308
H4    H     H_    0.862522 0.662407 0.612931 0.124947
H5    H     H_    0.688315 0.746781 0.668423 0.133879
H6    H     H_    0.666867 0.828273 0.748279 0.169551
C21   C     C_R   0.259291 0.882336 0.121424 -0.158207
H7    H     H_    0.392003 0.900491 0.109787 0.118758
C22   C     C_R   0.269733 0.846288 0.157553 -0.133729
H8    H     H_    0.409983 0.837725 0.172501 0.132964
C23   C     C_R   0.101658 0.821720 0.174114 0.020698
C24   C     C_R   0.922801 0.834202 0.153438 -0.129260
H9    H     H_    0.790135 0.816173 0.165221 0.139008
C25   C     C_R   0.912275 0.870382 0.117393 -0.159829
H10   H     H_    0.772000 0.879061 0.102521 0.119098
C26   C     C_R   0.080392 0.894991 0.100865 -0.049057
N1    N     N_R   0.950680 0.757791 0.226856 -0.276688
N2    N     N_R   0.959381 0.723879 0.261559 -0.281351
C27   C     C_R   0.130035 0.714112 0.283907 0.536302
N3    N     N_R   0.292003 0.739840 0.269838 -0.274203
N4    N     N_R   0.283331 0.773741 0.235027 -0.281689
C28   C     C_R   0.112350 0.783546 0.212772 0.512979
C29   C     C_R   0.309872 0.669272 0.349567 -0.123388
H11   H     H_    0.441998 0.690644 0.341608 0.152055
C30   C     C_R   0.313966 0.634430 0.386857 -0.189566
H12   H     H_    0.448851 0.630306 0.406532 0.161168
C31   C     C_R   0.146596 0.605768 0.399077 -0.145302
C32   C     C_R   0.971610 0.614241 0.373043 0.338698
C33   C     C_R   0.970074 0.648174 0.335106 -0.141595
H13   H     H_    0.834665 0.653055 0.315658 0.156892
C34   C     C_R   0.137660 0.676536 0.323128 -0.055581
C35   C     C_R   0.466909 0.382531 0.623052 -0.159720
H14   H     H_    0.333333 0.400900 0.612572 0.119224
C36   C     C_R   0.460743 0.346635 0.659444 -0.130756
H15   H     H_    0.322374 0.338333 0.675760 0.134767
C37   C     C_R   0.630627 0.321923 0.674568 0.020834
C38   C     C_R   0.806664 0.333995 0.652136 -0.132023
H16   H     H_    0.940458 0.315874 0.662748 0.137144
C39   C     C_R   0.812939 0.370011 0.615920 -0.158610
H17   H     H_    0.951544 0.378393 0.599766 0.120298
C40   C     C_R   0.643234 0.394882 0.600881 -0.050585
N5    N     N_R   0.786264 0.257304 0.725931 -0.278601
N6    N     N_R   0.780506 0.223773 0.761087 -0.280328
C41   C     C_R   0.612623 0.215686 0.785700 0.535108
N7    N     N_R   0.450971 0.242555 0.773392 -0.276220
N8    N     N_R   0.456641 0.275958 0.738199 -0.280406
C42   C     C_R   0.624412 0.284169 0.713662 0.512980
C43   C     C_R   0.434631 0.175087 0.853902 -0.220851
H18   H     H_    0.309478 0.200280 0.847576 0.138369
C44   C     C_R   0.423199 0.139834 0.891214 0.357601
C45   C     C_R   0.585394 0.106242 0.899696 -0.081215
C46   C     C_R   0.756091 0.110173 0.871111 -0.236045
H19   H     H_    0.882400 0.084974 0.876491 0.158636
C47   C     C_R   0.765964 0.145800 0.834571 -0.142493
H20   H     H_    0.899817 0.147300 0.813272 0.148468
C48   C     C_R   0.604891 0.178384 0.825184 -0.011123
C49   C     C_R   0.749726 0.140057 0.165334 -0.212614
C50   C     C_R   0.585599 0.133717 0.132053 -0.081905
C51   C     C_R   0.433002 0.174438 0.146442 -0.215148
C52   C     C_R   0.444391 0.221241 0.193008 0.087472
C53   C     C_R   0.608575 0.226782 0.226367 0.054966
C54   C     C_R   0.761306 0.185853 0.212564 0.089291
C55   C     C_R   0.294580 0.262719 0.206823 -0.175481
C56   C     C_R   0.305840 0.308757 0.253614 -0.181746
C57   C     C_R   0.467333 0.314262 0.287424 0.086003
C58   C     C_R   0.620063 0.273333 0.273617 0.054945
C59   C     C_R   0.784249 0.278869 0.306974 0.091988
C60   C     C_R   0.934071 0.237397 0.293158 -0.180487
C61   C     C_R   0.922810 0.191361 0.246369 -0.187747
C62   C     C_R   0.478907 0.360050 0.334665 -0.202470
C63   C     C_R   0.643029 0.366374 0.367949 -0.086764
C64   C     C_R   0.795631 0.325658 0.353545 -0.219921
H21   H     H_    0.867608 0.108762 0.154906 0.124393
H22   H     H_    0.306298 0.170177 0.121059 0.133821
H23   H     H_    0.167801 0.259330 0.181600 0.139735
H24   H     H_    0.187417 0.339881 0.263525 0.138941
H25   H     H_    0.361034 0.391346 0.345103 0.129970
H26   H     H_    0.922346 0.329911 0.378923 0.127672
H27   H     H_    0.060852 0.240787 0.318379 0.136017
H28   H     H_    0.041234 0.160238 0.236458 0.133854
O11   O     O_R   0.738220 0.046730 0.952360 -0.546517
O12   O     O_R   0.404950 0.067790 0.062410 -0.543190
O13   O     O_R   0.230980 0.953320 0.047680 -0.544192
C65   C     C_R   0.574084 0.084417 0.082647 0.704569
O14   O     O_R   0.408720 0.053790 0.953630 -0.504687
O15   O     O_R   0.234780 0.939210 0.938130 -0.536268
C66   C     C_R   0.577352 0.066575 0.937423 0.736992
O16   O     O_R   0.734430 0.060840 0.061910 -0.542799
O17   O     O_3   0.566930 0.962480 0.995080 -0.371539
V3    V     V_3+5 0.293490 0.006960 0.000910 1.466945
O18   O     O_R   0.904820 0.932150 0.937550 -0.531267
C67   C     C_R   0.073149 0.916686 0.916557 0.710516
O19   O     O_R   0.901050 0.946150 0.046320 -0.544659
C68   C     C_R   0.069921 0.933957 0.062877 0.678659
V4    V     V_3+5 0.793050 0.992940 0.999010 1.436215
O20   O     O_3   0.069480 0.037520 0.004920 -0.358551
O21   O     O_3   0.776411 0.897063 0.832056 -0.648506
H29   H     H_    0.821645 0.938002 0.848835 0.280490
O22   O     O_3   0.799586 0.589489 0.383049 -0.644937
H30   H     H_    0.773386 0.605781 0.421685 0.284566
O23   O     O_3   0.255847 0.138453 0.920032 -0.643065
H31   H     H_    0.158631 0.164950 0.909959 0.282873
O24   O     O_3   0.568103 0.747339 0.838346 -0.635710
H32   H     H_    0.514914 0.759363 0.875004 0.286857

loop_
_geom_bond_atom_site_label_1
_geom_bond_atom_site_label_2
_ccdc_geom_bond_type
C36   C37   A    
C29   H11   S    
N6    C41   A    
C53   C54   A    
C10   C17   A    
C22   H8    S    
C55   C56   A    
C4    C19   S    
C1    O6    A    
C57   C58   A    
C30   H12   S    
O16   V4    S    
O24   H32   S    
C21   C22   A    
N4    C28   A    
C24   H9    S    
C61   H28   S    
C14   C15   A    
O13   C68   A    
C18   H3    S    
C20   H4    S    
C16   C17   A    
C46   C47   A    
O17   V4    S    
O14   C66   A    
O5    C3    A    
C18   C19   A    
C47   C48   A    
C30   C31   A    
N1    C28   A    
C58   C59   A    
C33   C34   A    
C6    C7    A    
O15   V3    S    
C45   C66   S    
C49   C54   A    
C38   C39   A    
C52   C53   A    
C62   C63   A    
O11   C66   A    
C3    C31   S    
O8    V2    S    
C46   H19   S    
C7    C8    A    
C54   C61   A    
C37   C38   A    
C29   C34   A    
C17   H6    S    
C11   C12   A    
O1    V2    S    
C50   C65   S    
O7    V1    S    
C41   C48   S    
C57   C62   A    
C37   C42   S    
C36   H15   S    
C56   H24   S    
C31   C32   A    
O13   V3    S    
C2    C63   S    
O9    C4    A    
C22   C23   A    
C51   H22   S    
C38   H16   S    
C32   O22   S    
C9    C14   A    
C24   C25   A    
N2    C27   A    
C25   C26   A    
N5    N6    A    
C5    O21   S    
C27   N3    A    
O18   C67   A    
C27   C34   S    
C12   C13   A    
C43   C44   A    
C7    H1    S    
C51   C52   A    
C39   C40   A    
C47   H20   S    
C13   C14   A    
N7    N8    A    
C52   C55   A    
C12   H2    S    
C65   O16   A    
C32   C33   A    
C35   C36   A    
O2    C1    A    
O14   V3    S    
C23   C28   S    
O18   V4    S    
C45   C46   A    
C8    C11   A    
C35   C40   A    
C56   C57   A    
C5    C6    A    
C1    C40   S    
O15   C67   A    
C41   N7    A    
O17   V3    S    
O3    C4    A    
C55   H23   S    
N1    N2    A    
O6    V2    S    
N5    C42   A    
O9    V2    S    
C23   C24   A    
O19   C68   A    
O22   H30   S    
O2    V1    S    
C21   H7    S    
N3    N4    A    
O4    C2    A    
O21   H29   S    
C13   C18   A    
C25   H10   S    
C15   C20   A    
O1    C2    A    
C19   C20   A    
C43   H18   S    
O5    V1    S    
O12   C65   A    
O8    C3    A    
V4    O20   S    
O11   V4    S    
C5    C10   A    
C59   C60   A    
C11   O24   S    
C35   H14   S    
C44   O23   S    
C29   C30   A    
O7    V2    S    
C39   H17   S    
C43   C48   A    
O3    V1    S    
V1    O10   S    
C64   H26   S    
N8    C42   A    
C50   C51   A    
O23   H31   S    
C16   H5    S    
C60   C61   A    
C59   C64   A    
V3    O20   S    
C33   H13   S    
C26   C68   S    
O12   V3    S    
O4    V1    S    
C8    C9    A    
C60   H27   S    
C44   C45   A    
C49   H21   S    
C63   C64   A    
O19   V4    S    
C62   H25   S    
C49   C50   A    
C9    C10   A    
C53   C58   A    
V2    O10   S    
C6    C67   S    
C21   C26   A    
C15   C16   A    
