data_mof_unit_34774.cif
_audit_creation_date              2013-03-05T16:33:33-0500
_audit_creation_method            fapswitch 2.2
_symmetry_space_group_name_H-M    P1
_symmetry_Int_Tables_number       1
_space_group_crystal_system       triclinic
_cell_length_a                    10.846063
_cell_length_b                    10.773242
_cell_length_c                    9.583789
_cell_angle_alpha                 89.664992
_cell_angle_beta                  90.164273
_cell_angle_gamma                 90.921996
_cell_volume                      1119.67106604

loop_
_atom_site_label
_atom_site_type_symbol
_atom_site_description
_atom_site_fract_x
_atom_site_fract_y
_atom_site_fract_z
_atom_type_partial_charge
O1    O     O_R   0.500000 0.319640 0.618810 -0.560382
O2    O     O_R   0.500010 0.319680 0.381230 -0.583628
C1    C     C_R   0.497668 0.262696 0.500437 0.800848
O3    O     O_R   0.319650 0.499970 0.618810 -0.585825
O4    O     O_R   0.319660 0.500010 0.381230 -0.571382
C2    C     C_R   0.262435 0.499858 0.499798 0.796298
Cu1   Cu    Cu3+1 0.499990 0.499980 0.640670 0.997001
Cu2   Cu    Cu3+1 0.500010 0.500020 0.359330 1.001710
O5    O     O_R   0.499990 0.680320 0.618770 -0.591367
O6    O     O_R   0.500000 0.680360 0.381190 -0.546756
O7    O     O_R   0.680340 0.499990 0.618770 -0.565140
O8    O     O_R   0.680350 0.500030 0.381190 -0.591529
C3    C     C_R   0.500071 0.737537 0.499941 0.795964
C4    C     C_R   0.737525 0.496927 0.500306 0.790176
C5    C     C_R   0.064476 0.504267 0.624477 0.080516
C6    C     C_R   0.129041 0.491692 0.499827 -0.108822
C7    C     C_R   0.063490 0.461631 0.377464 -0.180294
H1    H     H_    0.111105 0.444879 0.280335 0.183142
C8    C     C_R   0.934776 0.458874 0.378193 -0.193681
H2    H     H_    0.886055 0.441616 0.281257 0.193339
C9    C     C_R   0.870578 0.484750 0.501649 -0.112155
C10   C     C_R   0.937062 0.497403 0.626157 0.143267
C11   C     C_3   0.926914 0.593931 0.736592 -0.304315
C12   C     C_3   0.067337 0.609134 0.726819 -0.299341
H3    H     H_    0.875075 0.677120 0.702738 0.135426
H4    H     H_    0.097159 0.698556 0.677963 0.153751
C13   C     C_R   0.558352 0.065496 0.603365 0.116318
C14   C     C_R   0.490972 0.129507 0.503335 -0.143155
C15   C     C_R   0.413167 0.063739 0.411824 -0.149042
H5    H     H_    0.354525 0.112292 0.338640 0.162462
C16   C     C_R   0.413518 0.934073 0.412797 -0.118418
H6    H     H_    0.353292 0.883503 0.342229 0.203597
C17   C     C_R   0.494336 0.870948 0.502004 -0.100975
C18   C     C_R   0.561104 0.937430 0.602224 0.081748
C19   C     C_3   0.696814 0.936131 0.632029 -0.552687
C20   C     C_3   0.693125 0.077020 0.633892 0.160605
H7    H     H_    0.718869 0.894305 0.734665 0.224847
H8    H     H_    0.750895 0.899090 0.543496 0.171928
H9    H     H_    0.747122 0.122925 0.548854 0.102123
C21   C     C_R   0.579884 0.574473 0.072356 0.173520
N1    N     N_R   0.500790 0.500930 0.147930 -0.174871
C22   C     C_R   0.429721 0.417512 0.075575 -0.001004
H10   H     H_    0.370587 0.353319 0.132716 0.126385
C23   C     C_R   0.429141 0.417330 0.926922 0.072127
N2    N     N_R   0.500790 0.500890 0.852020 -0.199531
C24   C     C_R   0.582731 0.571480 0.926156 0.208166
C25   C     C_3   0.605523 0.707471 0.913901 -0.495203
C26   C     C_3   0.595878 0.713474 0.071894 0.140377
H11   H     H_    0.700213 0.728088 0.876309 0.149404
H12   H     H_    0.530978 0.757089 0.858113 0.253261
H13   H     H_    0.681732 0.745669 0.125142 0.106433
N3    N     N_R   0.717206 0.130050 0.771794 0.157511
O9    O     O_R   0.797914 0.219848 0.784926 -0.349577
O10   O     O_R   0.655265 0.092358 0.880800 -0.313693
C27   C     C_1   0.347884 0.330867 0.857098 0.338822
N4    N     N_1   0.282060 0.261135 0.801814 -0.265105
N5    N     N_R   0.486809 0.783105 0.111975 0.150439
O11   O     O_R   0.378146 0.730083 0.116122 -0.347017
O12   O     O_R   0.494587 0.903691 0.112301 -0.337966
C28   C     C_1   0.881464 0.536983 0.867627 0.356046
N6    N     N_1   0.848104 0.491379 0.970710 -0.283111
C29   C     C_1   0.136262 0.581529 0.855753 0.360013
N7    N     N_1   0.188606 0.561256 0.958449 -0.261597

loop_
_geom_bond_atom_site_label_1
_geom_bond_atom_site_label_2
_geom_bond_distance
_ccdc_geom_bond_type
O4    Cu2   1.967912 S    
Cu1   O7    1.967912 S    
C11   C12   1.532270 S    
C16   C17   1.403509 A    
C3    C17   1.439868 S    
C15   H5    1.083482 S    
C13   C20   1.493273 S    
N1    C22   1.365492 A    
C8    H2    1.083006 S    
C20   N3    1.464020 S    
Cu2   O8    1.966568 S    
N3    O10   1.303026 A    
C27   N4    1.157581 T    
C11   H3    1.111918 S    
C7    H1    1.083280 S    
Cu1   Cu2   2.696301 S    
C15   C16   1.396970 A    
O1    Cu1   1.955329 S    
C9    C10   1.398645 A    
N3    O9    1.300591 A    
C21   C24   1.402153 A    
C23   C27   1.438636 S    
N5    O11   1.302003 A    
C29   N7    1.156270 T    
C22   C23   1.424666 A    
C12   C29   1.473686 S    
O3    Cu1   1.966568 S    
O4    C2    1.296329 A    
Cu1   N2    2.025608 S    
C4    C9    1.451165 S    
O3    C2    1.296900 A    
C14   C15   1.402534 A    
C8    C9    1.406158 A    
O8    C4    1.298097 A    
O6    C3    1.297243 A    
C17   C18   1.395462 A    
C25   H12   1.110582 S    
O2    C1    1.293904 A    
C5    C10   1.382866 A    
C13   C18   1.380598 A    
C11   C28   1.476914 S    
Cu2   O6    1.955329 S    
O7    C4    1.296105 A    
N5    O12   1.300510 A    
C1    C14   1.435654 S    
C22   H10   1.082973 S    
C2    C6    1.448068 S    
C5    C6    1.394842 A    
C25   C26   1.519909 S    
C26   N5    1.464318 S    
C19   H8    1.112463 S    
Cu2   N1    2.026020 S    
C25   H11   1.108027 S    
C18   C19   1.498851 S    
C24   C25   1.485866 S    
C13   C14   1.390382 A    
Cu1   O5    1.952931 S    
O5    C3    1.291776 A    
C10   C11   1.493635 S    
C5    C12   1.500328 S    
C21   N1    1.364996 A    
C7    C8    1.395912 A    
C19   H7    1.106684 S    
N2    C24   1.361602 A    
C21   C26   1.504716 S    
C20   H9    1.113765 S    
C26   H13   1.112100 S    
O2    Cu2   1.952929 S    
C23   N2    1.379389 A    
C16   H6    1.082226 S    
C6    C7    1.406360 A    
C12   H4    1.112436 S    
C28   N6    1.157133 T    
O1    C1    1.292851 A    
C19   C20   1.519210 S    
