data_mof_unit_28611.cif
_audit_creation_date              2012-12-10T17:28:33-0500
_audit_creation_method            fapswitch 2.2
_symmetry_space_group_name_H-M    P1
_symmetry_Int_Tables_number       1
_space_group_crystal_system       triclinic
_cell_length_a                    10.538736
_cell_length_b                    11.970044
_cell_length_c                    12.932951
_cell_angle_alpha                 90.70949
_cell_angle_beta                  89.17233
_cell_angle_gamma                 89.681319
_cell_volume                      1631.15838416

loop_
_atom_site_label
_atom_site_type_symbol
_atom_type_description
_atom_site_fract_x
_atom_site_fract_y
_atom_site_fract_z
_atom_type_partial_charge
C1    C     C_R   0.496988 0.519344 0.699750 0.965150
C2    C     C_R   0.503019 0.480656 0.300247 0.965126
C3    C     C_R   0.492097 0.472613 0.190755 -0.224244
C4    C     C_R   0.507925 0.527373 0.809238 -0.224224
C5    C     C_R   0.626332 0.599344 0.953367 0.602139
C6    C     C_R   0.373774 0.400529 0.046615 0.602279
C7    C     C_R   0.601279 0.596768 0.847997 -0.406958
C8    C     C_R   0.398795 0.403164 0.151995 -0.406935
C9    C     C_R   0.440078 0.454368 0.872341 0.504156
C10   C     C_R   0.559940 0.545607 0.127639 0.504122
C11   C     C_R   0.452421 0.463775 0.979722 -0.197058
C12   C     C_R   0.547642 0.536141 0.020259 -0.197046
C13   C     C_R   0.379328 0.954911 0.406849 -0.375597
C14   C     C_R   0.620665 0.045092 0.593164 -0.375581
C15   C     C_R   0.390671 0.838657 0.415078 0.134191
C16   C     C_R   0.609306 0.161347 0.584945 0.133986
C17   C     C_R   0.552001 0.858478 0.540132 -0.061596
C18   C     C_R   0.448007 0.141522 0.459863 -0.061646
C19   C     C_R   0.543717 0.975700 0.533791 0.090064
C20   C     C_R   0.456291 0.024301 0.466207 0.090073
C21   C     C_R   0.740657 0.503437 0.487365 0.894983
C22   C     C_R   0.259346 0.496565 0.512644 0.895000
C23   C     C_R   0.888137 0.328977 0.381287 -0.105116
C24   C     C_R   0.111879 0.671011 0.618757 -0.105135
C25   C     C_R   0.942644 0.222972 0.374615 -0.163535
C26   C     C_R   0.057357 0.777008 0.625468 -0.163559
C27   C     C_R   0.045896 0.197331 0.435803 -0.224875
C28   C     C_R   0.954091 0.802659 0.564299 -0.224873
C29   C     C_R   0.101444 0.280269 0.497306 0.038328
C30   C     C_R   0.898549 0.719737 0.502772 0.038302
C31   C     C_R   0.058111 0.393090 0.491887 0.038746
C32   C     C_R   0.941893 0.606914 0.508155 0.038755
C33   C     C_R   0.941559 0.412649 0.444926 0.070401
C34   C     C_R   0.058452 0.587352 0.555107 0.070435
C35   C     C_R   0.123350 0.487009 0.532523 -0.213623
C36   C     C_R   0.876658 0.512995 0.467503 -0.213614
H1    H     H_    0.920455 0.888345 0.561915 0.139490
H2    H     H_    0.079515 0.111643 0.438223 0.139500
H3    H     H_    0.311007 0.990780 0.354598 0.141295
H4    H     H_    0.688968 0.009226 0.645431 0.141298
H5    H     H_    0.803008 0.345359 0.337840 0.142766
H6    H     H_    0.197015 0.654622 0.662192 0.142744
H7    H     H_    0.899880 0.158776 0.327081 0.145635
H8    H     H_    0.100117 0.841191 0.673020 0.145625
H9    H     H_    0.339768 0.357357 0.205813 0.176746
H10   H     H_    0.660324 0.642567 0.794184 0.176746
H11   H     H_    0.381439 0.180187 0.408058 0.127270
H12   H     H_    0.618571 0.819813 0.591935 0.127245
N1    N     N_R   0.523130 0.207800 0.519340 -0.120221
N2    N     N_R   0.476870 0.792200 0.480660 -0.120150
O1    O     O_R   0.506170 0.421700 0.658830 -0.600504
O2    O     O_R   0.493830 0.578300 0.341170 -0.600492
O3    O     O_R   0.491330 0.609310 0.646410 -0.644779
O4    O     O_R   0.508670 0.390690 0.353590 -0.644742
O5    O     O_R   0.690650 0.406190 0.506220 -0.613812
O6    O     O_R   0.309350 0.593810 0.493780 -0.613814
O7    O     O_R   0.675800 0.593810 0.493800 -0.621230
O8    O     O_R   0.324200 0.406190 0.506200 -0.621264
Zn1   Zn    Zn3+2 0.509910 0.374730 0.508290 0.958575
Zn2   Zn    Zn3+2 0.490090 0.625270 0.491710 0.958635
C37   C     C_1   0.181582 0.242395 0.579377 0.214575
N3    N     N_1   0.244944 0.210878 0.645270 -0.201207
C38   C     C_1   0.818390 0.757639 0.420726 0.214566
N4    N     N_1   0.755001 0.789177 0.354859 -0.201140
O9    O     O_3   0.639609 0.624083 0.172060 -0.560739
C39   C     C_3   0.582944 0.731660 0.167407 -0.150092
H13   H     H_    0.531185 0.750930 0.240331 0.169179
H14   H     H_    0.517308 0.743546 0.101568 0.101849
H15   H     H_    0.659096 0.794592 0.159350 0.183360
O10   O     O_3   0.360411 0.375897 0.827899 -0.560786
C40   C     C_3   0.417101 0.268311 0.832459 -0.149642
H16   H     H_    0.483648 0.256656 0.897762 0.101585
H17   H     H_    0.467889 0.248709 0.759120 0.169495
H18   H     H_    0.340983 0.205442 0.841351 0.183290
O11   O     O_3   0.734703 0.651018 0.991486 -0.542391
C41   C     C_3   0.757113 0.756024 0.946047 -0.314863
H19   H     H_    0.667898 0.804256 0.934121 0.131090
H20   H     H_    0.811596 0.745688 0.872374 0.172662
H21   H     H_    0.816641 0.806111 0.999084 0.192364
O12   O     O_3   0.265463 0.348760 0.008487 -0.542466
C42   C     C_3   0.243091 0.243792 0.054007 -0.315335
H22   H     H_    0.188580 0.254193 0.127660 0.172793
H23   H     H_    0.332334 0.195609 0.065991 0.131230
H24   H     H_    0.183593 0.193625 0.000999 0.192300
C43   C     C_1   0.689993 0.230429 0.647389 0.208910
N5    N     N_1   0.755201 0.285320 0.698021 -0.201452
C44   C     C_1   0.309899 0.769587 0.352701 0.208774
N6    N     N_1   0.244619 0.714706 0.302123 -0.201490

loop_
_geom_bond_atom_site_label_1
_geom_bond_atom_site_label_2
_ccdc_geom_bond_type
C39   H14   S    
C44   N6    T    
O5    Zn1   S    
C27   C29   A    
C24   H6    S    
C19   C20   A    
C41   H21   S    
C18   H11   S    
C25   H7    S    
C42   H22   S    
C26   H8    S    
C21   C36   S    
C43   N5    T    
C22   C35   S    
C32   C36   A    
C24   C26   A    
C39   H15   S    
C27   H2    S    
C33   C36   A    
C34   C35   A    
C15   N2    A    
C1    O3    A    
C8    H9    S    
O2    Zn2   S    
C23   C33   A    
C17   H12   S    
O10   C40   S    
C39   H13   S    
C30   C38   S    
C4    C7    A    
C10   C12   A    
C42   H23   S    
O3    Zn2   S    
C5    C7    A    
O4    Zn1   S    
C29   C37   S    
C7    H10   S    
C41   H19   S    
C5    C12   A    
C3    C8    A    
C2    O4    A    
C6    C11   A    
C21   O5    A    
O7    Zn2   S    
C6    C8    A    
O8    Zn1   S    
C38   N4    T    
C24   C34   A    
O6    Zn2   S    
C32   C34   A    
C5    O11   S    
O11   C41   S    
C21   O7    A    
C9    C11   A    
C6    O12   S    
C31   C33   A    
C16   N1    A    
C1    O1    A    
C2    O2    A    
C13   C15   A    
C16   C43   S    
C14   C16   A    
O1    Zn1   S    
C42   H24   S    
C15   C44   S    
C10   O9    S    
C13   C20   A    
C14   C19   A    
C41   H20   S    
O12   C42   S    
N1    Zn1   S    
C17   N2    A    
C22   O8    A    
C40   H18   S    
C22   O6    A    
C11   C12   A    
C25   C27   A    
C26   C28   A    
C23   H5    S    
C1    C4    S    
N2    Zn2   S    
C28   C30   A    
C2    C3    S    
C40   H16   S    
C29   C31   A    
C3    C10   A    
C30   C32   A    
C28   H1    S    
C31   C35   A    
C17   C19   A    
C18   C20   A    
C23   C25   A    
C37   N3    T    
C13   H3    S    
C14   H4    S    
C9    O10   S    
O9    C39   S    
C40   H17   S    
C4    C9    A    
C18   N1    A    
