data_mof_unit_65128.cif
_audit_creation_date              2012-12-10T17:05:03-0500
_audit_creation_method            fapswitch 2.2
_symmetry_space_group_name_H-M    P1
_symmetry_Int_Tables_number       1
_space_group_crystal_system       triclinic
_cell_length_a                    30.094828
_cell_length_b                    30.551189
_cell_length_c                    21.581203
_cell_angle_alpha                 89.919499
_cell_angle_beta                  134.791666
_cell_angle_gamma                 90.095876
_cell_volume                      14081.645947

loop_
_atom_site_label
_atom_site_type_symbol
_atom_type_description
_atom_site_fract_x
_atom_site_fract_y
_atom_site_fract_z
_atom_type_partial_charge
C1    C     C_R   0.307602 0.810036 0.120143 0.869181
C2    C     C_R   0.484666 0.674071 0.015288 -0.178379
C3    C     C_R   0.293369 0.185205 0.235720 -0.192970
C4    C     C_R   0.207993 0.687205 0.701104 0.221245
C5    C     C_R   0.791090 0.686315 0.297817 0.220632
C6    C     C_R   0.709006 0.186686 0.702259 0.221216
C7    C     C_R   0.292025 0.186807 0.298877 0.221177
C8    C     C_R   0.166704 0.661600 0.626300 -0.162621
C9    C     C_R   0.832540 0.660876 0.372853 -0.164717
C10   C     C_R   0.667702 0.161154 0.627350 -0.165345
C11   C     C_R   0.333485 0.161322 0.373847 -0.162560
C12   C     C_R   0.126118 0.632731 0.616493 -0.198265
C13   C     C_R   0.022245 0.173735 0.998635 -0.179626
C14   C     C_R   0.873550 0.632386 0.383140 -0.197412
C15   C     C_R   0.626756 0.132494 0.617113 -0.198347
C16   C     C_R   0.374189 0.132650 0.383770 -0.195972
C17   C     C_R   0.126873 0.628492 0.682626 0.103616
C18   C     C_R   0.873034 0.628332 0.317229 0.104103
C19   C     C_R   0.627183 0.128369 0.682943 0.104155
C20   C     C_R   0.373384 0.128493 0.317595 0.104784
C21   C     C_R   0.164554 0.657286 0.754242 0.030596
C22   C     C_R   0.835228 0.657025 0.245446 0.030821
C23   C     C_R   0.664869 0.157127 0.754618 0.030230
C24   C     C_R   0.977124 0.173740 0.000654 -0.179040
C25   C     C_R   0.335558 0.157198 0.245833 0.031264
C26   C     C_R   0.159200 0.657117 0.814184 -0.140396
C27   C     C_R   0.840859 0.657123 0.185811 -0.139501
C28   C     C_R   0.659193 0.157118 0.814209 -0.139706
C29   C     C_R   0.340895 0.157144 0.185877 -0.138856
C30   C     C_R   0.120187 0.627537 0.806877 0.135285
C31   C     C_R   0.880253 0.627886 0.193537 0.135573
C32   C     C_R   0.619880 0.127714 0.806556 0.135204
C33   C     C_R   0.380114 0.127807 0.193396 0.134891
C34   C     C_R   0.087103 0.597249 0.740563 -0.219477
C35   C     C_R   0.470901 0.832959 0.986751 -0.165871
C36   C     C_R   0.913419 0.597632 0.259948 -0.218370
C37   C     C_R   0.586800 0.097433 0.740231 -0.218614
C38   C     C_R   0.413311 0.097564 0.259829 -0.219971
C39   C     C_R   0.163151 0.750138 0.999942 0.886472
C40   C     C_R   0.836760 0.750279 0.999945 0.883427
C41   C     C_R   0.663216 0.250230 0.000044 0.884445
C42   C     C_R   0.336804 0.250270 0.000004 0.884984
C43   C     C_R   0.090523 0.597035 0.679300 -0.148666
C44   C     C_R   0.909704 0.597146 0.320904 -0.149706
C45   C     C_R   0.590519 0.097064 0.679275 -0.149257
C46   C     C_R   0.514671 0.832690 0.982370 -0.168940
C47   C     C_R   0.409792 0.097179 0.320991 -0.148163
C48   C     C_R   0.941605 0.561935 0.383615 0.859620
C49   C     C_R   0.058482 0.561897 0.616462 0.859132
C50   C     C_R   0.441632 0.061946 0.383652 0.871869
C51   C     C_R   0.558478 0.061909 0.616448 0.858148
C52   C     C_R   0.440850 0.938966 0.382143 0.875514
C53   C     C_R   0.561741 0.941462 0.623042 0.857320
C54   C     C_R   0.938133 0.441526 0.376810 0.873465
C55   C     C_R   0.061830 0.441537 0.623198 0.873335
C56   C     C_R   0.585897 0.792593 0.984468 0.095064
C57   C     C_R   0.978177 0.333276 0.002033 -0.167543
C58   C     C_R   0.407518 0.793630 0.000853 0.108484
C59   C     C_R   0.088653 0.293298 0.990538 0.098572
C60   C     C_R   0.911201 0.293318 0.008841 0.098736
C61   C     C_R   0.612940 0.752326 0.994488 -0.099520
C62   C     C_R   0.387458 0.753133 0.005583 -0.107276
C63   C     C_R   0.112509 0.252759 0.993966 -0.104812
C64   C     C_R   0.887304 0.252782 0.005625 -0.104760
C65   C     C_R   0.593949 0.713110 0.002946 -0.269729
C66   C     C_R   0.413406 0.713751 0.011085 -0.271824
C67   C     C_R   0.090137 0.213322 0.995791 -0.273108
C68   C     C_R   0.021652 0.333271 0.997025 -0.167522
C69   C     C_R   0.909480 0.213341 0.003697 -0.272388
C70   C     C_R   0.548667 0.713284 0.004377 0.133773
C71   C     C_R   0.458609 0.713673 0.009483 0.129008
C72   C     C_R   0.044794 0.213392 0.997109 0.132392
C73   C     C_R   0.954731 0.213402 0.002198 0.132537
C74   C     C_R   0.522498 0.753461 0.997890 0.051657
C75   C     C_R   0.477506 0.753676 0.001052 0.051727
C76   C     C_R   0.022258 0.253665 0.997926 0.051830
C77   C     C_R   0.977365 0.253670 0.001291 0.052015
C78   C     C_R   0.323691 0.800995 0.270833 -0.209109
C79   C     C_R   0.762414 0.877847 0.885684 -0.207327
C80   C     C_R   0.737463 0.376793 0.115522 -0.210664
C81   C     C_R   0.691533 0.810052 0.880060 0.868721
C82   C     C_R   0.262488 0.377112 0.884575 -0.210397
C83   C     C_R   0.339811 0.794014 0.348553 0.212905
C84   C     C_R   0.795400 0.913400 0.894032 0.222909
C85   C     C_R   0.704238 0.411848 0.107788 0.223630
C86   C     C_R   0.295668 0.412316 0.892358 0.223501
C87   C     C_R   0.381049 0.822427 0.418589 -0.151031
C88   C     C_R   0.763100 0.949592 0.839664 -0.159156
C89   C     C_R   0.736273 0.448147 0.161923 -0.157764
C90   C     C_R   0.263584 0.448614 0.838229 -0.156923
C91   C     C_R   0.404736 0.858625 0.410266 -0.214058
C92   C     C_R   0.808531 0.310046 0.119936 0.867402
C93   C     C_R   0.697797 0.949563 0.774488 -0.203206
C94   C     C_R   0.801587 0.448686 0.226348 -0.204796
C95   C     C_R   0.198270 0.449009 0.773775 -0.204259
C96   C     C_R   0.387760 0.866823 0.331267 0.103815
C97   C     C_R   0.663511 0.912845 0.762215 0.105096
C98   C     C_R   0.836169 0.412404 0.238200 0.103689
C99   C     C_R   0.163742 0.412591 0.761907 0.103464
C100  C     C_R   0.349545 0.836438 0.262450 0.069483
C101  C     C_R   0.696176 0.877817 0.821736 0.060243
C102  C     C_R   0.803678 0.377319 0.178786 0.061888
C103  C     C_R   0.191475 0.310049 0.880072 0.867344
C104  C     C_R   0.196269 0.377495 0.821289 0.061932
C105  C     C_R   0.337863 0.842945 0.186969 -0.101893
C106  C     C_R   0.661444 0.843396 0.814671 -0.080997
C107  C     C_R   0.838561 0.343368 0.185284 -0.079562
C108  C     C_R   0.161415 0.343395 0.814733 -0.079251
C109  C     C_R   0.337981 0.751155 0.002439 0.906520
C110  C     C_R   0.662424 0.750688 0.998142 0.903397
C111  C     C_R   0.837808 0.250964 0.002203 0.902852
C112  C     C_R   0.162156 0.250941 0.997708 0.902962
C113  C     C_R   0.359367 0.880251 0.177388 -0.170795
C114  C     C_R   0.541142 0.793289 0.988045 0.075642
C115  C     C_R   0.596364 0.842046 0.747432 -0.167802
C116  C     C_R   0.903664 0.342475 0.251898 -0.177325
C117  C     C_R   0.096309 0.342392 0.748134 -0.177325
C118  C     C_R   0.394495 0.910770 0.243151 -0.192998
C119  C     C_R   0.564519 0.875120 0.686640 -0.194674
C120  C     C_R   0.935389 0.375552 0.312665 -0.189893
C121  C     C_R   0.064552 0.375491 0.687392 -0.190220
C122  C     C_R   0.408550 0.904321 0.319279 -0.097221
C123  C     C_R   0.597426 0.910110 0.693009 -0.093376
C124  C     C_R   0.902350 0.410139 0.306840 -0.102836
C125  C     C_R   0.451761 0.793790 0.996244 0.076632
C126  C     C_R   0.097573 0.410197 0.693245 -0.102412
C127  C     C_R   0.867115 0.750576 0.920417 -0.236674
C128  C     C_R   0.132587 0.748819 0.079277 -0.229557
C129  C     C_R   0.367255 0.250275 0.920549 -0.237003
C130  C     C_R   0.632809 0.250158 0.079572 -0.237287
C131  C     C_R   0.884533 0.750938 0.999911 -0.048562
C132  C     C_R   0.115284 0.750535 0.999892 -0.053941
C133  C     C_R   0.384613 0.251060 0.999989 -0.049302
C134  C     C_R   0.615441 0.250935 0.000122 -0.049368
C135  C     C_R   0.947419 0.751848 0.079369 -0.201794
C136  C     C_R   0.044341 0.293794 0.995025 0.073995
C137  C     C_R   0.052423 0.752687 0.920493 -0.217359
C138  C     C_R   0.447489 0.252785 0.079436 -0.203097
C139  C     C_R   0.552568 0.252665 0.920681 -0.202945
C140  C     C_R   0.993914 0.751403 0.080002 0.114822
C141  C     C_R   0.005878 0.752404 0.919798 0.116717
C142  C     C_R   0.494030 0.252670 0.080137 0.118544
C143  C     C_R   0.506036 0.252599 0.919989 0.118370
C144  C     C_R   0.976658 0.751448 0.999876 0.064858
C145  C     C_R   0.023102 0.751293 0.999878 0.061299
C146  C     C_R   0.476801 0.252197 0.000044 0.066033
C147  C     C_R   0.955418 0.293804 0.004174 0.074278
C148  C     C_R   0.523267 0.252160 0.000085 0.066079
C149  C     C_R   0.912961 0.751467 0.919755 0.125800
C150  C     C_R   0.086762 0.749881 0.079960 0.116734
C151  C     C_R   0.413110 0.251465 0.919912 0.125696
C152  C     C_R   0.586957 0.251396 0.080215 0.125981
C153  C     C_R   0.057193 0.750622 0.159154 -0.185918
C154  C     C_R   0.942576 0.753030 0.840627 -0.191916
C155  C     C_R   0.557332 0.252667 0.159329 -0.185634
C156  C     C_R   0.442736 0.252629 0.840796 -0.185179
C157  C     C_R   0.190165 0.689959 0.880186 0.893504
C158  C     C_R   0.529731 0.673897 0.013154 -0.173513
C159  C     C_R   0.809857 0.689964 0.119803 0.892642
C160  C     C_R   0.690148 0.189961 0.880192 0.894686
C161  C     C_R   0.309847 0.189966 0.119813 0.894786
C162  C     C_R   0.103431 0.749584 0.159112 -0.178468
C163  C     C_R   0.896277 0.752284 0.840596 -0.191883
C164  C     C_R   0.603629 0.251756 0.159370 -0.191238
C165  C     C_R   0.396438 0.251787 0.840757 -0.190871
C166  C     C_R   0.206616 0.685501 0.764226 -0.193545
C167  C     C_R   0.792763 0.684871 0.234984 -0.194726
C168  C     C_R   0.707265 0.185147 0.765023 -0.193333
H1    H     H_    0.410183 0.939857 0.234227 0.167708
H2    H     H_    0.039944 0.753641 0.859514 0.158090
H3    H     H_    0.459970 0.253160 0.140431 0.158165
H4    H     H_    0.540080 0.253038 0.859679 0.158174
H5    H     H_    0.070850 0.750495 0.220934 0.163791
H6    H     H_    0.928940 0.753793 0.778873 0.158022
H7    H     H_    0.570962 0.252971 0.221087 0.158225
H8    H     H_    0.429107 0.252909 0.779038 0.158472
H9    H     H_    0.152125 0.748698 0.220850 0.184755
H10   H     H_    0.847509 0.752453 0.778821 0.156778
H11   H     H_    0.652388 0.251362 0.221156 0.155439
H12   H     H_    0.513957 0.873078 0.633669 0.155256
H13   H     H_    0.347677 0.251415 0.778971 0.155682
H14   H     H_    0.239043 0.706161 0.821084 0.155468
H15   H     H_    0.760250 0.705426 0.177967 0.153251
H16   H     H_    0.739677 0.205769 0.821948 0.154530
H17   H     H_    0.260818 0.205774 0.178735 0.154610
H18   H     H_    0.166174 0.663882 0.575725 0.168903
H19   H     H_    0.832864 0.662989 0.423233 0.166619
H20   H     H_    0.667439 0.163330 0.577026 0.166074
H21   H     H_    0.334044 0.163535 0.424448 0.166202
H22   H     H_    0.093653 0.614748 0.555924 0.171425
H23   H     H_    0.986004 0.373812 0.365277 0.168072
H24   H     H_    0.906141 0.614551 0.443895 0.171077
H25   H     H_    0.594285 0.114589 0.556450 0.170627
H26   H     H_    0.406780 0.114744 0.444443 0.168736
H27   H     H_    0.615466 0.682514 0.010021 0.158023
H28   H     H_    0.397446 0.682999 0.015123 0.164900
H29   H     H_    0.109006 0.182524 0.997680 0.160697
H30   H     H_    0.890557 0.182547 0.001921 0.161031
H31   H     H_    0.058761 0.573475 0.737354 0.193421
H32   H     H_    0.942013 0.574084 0.263424 0.194105
H33   H     H_    0.558233 0.073784 0.736787 0.193765
H34   H     H_    0.013941 0.373667 0.634754 0.167730
H35   H     H_    0.441753 0.073931 0.263145 0.190530
H36   H     H_    0.549712 0.642979 0.018221 0.156665
H37   H     H_    0.470295 0.643266 0.021712 0.156544
H38   H     H_    0.039402 0.142737 0.998031 0.154247
H39   H     H_    0.959875 0.142746 0.001299 0.154909
H40   H     H_    0.452142 0.864351 0.981635 0.190081
H41   H     H_    0.527629 0.863900 0.975380 0.189301
H42   H     H_    0.962399 0.364702 0.003132 0.189862
H43   H     H_    0.037510 0.364694 0.995862 0.189959
H44   H     H_    0.349836 0.885473 0.119313 0.194056
H45   H     H_    0.817961 0.750316 0.859422 0.150520
H46   H     H_    0.570105 0.815527 0.742705 0.166935
H47   H     H_    0.930020 0.316290 0.256200 0.164477
H48   H     H_    0.069981 0.316099 0.743820 0.164296
H49   H     H_    0.290294 0.778771 0.217500 0.161568
H50   H     H_    0.789184 0.850257 0.928774 0.161451
H51   H     H_    0.710923 0.349125 0.072545 0.160300
H52   H     H_    0.289066 0.349446 0.927533 0.160305
H53   H     H_    0.394438 0.816702 0.479448 0.164088
H54   H     H_    0.788581 0.977705 0.847385 0.165759
H55   H     H_    0.710582 0.475904 0.154612 0.166841
H56   H     H_    0.181663 0.747486 0.140243 0.162715
H57   H     H_    0.289236 0.476478 0.845565 0.167417
H58   H     H_    0.436927 0.879644 0.466541 0.153788
H59   H     H_    0.674892 0.978755 0.735082 0.171552
H60   H     H_    0.824232 0.477970 0.265494 0.171769
H61   H     H_    0.175571 0.478287 0.734605 0.171675
H62   H     H_    0.318121 0.249453 0.859543 0.150125
H63   H     H_    0.681942 0.249337 0.140571 0.150054
H64   H     H_    0.959911 0.751839 0.140377 0.158400
I1    I     I_    0.609536 0.851028 0.956929 -0.326561
I2    I     I_    0.726557 0.727774 0.279436 -0.352308
I3    I     I_    0.773430 0.228434 0.720581 -0.353171
I4    I     I_    0.227955 0.228570 0.281041 -0.349093
I5    I     I_    0.302773 0.739916 0.360726 -0.384093
I6    I     I_    0.894164 0.912328 0.989711 -0.352324
I7    I     I_    0.605511 0.409831 0.013476 -0.321702
I8    I     I_    0.394399 0.410530 0.986733 -0.322196
I9    I     I_    0.375410 0.854235 0.008928 -0.356367
I10   I     I_    0.115516 0.352751 0.970234 -0.318950
I11   I     I_    0.884583 0.352782 0.029172 -0.319658
I12   I     I_    0.106644 0.627681 0.891340 -0.316908
I13   I     I_    0.894161 0.628487 0.109490 -0.321939
I14   I     I_    0.605934 0.128110 0.890561 -0.329543
I15   I     I_    0.393749 0.128244 0.109039 -0.336299
I16   I     I_    0.271839 0.729322 0.718731 -0.337009
O1    O     O_R   0.321630 0.769940 0.143350 -0.622148
O2    O     O_R   0.508520 0.954180 0.591620 -0.618690
O3    O     O_R   0.991480 0.454180 0.408380 -0.607814
O4    O     O_R   0.008520 0.454180 0.591620 -0.608249
O5    O     O_R   0.416890 0.954190 0.408420 -0.615309
O6    O     O_R   0.583110 0.954190 0.591580 -0.621114
O7    O     O_R   0.916890 0.454190 0.408420 -0.622791
O8    O     O_R   0.083110 0.454190 0.591580 -0.622361
O9    O     O_R   0.269950 0.821660 0.039930 -0.606702
O10   O     O_R   0.730050 0.821660 0.960070 -0.599353
O11   O     O_R   0.769950 0.321660 0.039930 -0.598836
O12   O     O_R   0.678370 0.769940 0.856650 -0.625974
O13   O     O_R   0.230050 0.321660 0.960070 -0.598670
O14   O     O_R   0.341900 0.724110 0.051720 -0.622227
O15   O     O_R   0.658100 0.724110 0.948280 -0.623146
O16   O     O_R   0.841900 0.224110 0.051720 -0.626516
O17   O     O_R   0.158100 0.224110 0.948280 -0.627184
O18   O     O_R   0.290220 0.775830 0.948290 -0.591454
O19   O     O_R   0.709780 0.775830 0.051710 -0.591374
O20   O     O_R   0.790220 0.275830 0.948290 -0.590123
O21   O     O_R   0.209780 0.275830 0.051710 -0.589816
O22   O     O_R   0.230030 0.678320 0.960120 -0.595433
O23   O     O_R   0.821630 0.269940 0.143350 -0.628489
O24   O     O_R   0.769970 0.678320 0.039880 -0.596938
O25   O     O_R   0.730030 0.178320 0.960120 -0.596947
O26   O     O_R   0.269970 0.178320 0.039880 -0.597139
O27   O     O_R   0.178350 0.730040 0.856700 -0.620377
O28   O     O_R   0.821650 0.730040 0.143300 -0.619523
O29   O     O_R   0.678350 0.230040 0.856700 -0.618982
O30   O     O_R   0.321650 0.230040 0.143300 -0.619160
O31   O     O_R   0.209770 0.724150 0.051760 -0.606734
O32   O     O_R   0.790230 0.724150 0.948240 -0.604805
O33   O     O_R   0.709770 0.224150 0.051760 -0.605866
O34   O     O_R   0.178370 0.269940 0.856650 -0.628613
O35   O     O_R   0.290230 0.224150 0.948240 -0.605669
O36   O     O_R   0.158090 0.775870 0.948330 -0.624864
O37   O     O_R   0.841910 0.775870 0.051670 -0.625359
O38   O     O_R   0.658090 0.275870 0.948330 -0.624956
O39   O     O_R   0.341910 0.275870 0.051670 -0.624992
O40   O     O_R   0.991500 0.545800 0.408400 -0.622897
O41   O     O_R   0.008500 0.545800 0.591600 -0.623543
O42   O     O_R   0.491500 0.045800 0.408400 -0.626930
O43   O     O_R   0.508500 0.045800 0.591600 -0.623723
O44   O     O_R   0.916920 0.545810 0.408440 -0.635126
O45   O     O_R   0.083080 0.545810 0.591560 -0.634606
O46   O     O_R   0.416920 0.045810 0.408440 -0.620181
O47   O     O_R   0.583080 0.045810 0.591560 -0.635488
O48   O     O_R   0.491480 0.954180 0.408380 -0.608810
Zn1   Zn    Zn3+2 0.284500 0.715460 0.069080 1.022798
Zn2   Zn    Zn3+2 0.450210 0.999990 0.500010 0.981213
Zn3   Zn    Zn3+2 0.049790 0.499990 0.499990 0.976974
Zn4   Zn    Zn3+2 0.950210 0.499990 0.500010 0.974273
Zn5   Zn    Zn3+2 0.715500 0.715460 0.930920 1.012919
Zn6   Zn    Zn3+2 0.784500 0.215460 0.069080 1.004247
Zn7   Zn    Zn3+2 0.215500 0.215460 0.930920 1.002070
Zn8   Zn    Zn3+2 0.215490 0.784530 0.930970 1.020062
Zn9   Zn    Zn3+2 0.784510 0.784530 0.069030 1.029201
Zn10  Zn    Zn3+2 0.715490 0.284530 0.930970 1.031381
Zn11  Zn    Zn3+2 0.284510 0.284530 0.069030 1.031441
Zn12  Zn    Zn3+2 0.549790 0.999990 0.499990 0.972797

loop_
_geom_bond_atom_site_label_1
_geom_bond_atom_site_label_2
_ccdc_geom_bond_type
C21   C26   A    
C83   I5    S    
C87   C91   A    
C142  C146  A    
O4    Zn4   S    
C128  H56   S    
C90   C95   A    
O15   Zn5   S    
O46   Zn2   S    
C161  O30   A    
C31   C36   A    
C95   C99   A    
C141  C154  A    
C74   C114  A    
C153  H5    S    
C89   C94   A    
C162  H9    S    
C137  C141  A    
C91   C96   A    
C52   C122  S    
O2    Zn2   S    
O14   Zn1   S    
C70   C74   A    
C86   I8    S    
C54   O3    A    
C49   O45   A    
C47   C50   S    
C77   C147  A    
C141  C145  A    
O47   Zn12  S    
C130  C134  A    
O29   Zn10  S    
C25   C29   A    
C27   C31   A    
C36   H32   S    
C28   C32   A    
O8    Zn3   S    
C86   C90   A    
C92   O23   A    
C30   C34   A    
C132  C137  A    
O48   Zn12  S    
C17   C21   A    
C21   C166  A    
C50   O46   A    
C19   C23   A    
C52   O5    A    
C17   C43   A    
C51   O43   A    
C18   C44   A    
C55   C126  S    
C16   C20   A    
C163  H10   S    
C103  O13   A    
C52   O48   A    
C164  H11   S    
C129  C133  A    
C128  C150  A    
O17   Zn7   S    
C135  H64   S    
C57   C147  A    
O18   Zn8   S    
C88   H54   S    
C36   C44   A    
C53   O6    A    
C37   C45   A    
C2    C71   A    
C7    I4    S    
C60   I11   S    
C138  H3    S    
O42   Zn12  S    
C84   C88   A    
C113  H44   S    
C144  C145  A    
C112  O21   A    
C13   C72   A    
C119  C123  A    
C24   H39   S    
C59   C63   A    
C33   C38   A    
C106  C115  A    
C60   C64   A    
C151  C165  A    
C127  C131  A    
C20   C47   A    
C61   C65   A    
C35   H40   S    
C115  H46   S    
C82   C104  A    
C13   H38   S    
C109  O14   A    
C44   C48   S    
C1    C105  S    
O30   Zn11  S    
C29   C33   A    
C117  H48   S    
C166  H14   S    
C42   O35   A    
C98   C124  A    
O32   Zn5   S    
C87   H53   S    
C105  C113  A    
C78   H49   S    
C79   C84   A    
C1    O1    A    
C27   C159  S    
C65   C70   A    
C59   C136  A    
C28   C160  S    
C67   C72   A    
C118  C122  A    
C35   C125  A    
O21   Zn11  S    
C139  C143  A    
C10   H20   S    
O6    Zn12  S    
C145  C150  A    
C14   H24   S    
C30   I12   S    
C61   C110  S    
C3    H17   S    
C99   C126  A    
C143  C148  A    
C6    C168  A    
C62   C66   A    
O25   Zn6   S    
C120  H23   S    
C134  C139  A    
O27   Zn8   S    
C127  H45   S    
C118  H1    S    
C8    H18   S    
C64   C69   A    
C129  H62   S    
C116  C120  A    
C80   C102  A    
C5    C9    A    
O10   Zn9   S    
C93   H59   S    
C39   O36   A    
C8    C12   A    
C137  H2    S    
C102  C107  A    
C32   C37   A    
C110  O15   A    
C40   C131  S    
C26   C30   A    
C115  C119  A    
C5    I2    S    
C91   H58   S    
C69   H30   S    
C57   C68   A    
C93   C97   A    
C92   O11   A    
C101  C106  A    
C73   C77   A    
C18   C22   A    
C108  C117  A    
C34   C43   A    
C148  C152  A    
C89   H55   S    
C19   C45   A    
O31   Zn1   S    
C97   C123  A    
C127  C149  A    
C62   C109  S    
C96   C100  A    
C53   O2    A    
C111  O16   A    
C16   H26   S    
C6    C10   A    
C146  C151  A    
C55   O4    A    
C79   C101  A    
O7    Zn4   S    
O33   Zn6   S    
C58   C62   A    
C83   C87   A    
O26   Zn7   S    
C80   H51   S    
O37   Zn9   S    
C15   C19   A    
C81   O10   A    
C59   I10   S    
C159  O28   A    
C129  C151  A    
C3    C7    A    
C24   C73   A    
C20   C25   A    
C94   C98   A    
C40   O37   A    
O43   Zn2   S    
C110  O19   A    
C81   C106  S    
C78   C83   A    
C12   C17   A    
C69   C73   A    
C103  O34   A    
C1    O9    A    
C42   O39   A    
C94   H60   S    
C140  C153  A    
C140  C144  A    
C99   C104  A    
C133  C138  A    
C116  H47   S    
C146  C148  A    
O12   Zn5   S    
C135  C140  A    
C150  C162  A    
C3    C25   A    
C138  C142  A    
C85   C89   A    
C64   C111  S    
C82   C86   A    
O3    Zn3   S    
C70   C158  A    
C9    C14   A    
C80   C85   A    
C48   O44   A    
C11   C16   A    
C75   C125  A    
C66   C71   A    
C2    C158  A    
C139  H4    S    
O34   Zn7   S    
O22   Zn1   S    
C22   C167  A    
C38   H35   S    
C78   C100  A    
O44   Zn4   S    
C119  H12   S    
C41   O38   A    
C104  C108  A    
C155  H7    S    
C159  O24   A    
C54   C124  S    
C57   H42   S    
C156  H8    S    
C81   O12   A    
C84   I6    S    
C160  O29   A    
C95   H61   S    
O39   Zn11  S    
C67   H29   S    
O24   Zn5   S    
C157  O27   A    
O20   Zn10  S    
O9    Zn8   S    
C46   H41   S    
C131  C135  A    
C96   C122  A    
C153  C162  A    
C98   C102  A    
C48   O40   A    
C156  C165  A    
C111  O20   A    
O40   Zn3   S    
C33   I15   S    
C161  O26   A    
C23   C168  A    
C15   H25   S    
C39   O31   A    
C82   H52   S    
C40   O32   A    
C37   H33   S    
C56   C61   A    
O23   Zn6   S    
C11   H21   S    
C35   C46   A    
C65   H27   S    
O1    Zn1   S    
C6    I3    S    
C158  H36   S    
C54   O7    A    
C14   C18   A    
C90   H57   S    
C49   O41   A    
C4    C8    A    
C76   C136  A    
C7    C11   A    
C100  C105  A    
O28   Zn9   S    
C42   C133  S    
O19   Zn9   S    
C121  H34   S    
C41   O33   A    
C10   C15   A    
C39   C132  S    
C45   C51   S    
C55   O8    A    
C26   C157  S    
C63   C112  S    
C117  C121  A    
C4    I16   S    
C34   H31   S    
C167  H15   S    
C168  H16   S    
C103  C108  S    
C149  C163  A    
C60   C147  A    
C142  C155  A    
C50   O42   A    
C51   O47   A    
O38   Zn10  S    
C128  C132  A    
C41   C134  S    
O11   Zn10  S    
C107  C116  A    
C63   C67   A    
C74   C75   A    
C46   C114  A    
C29   C161  S    
C154  C163  A    
C68   C136  A    
C76   C77   A    
C53   C123  S    
C43   C49   S    
C79   H50   S    
C13   C24   A    
C32   I14   S    
C85   I7    S    
O45   Zn3   S    
C58   I9    S    
C144  C149  A    
C92   C107  S    
C72   C76   A    
C2    H37   S    
O5    Zn2   S    
C38   C47   A    
C152  C164  A    
C56   I1    S    
C23   C28   A    
C130  C152  A    
O35   Zn7   S    
C88   C93   A    
O36   Zn8   S    
O41   Zn4   S    
O13   Zn11  S    
C109  O18   A    
C9    H19   S    
C66   H28   S    
C155  C164  A    
C12   H22   S    
C22   C27   A    
C165  H13   S    
C121  C126  A    
C71   C75   A    
C143  C156  A    
C130  H63   S    
C157  O22   A    
C112  O17   A    
C4    C166  A    
C5    C167  A    
O16   Zn6   S    
C113  C118  A    
C154  H6    S    
C58   C125  A    
C56   C114  A    
C31   I13   S    
C160  O25   A    
C68   H43   S    
C97   C101  A    
C120  C124  A    
