data_mof_unit_64325.cif
_audit_creation_date              2012-12-10T20:11:11-0500
_audit_creation_method            fapswitch 2.2
_symmetry_space_group_name_H-M    P1
_symmetry_Int_Tables_number       1
_space_group_crystal_system       triclinic
_cell_length_a                    19.315717
_cell_length_b                    18.404322
_cell_length_c                    14.168343
_cell_angle_alpha                 90.001261
_cell_angle_beta                  90.103146
_cell_angle_gamma                 90.002506
_cell_volume                      5036.73399033

loop_
_atom_site_label
_atom_site_type_symbol
_atom_type_description
_atom_site_fract_x
_atom_site_fract_y
_atom_site_fract_z
_atom_type_partial_charge
C1    C     C_R   0.365525 0.499998 0.499842 0.865956
C2    C     C_R   0.634475 0.500002 0.500158 0.865956
C3    C     C_R   0.963578 0.500410 0.587071 0.149053
C4    C     C_R   0.036423 0.499593 0.412931 0.149052
C5    C     C_R   0.036404 0.500388 0.587506 0.165039
C6    C     C_R   0.963597 0.499616 0.412497 0.165043
C7    C     C_R   0.071794 0.499983 0.500260 -0.038421
C8    C     C_R   0.928207 0.500020 0.499742 -0.038425
C9    C     C_R   0.548830 0.726076 0.550467 -0.026808
C10   C     C_R   0.451170 0.273924 0.449533 -0.026809
C11   C     C_R   0.451170 0.726070 0.449532 -0.026751
C12   C     C_R   0.548830 0.273930 0.550467 -0.026752
C13   C     C_R   0.550053 0.802398 0.551592 0.067820
C14   C     C_R   0.449946 0.197602 0.448407 0.067820
C15   C     C_R   0.449946 0.802391 0.448407 0.067820
C16   C     C_R   0.550053 0.197609 0.551593 0.067820
C17   C     C_R   0.500000 0.841774 0.500000 -0.021475
C18   C     C_R   0.500000 0.158226 0.500000 -0.021475
C19   C     C_R   0.450068 0.961833 0.551403 -0.114108
C20   C     C_R   0.549932 0.038167 0.448597 -0.114108
C21   C     C_R   0.549932 0.961836 0.448597 -0.114122
C22   C     C_R   0.450068 0.038164 0.551403 -0.114123
C23   C     C_R   0.500000 0.077091 0.500000 0.159236
C24   C     C_R   0.500000 0.922909 0.500000 0.159236
C25   C     C_R   0.499969 0.499999 0.328858 0.902708
C26   C     C_R   0.500031 0.500001 0.671142 0.902708
C27   C     C_1   0.499962 0.499998 0.227495 -0.195860
C28   C     C_1   0.500038 0.500002 0.772505 -0.195860
C29   C     C_1   0.499968 0.499998 0.142343 0.005437
C30   C     C_1   0.500032 0.500002 0.857657 0.005437
C31   C     C_1   0.499989 0.499999 0.042575 0.022683
C32   C     C_1   0.500011 0.500000 0.957425 0.022683
C33   C     C_R   0.745870 0.433878 0.500828 -0.190575
C34   C     C_R   0.254130 0.566122 0.499159 -0.190573
C35   C     C_R   0.254133 0.433858 0.499887 -0.190573
C36   C     C_R   0.745866 0.566142 0.500129 -0.190572
C37   C     C_R   0.817588 0.433963 0.500780 -0.165467
C38   C     C_R   0.182413 0.566038 0.499210 -0.165466
C39   C     C_R   0.182416 0.433933 0.499951 -0.165476
C40   C     C_R   0.817584 0.566068 0.500066 -0.165476
C41   C     C_R   0.853068 0.500018 0.500459 0.155319
C42   C     C_R   0.146932 0.499983 0.499544 0.155318
C43   C     C_R   0.709675 0.500007 0.500405 -0.044030
C44   C     C_R   0.290326 0.499993 0.499596 -0.044029
H1    H     H_    0.718919 0.382266 0.501103 0.166870
H2    H     H_    0.281083 0.617735 0.498872 0.166870
H3    H     H_    0.281088 0.382250 0.500184 0.166899
H4    H     H_    0.718912 0.617750 0.499844 0.166899
H5    H     H_    0.845523 0.382913 0.500926 0.149730
H6    H     H_    0.154478 0.617088 0.499053 0.149729
H7    H     H_    0.154483 0.382880 0.500371 0.149678
H8    H     H_    0.845516 0.617121 0.499658 0.149676
H9    H     H_    0.586944 0.695794 0.590327 0.154575
H10   H     H_    0.413056 0.304206 0.409672 0.154577
H11   H     H_    0.413056 0.695783 0.409672 0.154485
H12   H     H_    0.586944 0.304217 0.590328 0.154487
H13   H     H_    0.411142 0.933008 0.591609 0.153483
H14   H     H_    0.588858 0.066992 0.408391 0.153483
H15   H     H_    0.588858 0.933013 0.408391 0.153475
H16   H     H_    0.411142 0.066987 0.591609 0.153475
N1    N     N_R   0.500000 0.689440 0.500000 -0.112865
N2    N     N_R   0.500000 0.310560 0.500000 -0.112866
O1    O     O_R   0.398180 0.560840 0.499980 -0.620966
O2    O     O_R   0.601820 0.439160 0.500020 -0.620965
O3    O     O_R   0.601820 0.560840 0.500020 -0.620988
O4    O     O_R   0.398180 0.439160 0.499980 -0.620989
O5    O     O_R   0.500000 0.560830 0.373710 -0.593618
O6    O     O_R   0.500000 0.439170 0.626290 -0.593619
O7    O     O_R   0.500000 0.560830 0.626290 -0.593564
O8    O     O_R   0.500000 0.439170 0.373710 -0.593564
Zn1   Zn    Zn3+2 0.500000 0.581210 0.500000 0.953919
Zn2   Zn    Zn3+2 0.500000 0.418790 0.500000 0.953919
C45   C     C_3   0.921923 0.500839 0.678208 -0.856598
H17   H     H_    0.953315 0.501126 0.743491 0.246032
H18   H     H_    0.888616 0.549964 0.680440 0.243320
H19   H     H_    0.888576 0.451765 0.681187 0.243311
C46   C     C_3   0.078078 0.499166 0.321795 -0.856614
H20   H     H_    0.046687 0.498884 0.256513 0.246036
H21   H     H_    0.111426 0.548239 0.318820 0.243311
H22   H     H_    0.111383 0.450041 0.319561 0.243326
C47   C     C_3   0.075655 0.500788 0.680629 -0.875510
H23   H     H_    0.062062 0.451611 0.722032 0.244812
H24   H     H_    0.132689 0.500709 0.673314 0.248825
H25   H     H_    0.062127 0.550362 0.721267 0.244850
C48   C     C_3   0.924347 0.499218 0.319373 -0.875501
H26   H     H_    0.937939 0.548397 0.277972 0.244810
H27   H     H_    0.937876 0.449646 0.278730 0.244847
H28   H     H_    0.867312 0.499296 0.326687 0.248822
I1    I     I_    0.627080 0.854464 0.634297 -0.333747
I2    I     I_    0.372920 0.145536 0.365703 -0.333745
I3    I     I_    0.372920 0.854447 0.365703 -0.333810
I4    I     I_    0.627080 0.145553 0.634297 -0.333809

loop_
_geom_bond_atom_site_label_1
_geom_bond_atom_site_label_2
_ccdc_geom_bond_type
C39   H7    S    
C27   C29   T    
C33   H1    S    
C45   H17   S    
C14   C18   A    
C25   O5    A    
C2    O3    A    
C35   H3    S    
C47   H23   S    
C48   H26   S    
C19   H13   S    
C6    C48   S    
C9    N1    A    
C21   H15   S    
C22   H16   S    
C48   H28   S    
C12   N2    A    
C7    C42   S    
O7    Zn1   S    
C9    C13   A    
C14   I2    S    
C5    C47   S    
C11   C15   A    
O4    Zn2   S    
C12   C16   A    
C34   H2    S    
C46   H20   S    
N1    Zn1   S    
C48   H27   S    
C45   H18   S    
C10   N2    A    
C4    C7    A    
C3    C45   S    
C1    O1    A    
C47   H24   S    
C2    O2    A    
C39   C42   A    
C46   H21   S    
C17   C24   S    
C18   C23   S    
C33   C43   A    
C36   C40   A    
C19   C22   A    
C34   C44   A    
C8    C41   S    
C4    C6    A    
C3    C8    A    
C10   C14   A    
C5    C7    A    
C6    C8    A    
C11   N1    A    
C40   H8    S    
C33   C37   A    
C35   C39   A    
C37   H5    S    
C1    C44   S    
C31   C32   T    
C20   C23   A    
C2    C43   S    
O6    Zn2   S    
C1    O4    A    
N2    Zn2   S    
C35   C44   A    
C12   H12   S    
C40   C41   A    
O1    Zn1   S    
C16   I4    S    
C45   H19   S    
C9    H9    S    
C20   H14   S    
C47   H25   S    
C11   H11   S    
C46   H22   S    
C15   C17   A    
C13   I1    S    
C34   C38   A    
C3    C5    A    
C38   C42   A    
C38   H6    S    
C25   C27   S    
C26   C28   S    
C13   C17   A    
C26   O6    A    
C28   C30   T    
C19   C24   A    
C4    C46   S    
C29   C31   S    
O3    Zn1   S    
C30   C32   S    
C36   H4    S    
O5    Zn1   S    
O2    Zn2   S    
C37   C41   A    
C10   H10   S    
C15   I3    S    
C20   C21   A    
C16   C18   A    
C21   C24   A    
C26   O7    A    
C22   C23   A    
C36   C43   A    
O8    Zn2   S    
C25   O8    A    
