data_mof_unit_18015.cif
_audit_creation_date              2012-12-10T20:21:44-0500
_audit_creation_method            fapswitch 2.2
_symmetry_space_group_name_H-M    P1
_symmetry_Int_Tables_number       1
_space_group_crystal_system       triclinic
_cell_length_a                    19.335076
_cell_length_b                    18.484116
_cell_length_c                    8.905636
_cell_angle_alpha                 90.003693
_cell_angle_beta                  89.931412
_cell_angle_gamma                 90.002779
_cell_volume                      3182.79887938

loop_
_atom_site_label
_atom_site_type_symbol
_atom_type_description
_atom_site_fract_x
_atom_site_fract_y
_atom_site_fract_z
_atom_type_partial_charge
C1    C     C_R   0.365672 0.499998 0.499899 0.856567
C2    C     C_R   0.507656 0.197348 0.635431 0.389505
C3    C     C_R   0.499998 0.841585 0.500001 -0.115167
C4    C     C_R   0.500002 0.158415 0.499999 -0.115167
C5    C     C_R   0.445551 0.961981 0.433633 -0.145079
C6    C     C_R   0.554449 0.038019 0.566367 -0.145078
C7    C     C_R   0.554448 0.961990 0.566369 -0.145133
C8    C     C_R   0.445552 0.038010 0.433631 -0.145133
C9    C     C_R   0.500001 0.077108 0.499999 0.223197
C10   C     C_R   0.499999 0.922892 0.500001 0.223197
C11   C     C_R   0.500001 0.499999 0.218468 0.948782
C12   C     C_R   0.634328 0.500002 0.500105 0.856569
C13   C     C_R   0.499999 0.500001 0.781532 0.948781
C14   C     C_1   0.500000 0.499998 0.065348 -0.219234
C15   C     C_1   0.500000 0.500002 0.934652 -0.219232
C16   C     C_R   0.745604 0.434251 0.502031 -0.193050
C17   C     C_R   0.254398 0.565752 0.498030 -0.193047
C18   C     C_R   0.254396 0.434229 0.501307 -0.193042
C19   C     C_R   0.745601 0.565773 0.498750 -0.193042
C20   C     C_R   0.817235 0.434301 0.502183 -0.181460
C21   C     C_R   0.182767 0.565705 0.497922 -0.181466
C22   C     C_R   0.182765 0.434267 0.501351 -0.181607
C23   C     C_R   0.505749 0.726113 0.632025 -0.144388
C24   C     C_R   0.817232 0.565737 0.498750 -0.181612
C25   C     C_R   0.853151 0.500023 0.500457 0.119571
C26   C     C_R   0.146848 0.499984 0.499665 0.119572
C27   C     C_R   0.709456 0.500008 0.500295 -0.032340
C28   C     C_R   0.290544 0.499993 0.499741 -0.032339
C29   C     C_R   0.964188 0.543755 0.398237 -0.186914
C30   C     C_R   0.035812 0.456256 0.601901 -0.186915
C31   C     C_R   0.035820 0.543733 0.398012 -0.187318
C32   C     C_R   0.964179 0.456278 0.602125 -0.187320
C33   C     C_R   0.071743 0.499983 0.499842 0.107482
C34   C     C_R   0.494251 0.273887 0.367975 -0.144387
C35   C     C_R   0.928256 0.500028 0.500294 0.107482
C36   C     C_3   0.567476 0.818713 0.856252 -0.297838
C37   C     C_3   0.432524 0.181287 0.143748 -0.297837
C38   C     C_3   0.432514 0.818685 0.143761 -0.297897
C39   C     C_3   0.567486 0.181315 0.856239 -0.297896
C40   C     C_R   0.494250 0.726105 0.367976 -0.144809
C41   C     C_R   0.505750 0.273895 0.632024 -0.144810
C42   C     C_R   0.507653 0.802661 0.635433 0.389475
C43   C     C_R   0.492347 0.197339 0.364567 0.389475
C44   C     C_R   0.492344 0.802652 0.364569 0.389504
H1    H     H_    0.718690 0.382859 0.503001 0.157085
H2    H     H_    0.063185 0.422909 0.682301 0.133440
H3    H     H_    0.063199 0.577069 0.317454 0.133200
H4    H     H_    0.936800 0.422941 0.682681 0.133199
H5    H     H_    0.508278 0.695890 0.735521 0.161328
H6    H     H_    0.491722 0.304110 0.264479 0.161328
H7    H     H_    0.491720 0.695876 0.264479 0.161339
H8    H     H_    0.508280 0.304124 0.735521 0.161339
H9    H     H_    0.402459 0.933605 0.383170 0.141732
H10   H     H_    0.597541 0.066395 0.616830 0.141732
H11   H     H_    0.597539 0.933620 0.616832 0.141740
H12   H     H_    0.281314 0.617144 0.497047 0.157087
H13   H     H_    0.402461 0.066380 0.383168 0.141740
H14   H     H_    0.615295 0.813384 0.787101 0.135280
H15   H     H_    0.556487 0.767562 0.917132 0.167559
H16   H     H_    0.577580 0.860867 0.942133 0.227182
H17   H     H_    0.443512 0.232438 0.082868 0.167559
H18   H     H_    0.384705 0.186616 0.212899 0.135280
H19   H     H_    0.422420 0.139133 0.057867 0.227181
H20   H     H_    0.384697 0.813355 0.212919 0.135115
H21   H     H_    0.443500 0.767532 0.082878 0.167553
H22   H     H_    0.422407 0.860833 0.057881 0.227220
H23   H     H_    0.281311 0.382840 0.502302 0.157156
H24   H     H_    0.556500 0.232468 0.917122 0.167553
H25   H     H_    0.615303 0.186645 0.787081 0.135115
H26   H     H_    0.577593 0.139167 0.942118 0.227220
H27   H     H_    0.718685 0.617161 0.497738 0.157159
H28   H     H_    0.844629 0.383170 0.502024 0.130162
H29   H     H_    0.155375 0.616838 0.498096 0.130163
H30   H     H_    0.155373 0.383132 0.501185 0.130139
H31   H     H_    0.844622 0.616873 0.498927 0.130140
H32   H     H_    0.936815 0.577101 0.317835 0.133441
N1    N     N_R   0.500000 0.689440 0.500000 -0.127543
N2    N     N_R   0.500000 0.310560 0.500000 -0.127543
O1    O     O_R   0.398180 0.560840 0.499960 -0.616518
O2    O     O_3   0.490192 0.159613 0.229837 -0.602719
O3    O     O_3   0.490185 0.840369 0.229840 -0.602723
O4    O     O_3   0.509815 0.159631 0.770160 -0.602724
O5    O     O_R   0.601820 0.439160 0.500040 -0.616516
O6    O     O_R   0.601820 0.560840 0.500040 -0.616553
O7    O     O_R   0.398180 0.439160 0.499960 -0.616552
O8    O     O_R   0.500000 0.560800 0.285330 -0.624949
O9    O     O_R   0.500000 0.439200 0.714670 -0.624950
O10   O     O_R   0.500000 0.560800 0.714670 -0.624786
O11   O     O_R   0.500000 0.439200 0.285330 -0.624785
O12   O     O_3   0.509808 0.840387 0.770163 -0.602719
Zn1   Zn    Zn3+2 0.500000 0.581210 0.500000 0.939253
Zn2   Zn    Zn3+2 0.500000 0.418790 0.500000 0.939254

loop_
_geom_bond_atom_site_label_1
_geom_bond_atom_site_label_2
_ccdc_geom_bond_type
C7    C10   A    
C21   C26   A    
C3    C42   A    
C39   H24   S    
C19   H27   S    
C7    H11   S    
C36   H15   S    
C6    C9    A    
C37   H18   S    
C29   H32   S    
O5    Zn2   S    
C23   C42   A    
C5    H9    S    
C36   H14   S    
O8    Zn1   S    
C11   C14   S    
C23   H5    S    
C20   C25   A    
C11   O8    A    
C21   H29   S    
C12   O6    A    
C38   H22   S    
C8    C9    A    
C1    C28   S    
O10   Zn1   S    
O6    Zn1   S    
C19   C27   A    
C41   H8    S    
O1    Zn1   S    
C16   C27   A    
C31   H3    S    
O9    Zn2   S    
C32   H4    S    
C6    H10   S    
C37   H19   S    
O7    Zn2   S    
C38   H20   S    
C1    O7    A    
C37   O2    S    
C3    C44   A    
C34   H6    S    
C12   C27   S    
C32   C35   A    
C18   C28   A    
C24   C25   A    
C44   O3    S    
C41   N2    A    
N2    Zn2   S    
C43   O2    S    
C17   C21   A    
C12   O5    A    
C42   O12   S    
C2    C4    A    
C8    H13   S    
C11   O11   A    
C26   C33   S    
C14   C15   T    
C38   H21   S    
C16   C20   A    
C13   O9    A    
C31   C33   A    
C39   H25   S    
C23   N1    A    
O11   Zn2   S    
C17   H12   S    
C25   C35   S    
C13   C15   S    
C38   O3    S    
C1    O1    A    
C2    O4    S    
C22   H30   S    
C36   O12   S    
N1    Zn1   S    
C30   C33   A    
C18   C22   A    
C17   C28   A    
C30   H2    S    
C34   C43   A    
C39   O4    S    
C36   H16   S    
C16   H1    S    
C5    C8    A    
C37   H17   S    
C24   H31   S    
C6    C7    A    
C4    C43   A    
C40   H7    S    
C29   C35   A    
C19   C24   A    
C18   H23   S    
C5    C10   A    
C29   C31   A    
C3    C10   S    
C34   N2    A    
C30   C32   A    
C13   O10   A    
C39   H26   S    
C40   C44   A    
C22   C26   A    
C40   N1    A    
C20   H28   S    
C2    C41   A    
C4    C9    S    
