data_mof_unit_47211.cif
_audit_creation_date              2012-12-10T17:50:49-0500
_audit_creation_method            fapswitch 2.2
_symmetry_space_group_name_H-M    P1
_symmetry_Int_Tables_number       1
_space_group_crystal_system       triclinic
_cell_length_a                    14.700408
_cell_length_b                    14.635752
_cell_length_c                    15.842889
_cell_angle_alpha                 77.241288
_cell_angle_beta                  102.457243
_cell_angle_gamma                 114.676499
_cell_volume                      2991.38800273

loop_
_atom_site_label
_atom_site_type_symbol
_atom_type_description
_atom_site_fract_x
_atom_site_fract_y
_atom_site_fract_z
_atom_type_partial_charge
C1    C     C_R   0.880504 0.312209 0.514190 0.798481
C2    C     C_R   0.360460 0.921272 0.491865 0.081543
C3    C     C_R   0.677697 0.002772 0.514337 0.079167
C4    C     C_R   0.322293 0.997290 0.484998 0.081300
C5    C     C_R   0.532939 0.052580 0.495266 -0.100801
C6    C     C_R   0.467053 0.947447 0.504163 -0.101752
C7    C     C_R   0.510809 0.872827 0.526842 0.419482
C8    C     C_R   0.489207 0.127213 0.472543 0.421204
C9    C     C_R   0.612885 0.901058 0.523335 -0.253264
C10   C     C_R   0.387111 0.099001 0.475941 -0.259312
C11   C     C_R   0.724815 0.681007 0.365040 0.283333
C12   C     C_R   0.119493 0.687791 0.485740 0.798608
C13   C     C_R   0.276286 0.320436 0.636533 0.280688
C14   C     C_R   0.802011 0.644630 0.383965 -0.026113
C15   C     C_R   0.198531 0.356091 0.616817 -0.030773
C16   C     C_R   0.999469 0.500151 0.659995 0.830945
C17   C     C_R   0.000526 0.499839 0.340006 0.830315
C18   C     C_R   0.712955 0.507511 0.485258 0.011372
C19   C     C_R   0.286904 0.492326 0.514537 0.012523
C20   C     C_R   0.629347 0.537026 0.467563 -0.070964
C21   C     C_R   0.370699 0.463081 0.532482 -0.071322
C22   C     C_R   0.637343 0.626969 0.407289 0.014273
C23   C     C_R   0.781777 0.028903 0.518146 -0.118273
C24   C     C_R   0.363102 0.373648 0.593334 0.015306
C25   C     C_R   0.539693 0.481613 0.508790 0.105214
C26   C     C_R   0.460226 0.518345 0.491068 0.104974
C27   C     C_R   0.473234 0.609610 0.433041 -0.209955
C28   C     C_R   0.526574 0.390229 0.566676 -0.210134
C29   C     C_R   0.558711 0.661584 0.391699 -0.126996
C30   C     C_R   0.441338 0.338554 0.608373 -0.126718
C31   C     C_3   0.990535 0.407698 0.044547 -0.148944
C32   C     C_3   0.009448 0.592209 0.955467 -0.144646
C33   C     C_3   0.912248 0.429534 0.969172 -0.151963
C34   C     C_R   0.218210 0.971193 0.481144 -0.122729
C35   C     C_3   0.087735 0.570374 0.030841 -0.150028
C36   C     C_1   0.998459 0.500442 0.749538 -0.168251
C37   C     C_1   0.001526 0.499517 0.250466 -0.163624
C38   C     C_3   0.077361 0.478399 0.990932 -0.153351
C39   C     C_3   0.922622 0.521508 0.009081 -0.148018
C40   C     C_3   0.999076 0.500233 0.917106 0.172837
C41   C     C_3   0.000906 0.499674 0.082907 0.172724
C42   C     C_1   0.998400 0.500448 0.825173 -0.055081
C43   C     C_1   0.001582 0.499482 0.174837 -0.051954
C44   C     C_R   0.813198 0.204546 0.518063 -0.091049
C45   C     C_R   0.849048 0.129840 0.517830 -0.164562
C46   C     C_R   0.186790 0.795469 0.481648 -0.086348
C47   C     C_3   0.456074 0.760723 0.647031 0.057246
C48   C     C_3   0.396214 0.649973 0.680388 -0.746273
C49   C     C_3   0.544070 0.239433 0.352444 0.052513
C50   C     C_3   0.604129 0.350171 0.319218 -0.739016
C51   C     C_R   0.150935 0.870241 0.481635 -0.177773
C52   C     C_R   0.710090 0.177528 0.517563 -0.186063
C53   C     C_R   0.289883 0.822456 0.482096 -0.186415
C54   C     C_R   0.639528 0.078756 0.507604 0.080404
Cu1   Cu    Cu3+1 0.081740 0.475690 0.522610 0.943334
Cu2   Cu    Cu3+1 0.918260 0.524310 0.477390 0.944053
H1    H     H_    0.840201 0.371777 0.942463 0.148214
H2    H     H_    0.017153 0.667917 0.917516 0.153081
H3    H     H_    0.859119 0.539192 0.017939 0.150531
H4    H     H_    0.140862 0.460714 0.982071 0.145012
H5    H     H_    0.642782 0.842297 0.535080 0.173049
H6    H     H_    0.357222 0.157775 0.464126 0.172210
H7    H     H_    0.312632 0.765639 0.470923 0.202179
H8    H     H_    0.687302 0.234267 0.528853 0.202481
H9    H     H_    0.071198 0.850986 0.480883 0.157056
H10   H     H_    0.928781 0.149134 0.518531 0.169080
H11   H     H_    0.811072 0.971160 0.521733 0.156060
H12   H     H_    0.159782 0.628130 0.057549 0.147825
H13   H     H_    0.188916 0.028973 0.477405 0.154698
H14   H     H_    0.562027 0.730286 0.347552 0.217636
H15   H     H_    0.437734 0.269537 0.652147 0.217668
H16   H     H_    0.905225 0.872752 0.301718 0.339653
H17   H     H_    0.164081 0.213520 0.796641 0.345114
H18   H     H_    0.419393 0.807571 0.661324 0.160736
H19   H     H_    0.534381 0.782970 0.683025 0.155600
H20   H     H_    0.431344 0.601086 0.667876 0.250938
H21   H     H_    0.395567 0.640286 0.751796 0.204743
H22   H     H_    0.317087 0.626004 0.646948 0.265360
H23   H     H_    0.283690 0.555423 0.465944 0.144905
H24   H     H_    0.465787 0.217369 0.316411 0.154409
H25   H     H_    0.580626 0.192499 0.338097 0.160726
H26   H     H_    0.683236 0.373954 0.352699 0.265586
H27   H     H_    0.604811 0.359950 0.247807 0.205487
H28   H     H_    0.569136 0.399146 0.331796 0.250886
H29   H     H_    0.715877 0.444010 0.533452 0.145432
H30   H     H_    0.130899 0.315956 0.647667 0.171388
H31   H     H_    0.869728 0.684834 0.353251 0.170765
H32   H     H_    0.418665 0.644124 0.418117 0.152872
H33   H     H_    0.580919 0.355462 0.581305 0.153262
H34   H     H_    0.982830 0.331990 0.082499 0.150444
N1    N     N_R   0.795440 0.560790 0.443380 -0.211196
N2    N     N_R   0.204560 0.439210 0.556620 -0.210392
O1    O     O_R   0.977900 0.338120 0.529810 -0.581130
O2    O     O_2   0.738162 0.873684 0.335072 -0.320881
O3    O     O_3   0.854515 0.840767 0.253390 -0.508462
O4    O     O_2   0.258367 0.126772 0.668991 -0.270305
O5    O     O_2   0.347138 0.229346 0.786669 -0.296637
O6    O     O_3   0.151366 0.166568 0.755027 -0.512380
O7    O     O_3   0.457012 0.771782 0.556363 -0.608696
O8    O     O_3   0.543077 0.228268 0.443112 -0.608625
O9    O     O_R   0.022100 0.661880 0.470190 -0.586491
O10   O     O_R   0.839850 0.379180 0.491620 -0.591771
O11   O     O_R   0.160150 0.620820 0.508380 -0.591123
O12   O     O_R   0.069010 0.479460 0.640020 -0.577669
O13   O     O_R   0.930990 0.520540 0.359980 -0.571501
O14   O     O_R   0.930960 0.520530 0.601820 -0.573074
O15   O     O_R   0.069040 0.479470 0.398180 -0.574719
O16   O     O_2   0.659599 0.774518 0.214177 -0.247822
S1    S     S_3+6 0.742476 0.795117 0.290568 -0.010128
S2    S     S_3+6 0.260298 0.208405 0.713450 -0.011461

loop_
_geom_bond_atom_site_label_1
_geom_bond_atom_site_label_2
_ccdc_geom_bond_type
Cu1   Cu2   S    
O6    S2    S    
C22   C29   A    
C27   C29   A    
C48   H20   S    
C36   C42   T    
C32   H2    S    
Cu1   O1    S    
C30   H15   S    
C50   H28   S    
C39   C41   S    
C2    C6    A    
C25   C28   A    
C34   C51   A    
C33   C39   S    
C7    O7    S    
C23   C45   A    
C18   N1    A    
C19   C21   A    
Cu2   O9    S    
C17   O15   A    
C5    C6    A    
C3    C54   A    
C11   S1    S    
C20   C25   A    
C49   H25   S    
Cu1   O11   S    
C47   O7    S    
O16   S1    D    
C51   H9    S    
C32   C39   S    
C48   H22   S    
C19   N2    A    
C15   N2    A    
H16   O3    S    
C3    C23   A    
C16   O12   A    
Cu2   N1    S    
C31   C33   S    
C28   H33   S    
C16   O14   A    
C44   C52   A    
C40   C42   S    
C41   C43   S    
C10   H6    S    
C21   C26   A    
C52   C54   A    
C50   H27   S    
H17   O6    S    
Cu2   O13   S    
C4    C34   A    
C33   C40   S    
C18   H29   S    
C32   C35   S    
C5    C54   A    
C35   C38   S    
C12   O11   A    
C12   C46   S    
C52   H8    S    
C25   C26   A    
O4    S2    D    
C46   C51   A    
C13   C24   A    
Cu1   O15   S    
C48   H21   S    
C37   C43   T    
C2    C4    A    
Cu1   N2    S    
C3    C9    A    
C17   O13   A    
C1    C44   S    
C47   C48   S    
C34   H13   S    
C31   H34   S    
C39   H3    S    
C26   C27   A    
C17   C37   S    
C19   H23   S    
C13   S2    S    
Cu2   O14   S    
C15   H30   S    
C38   H4    S    
C1    O1    A    
C20   C22   A    
C13   C15   A    
O3    S1    S    
C9    H5    S    
C4    C10   A    
C44   C45   A    
C50   H26   S    
C29   H14   S    
C7    C9    A    
C33   H1    S    
C31   C41   S    
C47   H18   S    
C2    C53   A    
C14   H31   S    
C5    C8    A    
C31   C38   S    
C6    C7    A    
O2    S1    D    
C49   H24   S    
C28   C30   A    
C8    O8    S    
Cu2   O10   S    
C12   O9    A    
C16   C36   S    
C49   O8    S    
C38   C40   S    
O5    S2    D    
C53   H7    S    
C23   H11   S    
C35   H12   S    
Cu1   O12   S    
C46   C53   A    
C11   C14   A    
C18   C20   A    
C32   C40   S    
C27   H32   S    
C35   C41   S    
C24   C30   A    
C14   N1    A    
C47   H19   S    
C11   C22   A    
C8    C10   A    
C49   C50   S    
C21   C24   A    
C45   H10   S    
C1    O10   A    
