data_mof_unit_55879.cif
_audit_creation_date              2012-12-10T18:58:47-0500
_audit_creation_method            fapswitch 2.2
_symmetry_space_group_name_H-M    P1
_symmetry_Int_Tables_number       1
_space_group_crystal_system       triclinic
_cell_length_a                    12.992125
_cell_length_b                    10.822987
_cell_length_c                    9.560267
_cell_angle_alpha                 89.443722
_cell_angle_beta                  96.196008
_cell_angle_gamma                 91.444002
_cell_volume                      1335.99334242

loop_
_atom_site_label
_atom_site_type_symbol
_atom_type_description
_atom_site_fract_x
_atom_site_fract_y
_atom_site_fract_z
_atom_type_partial_charge
C1    C     C_R   0.499828 0.262520 0.500601 0.803863
C2    C     C_R   0.028351 0.505621 0.567404 0.175125
C3    C     C_R   0.971902 0.497945 0.432847 0.179873
C4    C     C_R   0.864421 0.494675 0.421065 -0.271777
C5    C     C_R   0.868812 0.506594 0.675297 -0.204266
C6    C     C_R   0.976435 0.509814 0.688049 -0.216984
C7    C     C_R   0.481125 0.062227 0.620882 0.087091
C8    C     C_R   0.504843 0.129558 0.502881 -0.080233
C9    C     C_R   0.536428 0.066688 0.387747 -0.215512
C10   C     C_R   0.534285 0.938152 0.386763 -0.224636
C11   C     C_R   0.501219 0.871043 0.500389 -0.098849
C12   C     C_R   0.300572 0.500499 0.473694 0.790709
C13   C     C_R   0.477924 0.934896 0.618932 0.047505
C14   C     C_3   0.384525 0.927464 0.698826 -0.043121
C15   C     C_3   0.388614 0.068535 0.700597 -0.475203
C16   C     C_R   0.575956 0.562986 0.083712 0.159925
C17   C     C_R   0.431218 0.428770 0.065087 -0.074130
C18   C     C_R   0.431172 0.428793 0.916321 -0.072104
C19   C     C_R   0.576553 0.562402 0.936538 0.148576
C20   C     C_3   0.603195 0.698095 0.931678 -0.093249
C21   C     C_3   0.602914 0.698483 0.092881 -0.125931
C22   C     C_R   0.498838 0.737539 0.499489 0.783673
C23   C     C_R   0.699474 0.499666 0.526363 0.789392
C24   C     C_R   0.812391 0.500103 0.541699 -0.048584
C25   C     C_R   0.187766 0.501401 0.458554 -0.052481
C26   C     C_R   0.023766 0.493224 0.312182 -0.219884
C27   C     C_R   0.131386 0.494886 0.324974 -0.198477
C28   C     C_R   0.135850 0.507726 0.579283 -0.274136
Cu1   Cu    Cu3+1 0.499990 0.499980 0.640670 0.929706
Cu2   Cu    Cu3+1 0.500010 0.500020 0.359330 0.927504
H1    H     H_    0.821535 0.487172 0.317713 0.144321
H2    H     H_    0.402345 0.885664 0.805056 0.150328
H3    H     H_    0.322249 0.113700 0.638688 0.191499
H4    H     H_    0.409081 0.106796 0.807759 0.175109
H5    H     H_    0.537532 0.749961 0.877698 0.163046
H6    H     H_    0.018939 0.515172 0.791882 0.130090
H7    H     H_    0.170301 0.490253 0.230580 0.152686
H8    H     H_    0.559677 0.116337 0.296905 0.162289
H9    H     H_    0.555530 0.891725 0.295832 0.166675
N1    N     N_R   0.500660 0.500930 0.148010 -0.187166
N2    N     N_R   0.500660 0.500890 0.852110 -0.187848
O1    O     O_R   0.500000 0.319640 0.618810 -0.573041
O2    O     O_R   0.500010 0.319680 0.381230 -0.584062
O3    O     O_R   0.348990 0.499960 0.599490 -0.591744
O4    O     O_R   0.349000 0.500000 0.361910 -0.586502
O5    O     O_R   0.499990 0.680320 0.618770 -0.587504
O6    O     O_R   0.500000 0.680360 0.381190 -0.591529
O7    O     O_R   0.651000 0.500000 0.638090 -0.594683
O8    O     O_R   0.651010 0.500040 0.400510 -0.593147
H10   H     H_    0.374195 0.372928 0.113072 0.133263
H11   H     H_    0.374121 0.372920 0.852900 0.132672
C29   C     C_3   0.706065 0.727248 0.869374 -0.312818
C30   C     C_3   0.717382 0.863893 0.830157 -0.849400
H12   H     H_    0.674547 0.881805 0.725642 0.248747
H13   H     H_    0.686759 0.924869 0.907571 0.261104
H14   H     H_    0.800271 0.888231 0.823648 0.238398
H15   H     H_    0.774470 0.697134 0.939343 0.192116
H16   H     H_    0.707383 0.675807 0.770878 0.223264
C31   C     C_3   0.705053 0.722190 0.189250 -0.310376
C32   C     C_3   0.748074 0.854889 0.183727 -0.848758
H17   H     H_    0.805963 0.863057 0.106888 0.261594
H18   H     H_    0.685832 0.921860 0.155850 0.243892
H19   H     H_    0.788572 0.880372 0.288148 0.238239
H20   H     H_    0.688547 0.704806 0.299070 0.226015
H21   H     H_    0.765582 0.656491 0.167672 0.180050
H22   H     H_    0.537237 0.751452 0.124377 0.147829
H23   H     H_    0.830051 0.509075 0.769887 0.144543
H24   H     H_    0.981208 0.487701 0.208387 0.128296
H25   H     H_    0.178823 0.513508 0.682862 0.153683
C33   C     C_3   0.287239 0.870753 0.614505 -0.341033
C34   C     C_3   0.192992 0.876786 0.696319 -0.844360
H26   H     H_    0.207503 0.826420 0.798070 0.245896
H27   H     H_    0.175111 0.974340 0.716765 0.254416
H28   H     H_    0.124887 0.832856 0.634086 0.246824
H29   H     H_    0.270672 0.918955 0.511525 0.208522
H30   H     H_    0.300711 0.772081 0.593428 0.205182

loop_
_geom_bond_atom_site_label_1
_geom_bond_atom_site_label_2
_ccdc_geom_bond_type
C16   C21   S    
Cu1   O1    S    
C1    C8    S    
Cu2   O4    S    
C19   C20   S    
C5    H23   S    
C7    C8    A    
C30   H12   S    
C25   C28   A    
C31   H20   S    
C32   H19   S    
C21   C31   S    
C5    C6    A    
C21   H22   S    
C23   O8    A    
C32   H18   S    
C20   H5    S    
C1    O2    A    
C28   H25   S    
C8    C9    A    
C23   C24   S    
C33   C34   S    
C9    C10   A    
C15   H4    S    
C7    C15   S    
C22   O6    A    
C31   C32   S    
C13   C14   S    
C14   C33   S    
C2    C6    A    
C18   H11   S    
C30   H13   S    
Cu1   O7    S    
Cu2   O6    S    
C29   H15   S    
C18   N2    A    
C34   H27   S    
C10   H9    S    
C17   N1    A    
Cu1   Cu2   S    
C17   C18   A    
C26   C27   A    
Cu2   N1    S    
C29   H16   S    
C16   N1    A    
C22   O5    A    
Cu2   O8    S    
Cu1   O3    S    
C33   H30   S    
Cu2   O2    S    
C3    C4    A    
C29   C30   S    
C30   H14   S    
C23   O7    A    
Cu1   N2    S    
C3    C26   A    
C14   H2    S    
C12   O4    A    
C17   H10   S    
C34   H28   S    
C25   C27   A    
Cu1   O5    S    
C11   C22   S    
C12   C25   S    
C26   H24   S    
C2    C3    A    
C34   H26   S    
C12   O3    A    
C31   H21   S    
C11   C13   A    
C5    C24   A    
C27   H7    S    
C16   C19   A    
C4    C24   A    
C9    H8    S    
C6    H6    S    
C4    H1    S    
C10   C11   A    
C1    O1    A    
C7    C13   A    
C20   C21   S    
C20   C29   S    
C33   H29   S    
C14   C15   S    
C32   H17   S    
C2    C28   A    
C15   H3    S    
C19   N2    A    
