data_mof_unit_15584.cif
_audit_creation_date              2012-12-11T15:08:41-0500
_audit_creation_method            fapswitch 2.2
_symmetry_space_group_name_H-M    P1
_symmetry_Int_Tables_number       1
_space_group_crystal_system       triclinic
_cell_length_a                    25.928356
_cell_length_b                    27.589291
_cell_length_c                    8.46897
_cell_angle_alpha                 89.999226
_cell_angle_beta                  95.863973
_cell_angle_gamma                 90.00046
_cell_volume                      6026.53379869

loop_
_atom_site_label
_atom_site_type_symbol
_atom_type_description
_atom_site_fract_x
_atom_site_fract_y
_atom_site_fract_z
_atom_type_partial_charge
Ba1   Ba    Ba6+2 0.999910 0.465960 0.844870 1.639505
Ba2   Ba    Ba6+2 0.999910 0.534040 0.344870 1.639499
Ba3   Ba    Ba6+2 0.499910 0.965960 0.844870 1.639443
Ba4   Ba    Ba6+2 0.499910 0.034040 0.344870 1.639505
C1    C     C_3   0.021754 0.225438 0.614732 -0.213137
C2    C     C_3   0.021792 0.774563 0.116075 -0.213046
C3    C     C_3   0.521809 0.725471 0.614715 -0.212343
C4    C     C_3   0.521751 0.274575 0.115191 -0.213276
C5    C     C_R   0.884595 0.391222 0.149526 0.066105
C6    C     C_R   0.884621 0.608792 0.649500 0.066066
C7    C     C_R   0.384595 0.891222 0.149510 0.066196
C8    C     C_R   0.384607 0.108784 0.649508 0.066080
C9    C     C_R   0.845063 0.358168 0.097611 -0.136293
C10   C     C_R   0.845093 0.641851 0.597585 -0.136302
C11   C     C_R   0.345062 0.858169 0.097591 -0.136314
C12   C     C_R   0.345078 0.141842 0.597589 -0.136298
C13   C     C_R   0.833648 0.318341 0.193645 -0.022708
C14   C     C_R   0.833692 0.681688 0.693595 -0.022796
C15   C     C_R   0.333648 0.818340 0.193618 -0.022702
C16   C     C_R   0.333668 0.181672 0.693614 -0.022757
C17   C     C_R   0.861997 0.313504 0.344600 -0.104319
C18   C     C_R   0.862056 0.686535 0.844523 -0.104282
C19   C     C_R   0.361999 0.813502 0.344570 -0.104302
C20   C     C_R   0.362021 0.186510 0.844563 -0.104293
C21   C     C_R   0.900912 0.347041 0.396258 0.038447
C22   C     C_R   0.900974 0.653001 0.896180 0.038360
C23   C     C_R   0.400912 0.847040 0.396231 0.038527
C24   C     C_R   0.400936 0.152974 0.896223 0.038392
C25   C     C_R   0.795987 0.233484 0.176213 -0.077223
C26   C     C_R   0.796024 0.766544 0.676183 -0.077244
C27   C     C_R   0.295985 0.733484 0.176167 -0.077205
C28   C     C_R   0.296008 0.266530 0.676195 -0.077236
C29   C     C_R   0.255873 0.700706 0.128616 -0.078542
C30   C     C_R   0.255901 0.299312 0.628633 -0.078532
C31   C     C_R   0.755880 0.200703 0.128648 -0.078539
C32   C     C_R   0.755915 0.799324 0.628624 -0.078518
C33   C     C_R   0.209374 0.716581 0.043684 0.055115
C34   C     C_R   0.209407 0.283443 0.543657 0.055120
C35   C     C_R   0.709384 0.216573 0.043681 0.055117
C36   C     C_R   0.709421 0.783453 0.543652 0.055122
C37   C     C_R   0.204406 0.766341 0.007782 -0.070387
C38   C     C_R   0.204439 0.233685 0.507726 -0.070392
C39   C     C_R   0.704416 0.266332 0.007760 -0.070392
C40   C     C_R   0.704455 0.733695 0.507725 -0.070385
C41   C     C_R   0.744535 0.299107 0.055263 -0.075953
C42   C     C_R   0.744574 0.700921 0.555224 -0.075906
C43   C     C_R   0.244528 0.799113 0.055272 -0.075966
C44   C     C_R   0.244556 0.200909 0.555227 -0.075934
C45   C     C_3   0.980027 0.294252 0.034427 0.341504
C46   C     C_3   0.980022 0.705785 0.534823 0.341169
C47   C     C_3   0.480000 0.794290 0.034242 0.341751
C48   C     C_3   0.480020 0.205760 0.534591 0.341391
C49   C     C_R   0.790987 0.283242 0.140430 0.059469
C50   C     C_R   0.791028 0.716786 0.640390 0.059488
C51   C     C_R   0.290985 0.783244 0.140406 0.059463
C52   C     C_R   0.291008 0.216772 0.640401 0.059474
C53   C     C_R   0.137609 0.686549 0.841392 -0.092132
C54   C     C_R   0.137661 0.313489 0.341329 -0.092139
C55   C     C_R   0.637633 0.186531 0.841361 -0.092133
C56   C     C_R   0.637672 0.813497 0.341327 -0.092102
C57   C     C_R   0.098438 0.653150 0.790703 0.030061
C58   C     C_R   0.098492 0.346889 0.290639 0.030495
C59   C     C_R   0.598464 0.153131 0.790668 0.030330
C60   C     C_R   0.598503 0.846897 0.290639 0.030609
C61   C     C_R   0.115434 0.608877 0.037609 0.114021
C62   C     C_R   0.115458 0.391137 0.537588 0.114099
C63   C     C_R   0.615443 0.108871 0.037601 0.114112
C64   C     C_R   0.615464 0.891141 0.537590 0.114080
C65   C     C_R   0.155339 0.641733 0.087923 -0.080938
C66   C     C_R   0.155366 0.358285 0.587905 -0.080973
C67   C     C_R   0.655348 0.141727 0.087919 -0.080963
C68   C     C_R   0.655375 0.858291 0.587905 -0.080950
C69   C     C_R   0.166548 0.681526 0.991415 -0.000559
C70   C     C_R   0.166588 0.318502 0.491374 -0.000662
C71   C     C_R   0.666564 0.181515 0.991399 -0.000629
C72   C     C_R   0.666600 0.818510 0.491371 -0.000663
C73   C     C_R   0.086445 0.615700 0.891228 -0.245109
C74   C     C_R   0.086486 0.384329 0.391177 -0.245242
C75   C     C_R   0.586465 0.115686 0.891200 -0.245195
C76   C     C_R   0.586495 0.884334 0.391177 -0.245105
C77   C     C_3   0.953056 0.245252 0.024558 -0.345162
C78   C     C_3   0.953107 0.754814 0.525291 -0.344942
C79   C     C_3   0.452976 0.745317 0.024238 -0.345106
C80   C     C_3   0.453071 0.254770 0.524894 -0.345028
C81   C     C_3   0.148118 0.469813 0.223707 0.311409
C82   C     C_3   0.148085 0.530204 0.723673 0.311385
C83   C     C_3   0.648120 0.969813 0.223711 0.311383
C84   C     C_3   0.648096 0.030199 0.723693 0.311390
C85   C     C_3   0.197303 0.439390 0.243071 -0.391689
C86   C     C_3   0.197260 0.560641 0.743076 -0.391652
C87   C     C_3   0.697307 0.939392 0.243071 -0.391695
C88   C     C_3   0.697276 0.060629 0.743096 -0.391687
C89   C     C_3   0.851656 0.530649 0.965445 0.312938
C90   C     C_3   0.851629 0.469361 0.465473 0.312942
C91   C     C_3   0.351639 0.030641 0.965423 0.312992
C92   C     C_3   0.351646 0.969347 0.465569 0.312919
C93   C     C_3   0.802603 0.561279 0.947742 -0.387161
C94   C     C_3   0.802561 0.438759 0.447660 -0.387388
C95   C     C_3   0.302578 0.061259 0.947705 -0.387243
C96   C     C_3   0.302549 0.938787 0.447338 -0.387473
C97   C     C_3   0.005330 0.277750 0.577236 0.995635
C98   C     C_3   0.005328 0.722308 0.077866 0.995497
C99   C     C_3   0.505327 0.777757 0.577097 0.995433
C100  C     C_3   0.505323 0.222277 0.077461 0.995659
C101  C     C_R   0.913273 0.384376 0.296187 -0.295016
C102  C     C_R   0.913316 0.615650 0.796135 -0.295036
C103  C     C_R   0.413274 0.884375 0.296167 -0.294978
C104  C     C_R   0.413289 0.115633 0.796164 -0.295050
H1    H     H_    0.226668 0.456944 0.329267 0.124032
H2    H     H_    0.226614 0.543108 0.829363 0.124004
H3    H     H_    0.726672 0.956948 0.329267 0.124042
H4    H     H_    0.726631 0.043085 0.829355 0.124028
H5    H     H_    0.189053 0.402776 0.287261 0.050222
H6    H     H_    0.188989 0.597261 0.787170 0.050269
H7    H     H_    0.689059 0.902778 0.287262 0.050209
H8    H     H_    0.689014 0.097246 0.787227 0.050238
H9    H     H_    0.213318 0.435679 0.126925 0.126587
H10   H     H_    0.213300 0.564336 0.626963 0.126614
H11   H     H_    0.713321 0.935682 0.126923 0.126582
H12   H     H_    0.713311 0.064330 0.626977 0.126594
H13   H     H_    0.866048 0.526521 0.847631 0.015465
H14   H     H_    0.866050 0.473479 0.347705 0.015484
H15   H     H_    0.366027 0.026507 0.847607 0.015424
H16   H     H_    0.366193 0.973437 0.347963 0.015385
H17   H     H_    0.881141 0.549192 0.048852 0.058476
H18   H     H_    0.881083 0.450803 0.548930 0.058372
H19   H     H_    0.381120 0.049194 0.048809 0.058373
H20   H     H_    0.381010 0.950778 0.549295 0.058577
H21   H     H_    0.772559 0.543421 0.864516 0.123911
H22   H     H_    0.772581 0.456598 0.364240 0.123930
H23   H     H_    0.272541 0.043391 0.864491 0.123909
H24   H     H_    0.272711 0.956579 0.363302 0.123888
H25   H     H_    0.810662 0.597566 0.900536 0.063014
H26   H     H_    0.810611 0.402446 0.400684 0.063025
H27   H     H_    0.310624 0.097546 0.900483 0.063010
H28   H     H_    0.310643 0.902414 0.400912 0.063065
H29   H     H_    0.787540 0.565761 0.065071 0.126086
H30   H     H_    0.787433 0.434342 0.564871 0.126109
H31   H     H_    0.287514 0.065739 0.065027 0.126088
H32   H     H_    0.287212 0.934509 0.564301 0.126137
H33   H     H_    0.990050 0.200118 0.571792 0.072215
H34   H     H_    0.990117 0.799934 0.073440 0.072110
H35   H     H_    0.490146 0.700121 0.571750 0.072103
H36   H     H_    0.490056 0.299903 0.072329 0.072211
H37   H     H_    0.056830 0.216374 0.555392 0.083479
H38   H     H_    0.056882 0.783698 0.056929 0.083379
H39   H     H_    0.556921 0.716422 0.555506 0.083412
H40   H     H_    0.556830 0.283669 0.055937 0.083445
H41   H     H_    0.910365 0.250565 0.012418 0.077832
H42   H     H_    0.965188 0.776301 0.633576 0.146376
H43   H     H_    0.463676 0.724358 0.134678 0.145511
H44   H     H_    0.464747 0.276110 0.633889 0.146085
H45   H     H_    0.177547 0.636036 0.201700 0.069218
H46   H     H_    0.177563 0.363973 0.701704 0.069191
H47   H     H_    0.677548 0.136035 0.201710 0.069205
H48   H     H_    0.677571 0.863980 0.701705 0.069187
H49   H     H_    0.261761 0.662668 0.156117 0.057815
H50   H     H_    0.261788 0.337348 0.656161 0.057820
H51   H     H_    0.761767 0.162665 0.156167 0.057816
H52   H     H_    0.761800 0.837361 0.656151 0.057825
H53   H     H_    0.831372 0.219657 0.239263 0.066145
H54   H     H_    0.831409 0.780372 0.739236 0.066203
H55   H     H_    0.331373 0.719655 0.239192 0.066134
H56   H     H_    0.331392 0.280356 0.739253 0.066164
H57   H     H_    0.823118 0.363871 0.983419 0.087522
H58   H     H_    0.823137 0.636142 0.483414 0.087550
H59   H     H_    0.323115 0.863874 0.983402 0.087525
H60   H     H_    0.323130 0.136138 0.483402 0.087554
H61   H     H_    0.169008 0.780204 0.944929 0.068696
H62   H     H_    0.169043 0.219827 0.444842 0.068676
H63   H     H_    0.669021 0.280191 0.944882 0.068681
H64   H     H_    0.669059 0.719835 0.444845 0.068696
H65   H     H_    0.738651 0.337149 0.027808 0.061262
H66   H     H_    0.738691 0.662879 0.527765 0.061261
H67   H     H_    0.238645 0.837157 0.027834 0.061265
H68   H     H_    0.238672 0.162867 0.527766 0.061266
H69   H     H_    0.146573 0.715290 0.761577 0.071611
H70   H     H_    0.146625 0.284749 0.261514 0.071596
H71   H     H_    0.646597 0.215273 0.761546 0.071589
H72   H     H_    0.646636 0.784756 0.261514 0.071636
H73   H     H_    0.852746 0.284837 0.424313 0.075176
H74   H     H_    0.852807 0.715202 0.924234 0.075241
H75   H     H_    0.352749 0.784834 0.424279 0.075217
H76   H     H_    0.352771 0.215177 0.924274 0.075194
H77   H     H_    0.056373 0.590032 0.850970 0.047628
H78   H     H_    0.056409 0.409990 0.350928 0.047562
H79   H     H_    0.556391 0.090020 0.850945 0.047579
H80   H     H_    0.556413 0.909993 0.350934 0.047563
H81   H     H_    0.030979 0.220389 0.744614 0.055416
H82   H     H_    0.031003 0.779444 0.246007 0.056201
H83   H     H_    0.531019 0.720461 0.744607 0.055316
H84   H     H_    0.530964 0.279576 0.245085 0.055678
H85   H     H_    0.943093 0.410162 0.337569 0.061100
H86   H     H_    0.943125 0.589856 0.837533 0.061161
H87   H     H_    0.443095 0.910160 0.337551 0.061121
H88   H     H_    0.443103 0.089843 0.837556 0.061115
H89   H     H_    0.967702 0.315325 0.926291 0.099790
H90   H     H_    0.967493 0.684697 0.426875 0.099664
H91   H     H_    0.467797 0.815346 0.925981 0.099743
H92   H     H_    0.467608 0.184686 0.426524 0.099757
H93   H     H_    0.966820 0.314032 0.136477 0.016358
H94   H     H_    0.966962 0.686035 0.637132 0.015887
H95   H     H_    0.466718 0.814108 0.136119 0.016129
H96   H     H_    0.466878 0.185987 0.636745 0.016175
H97   H     H_    0.963760 0.224669 0.920312 0.120383
H98   H     H_    0.910455 0.749558 0.516065 0.077529
H99   H     H_    0.410300 0.750696 0.009735 0.078017
H100  H     H_    0.410387 0.249469 0.514066 0.077688
H101  H     H_    0.964398 0.224037 0.134021 0.145833
H102  H     H_    0.963067 0.775089 0.419593 0.119983
H103  H     H_    0.464251 0.724437 0.921316 0.120610
H104  H     H_    0.463444 0.275222 0.419959 0.120213
H105  H     H_    0.133089 0.473654 0.340732 0.007637
H106  H     H_    0.133036 0.526370 0.840671 0.007611
H107  H     H_    0.633092 0.973655 0.340737 0.007659
H108  H     H_    0.633051 0.026361 0.840696 0.007654
H109  H     H_    0.119116 0.451243 0.138765 0.058307
H110  H     H_    0.119091 0.548761 0.638674 0.058501
H111  H     H_    0.619118 0.951243 0.138770 0.058279
H112  H     H_    0.619101 0.048762 0.638710 0.058406
O1    O     O_2   0.898940 0.431940 0.867860 -0.459216
O2    O     O_2   0.898940 0.568060 0.367860 -0.459129
O3    O     O_2   0.398940 0.931940 0.867860 -0.459310
O4    O     O_2   0.398940 0.068060 0.367860 -0.459097
O5    O     O_3   0.160635 0.484684 0.666336 -0.642208
O6    O     O_3   0.160645 0.515331 0.166300 -0.642189
O7    O     O_3   0.660637 0.984680 0.666328 -0.642200
O8    O     O_3   0.660646 0.015331 0.166301 -0.642204
O9    O     O_3   0.034177 0.287771 0.049818 -0.607111
O10   O     O_3   0.034178 0.712216 0.549402 -0.607386
O11   O     O_3   0.534145 0.787763 0.050070 -0.606922
O12   O     O_3   0.534173 0.212224 0.549633 -0.607244
O13   O     O_3   0.058810 0.523750 0.066650 -0.497113
O14   O     O_3   0.058810 0.476250 0.566650 -0.497125
O15   O     O_3   0.558810 0.023750 0.066650 -0.497109
O16   O     O_3   0.558810 0.976250 0.566650 -0.497094
O17   O     O_3   0.941140 0.476130 0.123050 -0.494086
O18   O     O_3   0.941140 0.523870 0.623050 -0.494107
O19   O     O_3   0.441140 0.976130 0.123050 -0.494051
O20   O     O_3   0.441140 0.023870 0.623050 -0.494137
O21   O     O_3   0.982430 0.389880 0.635700 -0.455768
O22   O     O_3   0.982430 0.610120 0.135700 -0.455861
O23   O     O_3   0.482430 0.889880 0.635700 -0.455937
O24   O     O_3   0.482430 0.110120 0.135700 -0.455756
O25   O     O_2   0.893751 0.353255 0.718277 -0.499072
O26   O     O_2   0.893712 0.646681 0.218056 -0.498889
O27   O     O_2   0.393754 0.853242 0.718247 -0.499120
O28   O     O_2   0.393735 0.146718 0.218184 -0.499009
O29   O     O_3   0.839205 0.485299 0.024223 -0.635282
O30   O     O_3   0.839193 0.514717 0.524233 -0.635275
O31   O     O_3   0.339201 0.985293 0.024244 -0.635274
O32   O     O_3   0.339191 0.014719 0.524172 -0.635268
O33   O     O_3   0.959603 0.287408 0.650038 -0.643308
O34   O     O_3   0.959579 0.712578 0.150460 -0.643268
O35   O     O_3   0.459601 0.787402 0.649925 -0.643388
O36   O     O_3   0.459592 0.212586 0.150195 -0.643277
O37   O     O_2   0.100770 0.431440 0.821660 -0.452962
O38   O     O_2   0.100770 0.568560 0.321660 -0.452983
O39   O     O_2   0.600770 0.931440 0.821660 -0.453062
O40   O     O_2   0.600770 0.068560 0.321660 -0.452981
O41   O     O_3   0.017130 0.389790 0.053700 -0.502235
O42   O     O_3   0.017130 0.610210 0.553700 -0.502151
O43   O     O_3   0.517130 0.889790 0.053700 -0.502349
O44   O     O_3   0.517130 0.110210 0.553700 -0.502182
O45   O     O_2   0.103034 0.349500 0.964160 -0.481740
O46   O     O_2   0.103076 0.650445 0.464319 -0.481677
O47   O     O_2   0.603008 0.849452 0.964121 -0.481884
O48   O     O_2   0.603051 0.150478 0.464227 -0.481712
P1    P     P_3+3 0.893960 0.447890 0.040050 0.981775
P2    P     P_3+3 0.893960 0.552110 0.540050 0.981791
P3    P     P_3+3 0.393960 0.947890 0.040050 0.981791
P4    P     P_3+3 0.393960 0.052110 0.540050 0.981795
P5    P     P_3+3 0.105800 0.447360 0.649510 0.992034
P6    P     P_3+3 0.105800 0.552640 0.149510 0.991966
P7    P     P_3+3 0.605800 0.947360 0.649510 0.991976
P8    P     P_3+3 0.605800 0.052640 0.149510 0.992019
P9    P     P_3+3 0.063962 0.344182 0.089546 0.933216
P10   P     P_3+3 0.063955 0.655823 0.589531 0.932921
P11   P     P_3+3 0.563954 0.844174 0.089581 0.933042
P12   P     P_3+3 0.563957 0.155822 0.589537 0.933138
P13   P     P_3+3 0.934239 0.654896 0.098844 0.956301
P14   P     P_3+3 0.934227 0.345111 0.598849 0.956248
P15   P     P_3+3 0.434232 0.154891 0.098843 0.956327
P16   P     P_3+3 0.434228 0.845109 0.598809 0.955909
O49   O     O_3   0.045834 0.308783 0.636009 -0.752924
H113  H     H_    0.047664 0.307255 0.753012 0.318727
O50   O     O_3   0.045810 0.691198 0.136270 -0.753259
H114  H     H_    0.047534 0.692468 0.253214 0.319235
O51   O     O_3   0.545819 0.808820 0.635761 -0.753108
H115  H     H_    0.547536 0.807462 0.752774 0.318711
O52   O     O_3   0.545823 0.191224 0.136115 -0.752932
H116  H     H_    0.547648 0.192706 0.253138 0.318835
O53   O     O_3   0.996193 0.281706 0.411601 -0.764586
H117  H     H_    0.004582 0.315431 0.383341 0.266597
O54   O     O_3   0.996200 0.718551 0.912194 -0.764566
H118  H     H_    0.004655 0.684880 0.883540 0.266676
O55   O     O_3   0.496158 0.781673 0.411456 -0.764509
H119  H     H_    0.504553 0.815383 0.383080 0.266690
O56   O     O_3   0.496190 0.218386 0.911812 -0.764619
H120  H     H_    0.504591 0.184679 0.883429 0.266615

loop_
_geom_bond_atom_site_label_1
_geom_bond_atom_site_label_2
_ccdc_geom_bond_type
Ba4   P4    S    
C77   H101  S    
C83   C87   S    
C20   H76   S    
C57   P10   S    
O52   H116  S    
C95   H31   S    
C46   H90   S    
C21   C101  A    
O46   P10   D    
C94   H30   S    
C89   H13   S    
C2    H38   S    
C91   C95   S    
C59   P12   S    
C84   O7    S    
C60   P11   S    
Ba1   O1    S    
C48   C80   S    
C5    C9    A    
C22   P13   S    
C38   H62   S    
Ba3   O15   S    
C7    C11   A    
C8    C12   A    
Ba1   O13   S    
C66   C70   A    
C42   H66   S    
C74   H78   S    
Ba4   O40   S    
O15   P8    S    
C40   C42   A    
C46   H94   S    
C28   H56   S    
C85   H5    S    
C61   C73   A    
C63   C75   A    
C82   C86   S    
C8    C104  A    
C37   H61   S    
C56   C72   A    
C13   C17   A    
C36   C72   S    
C28   C30   A    
C15   C19   A    
C40   H64   S    
O3    P3    D    
O27   P16   D    
C41   H65   S    
Ba2   P6    S    
Ba2   O13   S    
C64   C68   A    
C97   O49   S    
C4    C100  S    
C90   H14   S    
C26   H54   S    
C47   C79   S    
O5    P5    S    
O32   P4    S    
C96   H24   S    
C53   C57   A    
C26   C32   A    
C25   C31   A    
C55   C59   A    
C1    C97   S    
O11   P11   S    
C56   C60   A    
O12   P12   S    
C1    H81   S    
C97   O53   S    
Ba2   O42   S    
O8    P8    S    
C77   H41   S    
O13   P6    S    
O9    P9    S    
Ba4   O19   S    
C86   H6    S    
C83   O8    S    
C62   P5    S    
C68   H48   S    
O38   P6    D    
C93   H25   S    
C16   C52   S    
C3    H35   S    
C102  H86   S    
C45   H89   S    
C26   C50   A    
O10   P10   S    
C24   C104  A    
O43   P11   S    
C99   O51   S    
Ba1   P1    S    
C5    C101  A    
Ba3   P3    S    
O26   P13   D    
O18   P2    S    
C82   H110  S    
C53   C69   A    
C63   P8    S    
C79   H99   S    
C57   C73   A    
C48   H92   S    
C35   C71   S    
C10   H58   S    
Ba3   O20   S    
C2    C98   S    
C41   C49   A    
C3    C99   S    
Ba4   O16   S    
C11   H59   S    
C90   O30   S    
C93   H29   S    
C3    H39   S    
C37   C43   A    
C45   H93   S    
C1    H37   S    
C47   O11   S    
C6    C10   A    
C23   P16   S    
C39   H63   S    
C82   H106  S    
C19   H75   S    
O53   H117  S    
O23   P16   S    
C39   C41   A    
C80   H100  S    
Ba4   O44   S    
O51   H115  S    
C76   H80   S    
C54   H70   S    
C38   C44   A    
O39   P7    D    
Ba2   O22   S    
Ba1   O21   S    
C85   H9    S    
C6    P2    S    
C87   H11   S    
C6    C102  A    
C2    H34   S    
Ba3   Ba4   S    
C30   H50   S    
C78   H98   S    
C54   C70   A    
C65   H45   S    
C34   C70   S    
C91   H15   S    
C5    P1    S    
Ba3   O3    S    
O36   P15   S    
C14   C18   A    
C7    P3    S    
C58   C74   A    
C20   C24   A    
Ba3   O39   S    
Ba2   O17   S    
Ba3   P7    S    
C62   C66   A    
Ba3   O43   S    
C9    C13   A    
C27   C51   A    
C88   H12   S    
C18   H74   S    
C53   H69   S    
C64   P7    S    
C92   C96   S    
C46   O10   S    
C33   C37   A    
O40   P8    D    
C36   C40   A    
O41   P9    S    
C82   O5    S    
C86   H2    S    
Ba4   O24   S    
C43   H67   S    
C96   H28   S    
C44   H68   S    
C54   C58   A    
C89   C93   S    
C99   O35   S    
O21   P14   S    
C22   C102  A    
O1    P1    D    
C11   C15   A    
O14   P5    S    
C86   H10   S    
C43   C51   A    
C90   C94   S    
Ba2   O2    S    
C92   H20   S    
C45   C77   S    
C17   C21   A    
Ba2   O14   S    
C29   H49   S    
C65   C69   A    
C58   P9    S    
C104  H88   S    
C79   H43   S    
C100  O52   S    
C66   H46   S    
C60   C76   A    
C3    H83   S    
C4    H40   S    
Ba2   P2    S    
C47   H95   S    
Ba1   O37   S    
C62   C74   A    
O29   P1    S    
C91   O31   S    
O54   H118  S    
C81   C85   S    
C88   H4    S    
C29   C33   A    
C84   H112  S    
C48   H96   S    
C31   C35   A    
O56   H120  S    
O49   H113  S    
Ba3   O16   S    
C9    H57   S    
O50   H114  S    
C23   C103  A    
Ba1   O14   S    
C67   H47   S    
C42   C50   A    
C95   H27   S    
C92   O32   S    
C13   C49   S    
O33   P14   S    
C46   C78   S    
C15   C51   S    
C99   O55   S    
O24   P15   S    
C8    P4    S    
C80   H104  S    
O19   P3    S    
C56   H72   S    
O48   P12   D    
O16   P7    S    
C55   H71   S    
C101  H85   S    
O45   P9    D    
C61   C65   A    
O47   P11   D    
C87   H7    S    
C63   C67   A    
C45   O9    S    
C4    H84   S    
C89   H17   S    
C91   H19   S    
C18   C22   A    
C83   H107  S    
O17   P1    S    
O6    P6    S    
C98   O34   S    
C21   P14   S    
C28   C52   A    
O28   P15   D    
C64   C76   A    
C24   P15   S    
C73   H77   S    
O55   H119  S    
C10   C14   A    
C97   O33   S    
C68   C72   A    
C103  H87   S    
C59   C75   A    
C17   H73   S    
C75   H79   S    
C34   C38   A    
O4    P4    D    
O42   P10   S    
C85   H1    S    
Ba1   Ba2   S    
C87   H3    S    
C81   H109  S    
C96   H32   S    
C84   C88   S    
O35   P16   S    
C27   C29   A    
C83   H111  S    
O22   P13   S    
Ba1   P5    S    
C12   C16   A    
C94   H22   S    
C89   O29   S    
C90   H18   S    
C27   H55   S    
C92   H16   S    
Ba4   P8    S    
C16   C20   A    
C32   C36   A    
O31   P3    S    
C14   C50   S    
C48   O12   S    
C35   C39   A    
Ba4   O4    S    
C98   O50   S    
C81   H105  S    
C88   H8    S    
C1    H33   S    
C2    H82   S    
C4    H36   S    
Ba3   O23   S    
C78   H42   S    
C47   H91   S    
Ba1   O41   S    
C80   H44   S    
Ba2   O38   S    
C19   C23   A    
C7    C103  A    
Ba4   O15   S    
O30   P2    S    
C55   C71   A    
O7    P7    S    
C77   H97   S    
C44   C52   A    
C33   C69   S    
C84   H108  S    
C61   P6    S    
C30   C34   A    
C98   O54   S    
Ba1   O18   S    
C94   H26   S    
O37   P5    D    
C100  O36   S    
C95   H23   S    
O20   P4    S    
C93   H21   S    
C67   C71   A    
C25   C49   A    
C12   H60   S    
C100  O56   S    
O44   P12   S    
C31   H51   S    
C32   H52   S    
O2    P2    D    
O34   P13   S    
O25   P14   D    
C81   O6    S    
C25   H53   S    
C78   H102  S    
C79   H103  S    
