data_mof_unit_57539.cif
_audit_creation_date              2012-12-10T17:08:09-0500
_audit_creation_method            fapswitch 2.2
_symmetry_space_group_name_H-M    P1
_symmetry_Int_Tables_number       1
_space_group_crystal_system       triclinic
_cell_length_a                    23.533897
_cell_length_b                    11.055453
_cell_length_c                    9.768583
_cell_angle_alpha                 109.433198
_cell_angle_beta                  98.361107
_cell_angle_gamma                 91.002372
_cell_volume                      2365.38390499

loop_
_atom_site_label
_atom_site_type_symbol
_atom_type_description
_atom_site_fract_x
_atom_site_fract_y
_atom_site_fract_z
_atom_type_partial_charge
C1    C     C_R   0.493765 0.254773 0.444518 0.867624
C2    C     C_R   0.500764 0.744056 0.556658 0.855456
C3    C     C_R   0.231106 0.494304 0.377521 -0.108423
C4    C     C_R   0.769122 0.511213 0.623761 -0.106514
C5    C     C_R   0.290149 0.492407 0.375545 -0.220235
C6    C     C_R   0.710058 0.512399 0.625621 -0.214382
C7    C     C_R   0.328618 0.502313 0.503786 -0.036327
C8    C     C_R   0.671446 0.498882 0.496435 -0.042398
C9    C     C_R   0.306912 0.514358 0.634049 -0.225141
C10   C     C_R   0.693068 0.484302 0.365446 -0.220186
C11   C     C_R   0.247756 0.516118 0.635669 -0.108012
C12   C     C_R   0.752250 0.483355 0.363976 -0.106318
C13   C     C_R   0.209707 0.506090 0.507412 0.367636
C14   C     C_R   0.790401 0.496683 0.493093 0.367279
C15   C     C_2   0.485649 0.117974 0.423668 -0.376138
C16   C     C_2   0.500006 0.880082 0.583985 -0.378379
C17   C     C_2   0.477062 0.072849 0.533306 0.177138
C18   C     C_2   0.467155 0.933272 0.497221 0.127224
C19   C     C_2   0.503462 0.514715 0.082601 -0.072673
C20   C     C_2   0.491090 0.501605 0.923121 -0.093271
C21   C     C_R   0.390979 0.500451 0.501232 0.784695
C22   C     C_R   0.609036 0.499818 0.498820 0.810074
C23   C     C_R   0.879617 0.599704 0.480744 0.537659
C24   C     C_R   0.120436 0.403000 0.519373 0.536945
C25   C     C_R   0.879405 0.392151 0.505469 0.521610
C26   C     C_R   0.120697 0.610783 0.495258 0.520854
C27   C     C_R   0.939957 0.389793 0.509010 -0.038534
C28   C     C_R   0.060128 0.613061 0.491482 -0.038271
C29   C     C_R   0.969807 0.498816 0.498198 -0.049852
C30   C     C_R   0.030268 0.504004 0.502179 -0.049984
C31   C     C_R   0.939232 0.603297 0.483586 -0.035907
C32   C     C_R   0.060832 0.399477 0.516664 -0.035476
C33   C     C_R   0.972096 0.284873 0.523607 0.140961
C34   C     C_R   0.027982 0.717944 0.476782 0.141257
C35   C     C_R   0.031725 0.292309 0.526967 -0.197492
C36   C     C_R   0.968341 0.710454 0.473258 -0.197325
Cu1   Cu    Cu3+1 0.509980 0.521810 0.644910 0.933304
Cu2   Cu    Cu3+1 0.490020 0.478190 0.355090 0.932118
H1    H     H_    0.561238 0.607693 0.929215 0.195701
H2    H     H_    0.443133 0.379775 0.066735 0.193353
H3    H     H_    0.055766 0.212012 0.536602 0.180677
H4    H     H_    0.944292 0.790711 0.463510 0.180781
H5    H     H_    0.201855 0.486211 0.277978 0.137465
H6    H     H_    0.798477 0.521856 0.723943 0.137260
H7    H     H_    0.305601 0.483366 0.273679 0.158856
H8    H     H_    0.694705 0.523701 0.728144 0.159367
H9    H     H_    0.335542 0.522108 0.734441 0.152828
H10   H     H_    0.664349 0.473776 0.264312 0.156018
H11   H     H_    0.231415 0.525392 0.736481 0.136619
H12   H     H_    0.768524 0.471964 0.262584 0.136883
H13   H     H_    0.529454 0.938731 0.679679 0.150137
H14   H     H_    0.485269 0.050849 0.313140 0.133232
H15   H     H_    0.453159 0.443469 0.855599 0.158927
H16   H     H_    0.537293 0.584441 0.154527 0.164329
N1    N     N_R   0.851278 0.495796 0.492047 -0.464664
N2    N     N_R   0.148814 0.507023 0.508398 -0.464151
N3    N     N_2   0.475010 0.445410 0.137370 -0.289751
N4    N     N_2   0.524990 0.554590 0.862630 -0.292127
O1    O     O_R   0.505330 0.332340 0.577400 -0.567691
O2    O     O_R   0.494670 0.667660 0.422600 -0.584102
O3    O     O_R   0.488470 0.295500 0.332650 -0.571768
O4    O     O_R   0.511530 0.704500 0.667350 -0.563790
O5    O     O_R   0.426310 0.518390 0.622390 -0.586726
O6    O     O_R   0.573690 0.481610 0.377610 -0.578796
O7    O     O_R   0.409450 0.481550 0.377650 -0.584974
O8    O     O_R   0.590550 0.518450 0.622350 -0.579881
O9    O     O_2   0.850016 0.700077 0.468270 -0.549428
O10   O     O_2   0.149985 0.302413 0.531355 -0.551892
O11   O     O_2   0.848176 0.292818 0.514739 -0.551898
O12   O     O_2   0.151954 0.710344 0.486588 -0.554807
C37   C     C_3   0.946311 0.161987 0.534590 -0.347302
C38   C     C_3   0.919704 0.068585 0.383255 -0.743401
H17   H     H_    0.899207 0.982399 0.395619 0.245883
H18   H     H_    0.886701 0.113397 0.326292 0.281426
H19   H     H_    0.953735 0.037438 0.313687 0.223961
H20   H     H_    0.980120 0.111549 0.581749 0.172029
H21   H     H_    0.915487 0.182004 0.613650 0.245713
C39   C     C_3   0.053767 0.840791 0.465708 -0.346735
C40   C     C_3   0.080243 0.934390 0.617051 -0.745926
H22   H     H_    0.113200 0.889731 0.674336 0.281157
H23   H     H_    0.100765 0.020526 0.604636 0.245337
H24   H     H_    0.046134 0.965580 0.686359 0.224352
H25   H     H_    0.084677 0.820732 0.386861 0.244956
H26   H     H_    0.019975 0.891063 0.418230 0.172055
C41   C     C_3   0.418777 0.859534 0.373424 -0.373707
C42   C     C_3   0.362440 0.926105 0.387243 -0.830638
H27   H     H_    0.350187 0.939608 0.496743 0.258716
H28   H     H_    0.366584 0.021006 0.372432 0.252781
H29   H     H_    0.327575 0.865824 0.300988 0.250159
H30   H     H_    0.431466 0.850764 0.265582 0.200073
H31   H     H_    0.408919 0.761294 0.373546 0.227824
C43   C     C_3   0.473590 0.155352 0.692140 -0.335350
C44   C     C_3   0.533071 0.200698 0.788795 -0.785410
H32   H     H_    0.530316 0.207515 0.903653 0.227998
H33   H     H_    0.566702 0.134880 0.749257 0.234926
H34   H     H_    0.548550 0.296633 0.792362 0.278400
H35   H     H_    0.445999 0.236143 0.695951 0.191155
H36   H     H_    0.450334 0.097190 0.742932 0.182979

loop_
_geom_bond_atom_site_label_1
_geom_bond_atom_site_label_2
_ccdc_geom_bond_type
C44   H32   S    
C27   C29   A    
C36   H4    S    
C19   C20   S    
C16   H13   S    
Cu1   O4    S    
C41   H31   S    
C43   H36   S    
C41   C42   S    
C27   C33   A    
C3    H5    S    
Cu1   Cu2   S    
C1    O1    A    
C37   H20   S    
C42   H28   S    
C15   C17   D    
C23   O9    S    
C22   O8    A    
C39   H25   S    
C8    C22   S    
C1    C15   S    
C2    C16   S    
Cu1   N4    S    
C3    C13   A    
C13   N2    S    
C14   N1    S    
C28   C34   A    
C44   H33   S    
C17   C43   S    
C38   H19   S    
Cu1   O5    S    
C43   H35   S    
Cu2   O6    S    
C18   C41   S    
C32   C35   A    
C2    O2    A    
C4    C6    A    
C40   H23   S    
C33   C37   S    
C42   H27   S    
C20   H15   S    
C6    C8    A    
C4    H6    S    
C7    C21   S    
H1    N4    S    
C5    H7    S    
C19   N3    D    
C26   N2    A    
C23   C31   A    
C24   C32   A    
C29   C30   A    
C11   H11   S    
Cu2   N3    S    
Cu2   O7    S    
Cu1   O8    S    
C17   C18   S    
C16   C18   D    
C15   H14   S    
C9    C11   A    
Cu1   O1    S    
C10   C12   A    
Cu2   O2    S    
C19   H16   S    
C38   H18   S    
C12   C14   A    
C9    H9    S    
C44   H34   S    
C10   H10   S    
C26   O12   S    
C24   N2    A    
C20   N4    D    
C37   H21   S    
C5    C7    A    
C7    C9    A    
H2    N3    S    
C6    H8    S    
C21   O7    A    
C39   C40   S    
C25   N1    A    
C38   H17   S    
C3    C5    A    
C42   H29   S    
C1    O3    A    
C40   H24   S    
C12   H12   S    
C41   H30   S    
C23   N1    A    
C25   C27   A    
C26   C28   A    
Cu2   O3    S    
C28   C30   A    
C37   C38   S    
C29   C31   A    
C34   C39   S    
C30   C32   A    
C11   C13   A    
C43   C44   S    
C33   C35   A    
C34   C36   A    
C4    C14   A    
C35   H3    S    
C21   O5    A    
C24   O10   S    
C22   O6    A    
C40   H22   S    
C39   H26   S    
C25   O11   S    
C8    C10   A    
C31   C36   A    
C2    O4    A    
