data_mof_unit_62871.cif
_audit_creation_date              2012-12-10T19:31:55-0500
_audit_creation_method            fapswitch 2.2
_symmetry_space_group_name_H-M    P1
_symmetry_Int_Tables_number       1
_space_group_crystal_system       triclinic
_cell_length_a                    18.611304
_cell_length_b                    18.680427
_cell_length_c                    18.79746
_cell_angle_alpha                 109.508209
_cell_angle_beta                  109.627884
_cell_angle_gamma                 109.02478
_cell_volume                      5046.36080244

loop_
_atom_site_label
_atom_site_type_symbol
_atom_type_description
_atom_site_fract_x
_atom_site_fract_y
_atom_site_fract_z
_atom_type_partial_charge
C1    C     C_R   0.379990 0.380184 0.499950 0.890541
C2    C     C_R   0.176046 0.188865 0.426600 0.138619
C3    C     C_3   0.114884 0.145169 0.331339 -0.475616
C4    C     C_R   0.622293 0.501455 0.620723 0.828787
C5    C     C_3   0.186422 0.215834 0.331198 -0.510992
C6    C     C_R   0.236317 0.428879 0.255541 0.036037
C7    C     C_R   0.316772 0.504956 0.314468 -0.129058
C8    C     C_R   0.329253 0.584399 0.315696 0.149285
C9    C     C_R   0.261874 0.582626 0.251580 -0.229368
C10   C     C_R   0.184221 0.503677 0.188214 -0.171216
C11   C     C_R   0.170267 0.428348 0.193616 0.085164
C12   C     C_3   0.808747 0.497703 0.806652 0.181774
C13   C     C_3   0.143911 0.340549 0.124610 0.012751
C14   C     C_3   0.217288 0.341399 0.193110 -0.471277
C15   C     C_R   0.678731 0.684360 0.425356 0.075964
C16   C     C_R   0.619886 0.619910 0.499952 0.871317
C17   C     C_R   0.686664 0.685601 0.501576 -0.078677
C18   C     C_R   0.761564 0.754457 0.581139 -0.222040
C19   C     C_R   0.826439 0.819277 0.581357 -0.216205
C20   C     C_R   0.814693 0.816460 0.502236 -0.128731
C21   C     C_R   0.739395 0.748240 0.425920 0.128291
C22   C     C_3   0.689692 0.709397 0.329261 0.027654
C23   C     C_3   0.833550 0.499818 0.736065 -0.396560
C24   C     C_3   0.619879 0.636221 0.329035 -0.561657
C25   C     C_R   0.998132 0.380191 0.878216 0.878503
C26   C     C_R   0.876501 0.497729 0.874484 0.830876
C27   C     C_R   0.996666 0.620258 0.116727 0.882274
C28   C     C_R   0.381212 0.502036 0.379529 0.885731
C29   C     C_R   0.118212 0.500377 0.118438 0.886640
C30   C     C_R   0.999453 0.120175 0.619310 0.880369
C31   C     C_R   0.120184 0.120285 0.500471 0.883268
C32   C     C_R   0.000339 0.879447 0.380731 0.890019
C33   C     C_R   0.879978 0.880726 0.500616 0.890005
C34   C     C_3   0.801893 0.579911 0.848860 -0.419435
C35   C     C_R   0.923418 0.246742 0.739731 0.129931
C36   C     C_R   0.000108 0.315254 0.814300 -0.094548
C37   C     C_R   0.080354 0.320193 0.824724 -0.227834
C38   C     C_R   0.080616 0.255234 0.760390 -0.217444
C39   C     C_R   0.000808 0.187238 0.684799 -0.100066
C40   C     C_3   0.648427 0.416104 0.690644 -0.413459
C41   C     C_R   0.923860 0.186315 0.676772 0.133952
C42   C     C_3   0.826674 0.137469 0.620301 -0.483473
C43   C     C_3   0.826335 0.207623 0.692329 -0.506856
C44   C     C_R   0.009783 0.763323 0.184537 0.148245
C45   C     C_R   0.238711 0.249558 0.426199 0.130458
C46   C     C_R   0.001190 0.687060 0.186038 -0.092530
C47   C     C_R   0.004958 0.679570 0.258791 -0.225900
C48   C     C_R   0.007637 0.744758 0.324943 -0.221148
C49   C     C_R   0.003621 0.815295 0.316275 -0.080541
C50   C     C_R   0.009595 0.826271 0.248388 0.106584
C51   C     C_3   0.953823 0.843171 0.184997 -0.465832
C52   C     C_3   0.718081 0.414997 0.762206 -0.376084
C53   C     C_3   0.954270 0.773791 0.114441 -0.522035
C54   C     C_3   0.764377 0.504136 0.667135 -0.399917
C55   C     C_3   0.730236 0.580936 0.779316 -0.371914
C56   C     C_R   0.316111 0.315165 0.501756 -0.091597
C57   C     C_3   0.690031 0.500997 0.688180 0.179290
C58   C     C_3   0.415032 0.669522 0.378321 -0.409684
C59   C     C_3   0.407660 0.730730 0.449670 -0.814618
C60   C     C_3   0.030174 0.187368 0.035480 -0.790597
C61   C     C_3   0.789731 0.647569 0.317872 -0.744531
C62   C     C_R   0.329833 0.316628 0.580630 -0.226330
C63   C     C_R   0.265450 0.251539 0.580672 -0.214322
C64   C     C_R   0.186689 0.186788 0.502157 -0.104077
H1    H     H_    0.620947 0.357980 0.626649 0.178637
H2    H     H_    0.167421 0.262537 0.318003 0.204634
H3    H     H_    0.593407 0.411683 0.703594 0.154390
H4    H     H_    0.271297 0.642053 0.249245 0.166186
H5    H     H_    0.152922 0.341841 0.069293 0.131620
H6    H     H_    0.194553 0.291759 0.212066 0.207690
H7    H     H_    0.271331 0.344762 0.178939 0.185523
H8    H     H_    0.770187 0.757428 0.642197 0.149120
H9    H     H_    0.884482 0.871638 0.642665 0.160706
H10   H     H_    0.666350 0.751104 0.309654 0.128218
H11   H     H_    0.556954 0.637086 0.310881 0.173207
H12   H     H_    0.865660 0.640041 0.879661 0.175017
H13   H     H_    0.697543 0.412658 0.810975 0.182867
H14   H     H_    0.613014 0.570598 0.297154 0.219291
H15   H     H_    0.141840 0.372922 0.882433 0.153058
H16   H     H_    0.142422 0.258586 0.769068 0.157890
H17   H     H_    0.805604 0.139453 0.558538 0.209612
H18   H     H_    0.796660 0.071585 0.613161 0.199188
H19   H     H_    0.805783 0.250636 0.672458 0.191574
H20   H     H_    0.795593 0.182161 0.726384 0.211631
H21   H     H_    0.003890 0.622965 0.263358 0.159938
H22   H     H_    0.007740 0.737720 0.379902 0.157636
H23   H     H_    0.795463 0.565395 0.665905 0.155728
H24   H     H_    0.887893 0.824127 0.178764 0.217379
H25   H     H_    0.722383 0.354960 0.733337 0.161546
H26   H     H_    0.989567 0.909835 0.195778 0.193049
H27   H     H_    0.888685 0.714586 0.067227 0.193487
H28   H     H_    0.990430 0.800424 0.084634 0.205587
H29   H     H_    0.737869 0.448379 0.601843 0.185316
H30   H     H_    0.837934 0.440444 0.704600 0.153723
H31   H     H_    0.758744 0.642810 0.778290 0.164139
H32   H     H_    0.678528 0.579377 0.796973 0.180480
H33   H     H_    0.785935 0.580381 0.900996 0.154219
H34   H     H_    0.898701 0.557642 0.765561 0.186750
H35   H     H_    0.356753 0.746960 0.420956 0.247929
H36   H     H_    0.390346 0.699809 0.487061 0.271182
H37   H     H_    0.471502 0.792173 0.495062 0.240408
H38   H     H_    0.470017 0.658823 0.408823 0.203229
H39   H     H_    0.433014 0.701863 0.342109 0.192135
H40   H     H_    0.009921 0.292396 0.079468 0.250824
H41   H     H_    0.966012 0.141183 0.023141 0.236424
H42   H     H_    0.078687 0.167363 0.061009 0.250552
H43   H     H_    0.022970 0.183695 0.973018 0.235258
H44   H     H_    0.691978 0.642263 0.216858 0.227270
H45   H     H_    0.389923 0.366922 0.641159 0.147797
H46   H     H_    0.815842 0.627505 0.274157 0.230995
H47   H     H_    0.753149 0.590250 0.321982 0.234710
H48   H     H_    0.846549 0.699923 0.383072 0.236429
H49   H     H_    0.276466 0.252572 0.641466 0.159299
H50   H     H_    0.104257 0.078421 0.295630 0.192539
H51   H     H_    0.054425 0.150495 0.316879 0.212471
H52   H     H_    0.216475 0.189977 0.294480 0.208140
N1    N     N_2   0.057423 0.275016 0.097941 -0.273217
N2    N     N_2   0.732784 0.679486 0.283459 -0.282942
O1    O     O_R   0.408690 0.356690 0.448570 -0.621248
O2    O     O_R   0.947510 0.091650 0.539220 -0.622836
O3    O     O_R   0.143610 0.091630 0.552030 -0.626607
O4    O     O_R   0.408080 0.460090 0.551420 -0.620020
O5    O     O_R   0.039620 0.091690 0.448080 -0.623418
O6    O     O_R   0.052490 0.908450 0.460880 -0.624543
O7    O     O_R   0.948500 0.908500 0.356930 -0.620865
O8    O     O_R   0.960380 0.908410 0.552020 -0.626980
O9    O     O_R   0.856390 0.908470 0.448070 -0.622832
O10   O     O_R   0.592400 0.448300 0.540680 -0.630061
O11   O     O_R   0.591790 0.551700 0.643540 -0.635937
O12   O     O_R   0.049530 0.460080 0.906210 -0.622920
O13   O     O_R   0.591920 0.539910 0.448580 -0.621361
O14   O     O_R   0.591310 0.643310 0.551430 -0.627102
O15   O     O_R   0.408210 0.448300 0.356460 -0.628232
O16   O     O_R   0.407600 0.551700 0.459320 -0.614722
O17   O     O_R   0.946090 0.356720 0.906270 -0.625508
O18   O     O_R   0.853510 0.448360 0.905260 -0.632836
O19   O     O_R   0.956950 0.551730 0.905200 -0.631002
O20   O     O_R   0.945130 0.540000 0.088470 -0.621845
O21   O     O_R   0.048570 0.643360 0.088400 -0.619745
O22   O     O_R   0.037700 0.448350 0.089480 -0.631336
O23   O     O_R   0.141150 0.551720 0.089410 -0.625060
O24   O     O_R   0.051500 0.091600 0.643170 -0.629297
Zn1   Zn    Zn3+2 0.500410 0.430960 0.431320 0.932474
Zn2   Zn    Zn3+2 0.499590 0.569040 0.568680 0.938060
Zn3   Zn    Zn3+2 0.928260 0.431020 0.997380 0.929280
Zn4   Zn    Zn3+2 0.066400 0.569060 0.997290 0.937125
Zn5   Zn    Zn3+2 0.069430 0.000010 0.569450 0.942392
Zn6   Zn    Zn3+2 0.930570 0.000090 0.430650 0.940358

loop_
_geom_bond_atom_site_label_1
_geom_bond_atom_site_label_2
_ccdc_geom_bond_type
O14   Zn2   S    
O21   Zn4   S    
C59   H36   S    
O12   Zn4   S    
C43   H19   S    
C14   H7    S    
C32   O6    A    
C35   C36   A    
C42   H18   S    
O4    Zn2   S    
C26   O19   A    
C60   H42   S    
C7    C8    A    
C39   C41   A    
O11   Zn2   S    
C37   H15   S    
C12   C23   S    
C62   C63   A    
C38   H16   S    
C28   O16   A    
C47   H21   S    
C36   C37   A    
C1    C56   S    
C51   H26   S    
C1    O1    A    
C38   C39   A    
C25   O12   A    
O20   Zn3   S    
C33   O9    A    
C34   H33   S    
C59   H35   S    
C22   N2    S    
C18   C19   A    
C41   C42   S    
C16   O13   A    
C1    O4    A    
C54   H29   S    
C8    C58   S    
C44   C53   S    
C19   C20   A    
C45   C56   A    
C2    C64   A    
C16   C17   S    
O17   Zn3   S    
C40   H3    S    
C4    C57   S    
C53   H27   S    
O3    Zn5   S    
C58   H38   S    
C35   C43   S    
C9    C10   A    
O18   Zn3   S    
O9    Zn6   S    
C34   C55   S    
C21   C22   S    
C43   H20   S    
C14   H6    S    
C52   H25   S    
C42   H17   S    
C35   C41   A    
C61   H46   S    
O24   Zn5   S    
C12   C52   S    
C44   C46   A    
C50   C51   S    
C2    C45   A    
C18   H8    S    
O1    Zn1   S    
O6    Zn5   S    
O15   Zn1   S    
C27   O20   A    
C4    O10   A    
C28   O15   A    
C59   H37   S    
H44   N2    S    
O19   Zn4   S    
C19   H9    S    
C31   O3    A    
C55   H31   S    
C6    C11   A    
C8    C9    A    
C48   H22   S    
C58   C59   S    
C40   C52   S    
C5    C45   S    
C3    H50   S    
C27   O21   A    
C7    C28   S    
C12   C26   S    
C51   C53   S    
C32   O7    A    
C51   H24   S    
C37   C38   A    
C6    C14   S    
C47   C48   A    
C29   O23   A    
C53   H28   S    
C17   C18   A    
C60   N1    S    
O5    Zn6   S    
C6    C7    A    
C60   H43   S    
O23   Zn4   S    
C20   C33   S    
C27   C46   S    
C24   H14   S    
C48   C49   A    
O2    Zn6   S    
C40   H1    S    
C55   C57   S    
C5    H52   S    
C22   C24   S    
C42   C43   S    
C22   H10   S    
C12   C34   S    
C52   H13   S    
C61   H47   S    
O13   Zn1   S    
C23   C54   S    
H40   N1    S    
C44   C50   A    
C15   C17   A    
C29   O22   A    
C46   C47   A    
C15   C24   S    
C40   C57   S    
C61   N2    S    
C31   C64   S    
C55   H32   S    
C3    C5    S    
O7    Zn6   S    
O22   Zn3   S    
C13   N1    S    
O8    Zn5   S    
C24   H11   S    
C4    O11   A    
C30   O24   A    
C23   H30   S    
C13   H5    S    
C2    C3    S    
C9    H4    S    
C31   O5    A    
C3    H51   S    
C5    H2    S    
C11   C13   S    
C10   C29   S    
C54   H23   S    
C62   H45   S    
C30   O2    A    
C33   O8    A    
C30   C39   S    
C56   C62   A    
C16   O14   A    
O10   Zn1   S    
C32   C49   S    
C26   O18   A    
C10   C11   A    
C25   C36   S    
O16   Zn2   S    
C63   C64   A    
C63   H49   S    
C15   C21   A    
C23   H34   S    
C20   C21   A    
C49   C50   A    
C25   O17   A    
C58   H39   S    
C13   C14   S    
C61   H48   S    
C60   H41   S    
C34   H12   S    
C54   C57   S    
