data_mof_unit_55322.cif
_audit_creation_date              2012-10-26T20:40:13-0400
_audit_creation_method            fapswitch 2.2
_symmetry_space_group_name_H-M    P1
_symmetry_Int_Tables_number       1
_space_group_crystal_system       triclinic
_cell_length_a                    15.080277
_cell_length_b                    10.865401
_cell_length_c                    9.568031
_cell_angle_alpha                 90.429848
_cell_angle_beta                  90.005084
_cell_angle_gamma                 92.58064
_cell_volume                      1566.11887172

loop_
_atom_site_label
_atom_site_type_symbol
_atom_type_description
_atom_site_fract_x
_atom_site_fract_y
_atom_site_fract_z
_atom_type_partial_charge
C1    C     C_R   0.507166 0.263108 0.500255 0.551890
C2    C     C_R   0.185281 0.501539 0.372894 -0.137729
C3    C     C_R   0.231699 0.500958 0.500026 -0.013719
C4    C     C_R   0.328628 0.499920 0.500012 0.556466
C5    C     C_R   0.185308 0.501803 0.627180 -0.138214
C6    C     C_R   0.560086 0.123383 0.753824 -0.094730
C7    C     C_R   0.550961 0.065815 0.882899 -0.131536
C8    C     C_R   0.507377 0.950907 0.891252 -0.125379
C9    C     C_R   0.481217 0.888361 0.769287 -0.097563
C10   C     C_R   0.499222 0.939942 0.635723 0.024432
C11   C     C_R   0.525672 0.065812 0.630517 0.026228
C12   C     C_R   0.907126 0.504019 0.628119 0.012091
C13   C     C_R   0.515346 0.129386 0.502796 -0.008579
C14   C     C_R   0.500705 0.062901 0.378528 -0.162044
C15   C     C_R   0.493220 0.935727 0.380240 -0.163302
C16   C     C_R   0.495320 0.737679 0.501642 0.537363
C17   C     C_R   0.492196 0.872422 0.507297 -0.007705
C18   C     C_R   0.618533 0.663534 0.145569 -0.099633
C19   C     C_R   0.676603 0.742990 0.073728 -0.182880
C20   C     C_R   0.676692 0.742713 0.929763 -0.170925
C21   C     C_R   0.618570 0.663172 0.856835 -0.094831
C22   C     C_R   0.558271 0.580337 0.925725 0.145390
C23   C     C_R   0.953786 0.503768 0.245305 -0.132892
C24   C     C_R   0.558244 0.580394 0.075504 0.153163
C25   C     C_R   0.444806 0.423277 0.073331 -0.013026
C26   C     C_R   0.444825 0.423317 0.925221 -0.013187
C27   C     C_R   0.671364 0.500929 0.500007 0.535598
C28   C     C_R   0.814720 0.503543 0.627220 -0.142903
C29   C     C_R   0.768300 0.502645 0.500048 -0.015373
C30   C     C_R   0.814710 0.503384 0.372900 -0.140913
C31   C     C_R   0.907110 0.503818 0.372013 0.011868
C32   C     C_R   0.953552 0.503821 0.500065 0.061725
C33   C     C_R   0.046222 0.503174 0.245302 -0.132704
C34   C     C_R   0.092916 0.502713 0.372007 0.012358
C35   C     C_R   0.046507 0.503274 0.500058 0.061401
C36   C     C_R   0.092942 0.502965 0.628097 0.012462
C37   C     C_R   0.046269 0.503660 0.754814 -0.132710
C38   C     C_R   0.953829 0.504214 0.754825 -0.133002
Cu1   Cu    Cu3+1 0.499990 0.499990 0.640660 0.906784
Cu2   Cu    Cu3+1 0.500010 0.500010 0.359340 0.919566
H1    H     H_    0.779096 0.503480 0.725673 0.128487
H2    H     H_    0.721778 0.805147 0.873823 0.127624
H3    H     H_    0.623566 0.671689 0.746784 0.188941
H4    H     H_    0.779082 0.503207 0.274436 0.130075
H5    H     H_    0.399678 0.360478 0.869143 0.121913
H6    H     H_    0.918810 0.503893 0.146347 0.104118
H7    H     H_    0.081166 0.502875 0.146334 0.101487
H8    H     H_    0.220873 0.501011 0.274437 0.125162
H9    H     H_    0.220923 0.501491 0.725627 0.124575
H10   H     H_    0.081233 0.503566 0.853776 0.101462
H11   H     H_    0.918870 0.504514 0.853787 0.104001
H12   H     H_    0.595795 0.211836 0.751957 0.146724
H13   H     H_    0.494858 0.109124 0.279219 0.134007
H14   H     H_    0.575346 0.112035 0.976863 0.112124
H15   H     H_    0.495417 0.908864 0.992161 0.115366
H16   H     H_    0.444067 0.802230 0.783103 0.152652
H17   H     H_    0.486593 0.887026 0.281293 0.136212
H18   H     H_    0.399623 0.360451 0.128275 0.114263
H19   H     H_    0.624197 0.671696 0.255722 0.186193
H20   H     H_    0.721818 0.805406 0.130521 0.123438
N1    N     N_R   0.500860 0.501210 0.147910 -0.244140
N2    N     N_R   0.500890 0.501290 0.852040 -0.250959
O1    O     O_R   0.499990 0.319640 0.618810 -0.508309
O2    O     O_R   0.500000 0.319660 0.381240 -0.502175
O3    O     O_R   0.370250 0.499960 0.618800 -0.504806
O4    O     O_R   0.370260 0.499980 0.381230 -0.502276
O5    O     O_R   0.500000 0.680340 0.618760 -0.534847
O6    O     O_R   0.500010 0.680360 0.381190 -0.522482
O7    O     O_R   0.629740 0.500020 0.618770 -0.529165
O8    O     O_R   0.629750 0.500040 0.381200 -0.522972

loop_
_geom_bond_atom_site_label_1
_geom_bond_atom_site_label_2
_ccdc_geom_bond_type
C1    C13   S    
C20   H2    S    
C32   C35   A    
C6    C7    A    
C16   O6    A    
C19   H20   S    
C27   C29   S    
C15   H17   S    
C9    C10   A    
C28   H1    S    
C31   C32   A    
Cu2   O2    S    
Cu1   N2    S    
C3    C5    A    
C30   H4    S    
C5    C36   A    
C2    C34   A    
C26   H5    S    
C14   C15   A    
C33   C34   A    
C26   N2    A    
C7    C8    A    
C9    H16   S    
C25   N1    A    
C13   C14   A    
C12   C32   A    
C4    O4    A    
C37   H10   S    
Cu1   O3    S    
C5    H9    S    
C29   C30   A    
C27   O8    A    
Cu2   O8    S    
C12   C28   A    
C24   N1    A    
C18   C24   A    
C1    O1    A    
C8    H15   S    
C36   C37   A    
C37   C38   A    
C23   H6    S    
C2    C3    A    
Cu1   O7    S    
C30   C31   A    
C33   H7    S    
C22   C24   A    
C12   C38   A    
C22   N2    A    
C25   H18   S    
C10   C17   A    
Cu2   O6    S    
C3    C4    S    
Cu1   Cu2   S    
C1    O2    A    
C6    H12   S    
C18   H19   S    
C11   C13   A    
C14   H13   S    
Cu1   O1    S    
C20   C21   A    
C34   C35   A    
C10   C11   A    
C6    C11   A    
C15   C17   A    
C18   C19   A    
C4    O3    A    
C28   C29   A    
Cu2   O4    S    
C38   H11   S    
C7    H14   S    
C2    H8    S    
C25   C26   A    
C21   C22   A    
C16   O5    A    
Cu1   O5    S    
C21   H3    S    
Cu2   N1    S    
C19   C20   A    
C16   C17   S    
C23   C31   A    
C8    C9    A    
C23   C33   A    
C35   C36   A    
C27   O7    A    
