data_mof_unit_59531.cif
_audit_creation_date              2012-12-11T15:47:11-0500
_audit_creation_method            fapswitch 2.2
_symmetry_space_group_name_H-M    P1
_symmetry_Int_Tables_number       1
_space_group_crystal_system       triclinic
_cell_length_a                    20.070251
_cell_length_b                    7.266528
_cell_length_c                    13.921688
_cell_angle_alpha                 89.999558
_cell_angle_beta                  103.607043
_cell_angle_gamma                 90.000103
_cell_volume                      1973.36568738

loop_
_atom_site_label
_atom_site_type_symbol
_atom_type_description
_atom_site_fract_x
_atom_site_fract_y
_atom_site_fract_z
_atom_type_partial_charge
O1    O     O_R   0.449560 0.506810 0.599700 -0.535870
O2    O     O_R   0.550440 0.006810 0.400300 -0.535873
O3    O     O_R   0.587960 0.180060 0.595760 -0.547802
O4    O     O_R   0.412040 0.680060 0.404240 -0.547805
C1    C     C_R   0.615493 0.344171 0.615418 0.737585
C2    C     C_R   0.384507 0.844171 0.384583 0.737579
O5    O     O_R   0.452380 0.177430 0.611700 -0.538617
O6    O     O_R   0.547620 0.677430 0.388300 -0.538618
O7    O     O_R   0.413900 0.001890 0.416350 -0.538377
O8    O     O_R   0.586100 0.501890 0.583650 -0.538371
C3    C     C_R   0.436305 0.346312 0.635857 0.739474
C4    C     C_R   0.563693 0.846314 0.364140 0.739475
O9    O     O_3   0.487530 0.337490 0.435890 -0.377916
O10   O     O_3   0.512470 0.837490 0.564110 -0.377906
V1    V     V_3+5 0.502310 0.064660 0.511890 1.517204
V2    V     V_3+5 0.497690 0.564660 0.488110 1.517199
C5    C     C_R   0.601523 0.954566 0.121171 -0.084995
C6    C     C_R   0.398463 0.454613 0.878811 -0.084997
H1    H     H_    0.572255 0.995754 0.049048 0.210335
H2    H     H_    0.427728 0.495821 0.950933 0.210334
C7    C     C_R   0.599880 0.861776 0.286028 -0.083931
C8    C     C_R   0.400114 0.361769 0.713967 -0.083930
C9    C     C_R   0.926894 0.837884 0.304901 -0.153425
C10   C     C_R   0.073097 0.337805 0.695092 -0.153425
C11   C     C_R   0.892767 0.836091 0.380589 -0.104900
C12   C     C_R   0.107224 0.335950 0.619405 -0.104899
C13   C     C_R   0.821862 0.852533 0.359728 -0.120624
C14   C     C_R   0.178129 0.352403 0.640262 -0.120627
C15   C     C_R   0.782583 0.868372 0.261271 0.064767
C16   C     C_R   0.217408 0.368330 0.738715 0.064766
C17   C     C_R   0.817368 0.871856 0.182706 -0.026022
C18   C     C_R   0.182621 0.371865 0.817277 -0.026016
C19   C     C_R   0.709534 0.880241 0.238927 0.037458
C20   C     C_R   0.290457 0.380227 0.761058 0.037463
C21   C     C_R   0.673180 0.930029 0.142129 -0.012631
C22   C     C_R   0.326807 0.430077 0.857849 -0.012623
C23   C     C_R   0.708012 0.943634 0.066472 0.276422
C24   C     C_R   0.291969 0.443745 0.933498 0.276408
C25   C     C_R   0.776978 0.890325 0.084473 0.048867
C26   C     C_R   0.223008 0.390398 0.915506 0.048883
C27   C     C_R   0.671100 0.842218 0.309521 -0.238377
C28   C     C_R   0.328895 0.342182 0.690473 -0.238371
C29   C     C_R   0.565120 0.921800 0.192449 0.243183
C30   C     C_R   0.434870 0.421820 0.807541 0.243190
C31   C     C_R   0.890811 0.857309 0.206481 -0.044921
C32   C     C_R   0.109180 0.357300 0.793508 -0.044922
H3    H     H_    0.694844 0.795466 0.383184 0.110266
H4    H     H_    0.305156 0.295399 0.616814 0.110260
H5    H     H_    0.982336 0.827175 0.323444 0.121750
H6    H     H_    0.017655 0.327075 0.676553 0.121749
H7    H     H_    0.799346 0.857772 0.422741 0.127768
H8    H     H_    0.200645 0.357576 0.577248 0.127772
H9    H     H_    0.921671 0.824300 0.456516 0.145382
H10   H     H_    0.078321 0.324097 0.543481 0.145382
C33   C     C_R   0.204274 0.007408 0.262244 0.296019
C34   C     C_R   0.795727 0.507407 0.737752 0.296029
C35   C     C_R   0.271559 0.003920 0.320886 -0.147033
C36   C     C_R   0.728441 0.503919 0.679112 -0.147013
H11   H     H_    0.289889 0.119510 0.369003 0.140651
H12   H     H_    0.710112 0.619507 0.630992 0.140652
C37   C     C_R   0.313945 0.850212 0.320893 -0.091347
C38   C     C_R   0.686054 0.350213 0.679108 -0.091359
C39   C     C_R   0.286814 0.697018 0.263850 -0.066162
C40   C     C_R   0.713184 0.197022 0.736156 -0.066188
H13   H     H_    0.316829 0.572801 0.265513 0.183297
H14   H     H_    0.683170 0.072805 0.734494 0.183317
C41   C     C_R   0.221179 0.702906 0.202020 -0.116116
C42   C     C_R   0.778818 0.202913 0.797988 -0.116147
H15   H     H_    0.203096 0.584895 0.157247 0.196149
H16   H     H_    0.796901 0.084906 0.842765 0.196142
C43   C     C_R   0.179599 0.859185 0.196739 -0.105166
C44   C     C_R   0.820400 0.359187 0.803262 -0.105165
O11   O     O_R   0.913920 0.203370 0.916260 -0.541809
O12   O     O_R   0.086080 0.703370 0.083740 -0.541805
O13   O     O_R   0.047620 0.535540 0.888290 -0.536744
O14   O     O_R   0.952380 0.035540 0.111710 -0.536746
C45   C     C_R   0.067041 0.368412 0.866829 0.709268
C46   C     C_R   0.932955 0.868413 0.133165 0.709267
O15   O     O_R   0.912040 0.532780 0.904220 -0.504240
O16   O     O_R   0.087960 0.032780 0.095780 -0.504240
O17   O     O_R   0.949550 0.708160 0.099720 -0.533815
O18   O     O_R   0.050450 0.208160 0.900280 -0.533814
C47   C     C_R   0.887303 0.364817 0.878397 0.729596
C48   C     C_R   0.112697 0.864817 0.121603 0.729606
O19   O     O_3   0.012480 0.375300 0.064060 -0.362915
O20   O     O_3   0.987520 0.875300 0.935940 -0.362917
V3    V     V_3+5 0.997690 0.648180 0.988110 1.581501
V4    V     V_3+5 0.002310 0.148180 0.011890 1.581494
Br1   Br    Br    0.467503 0.958348 0.158460 -0.443881
Br2   Br    Br    0.532488 0.458372 0.841536 -0.443878
Br3   Br    Br    0.659783 0.019985 0.935067 -0.485487
Br4   Br    Br    0.340182 0.520229 0.064883 -0.485494
I1    I     I_    0.803984 0.770240 0.961247 -0.295409
I2    I     I_    0.196025 0.270259 0.038739 -0.295386
Br5   Br    Br    0.148089 0.210939 0.283595 -0.578428
Br6   Br    Br    0.851914 0.710926 0.716394 -0.578415

loop_
_geom_bond_atom_site_label_1
_geom_bond_atom_site_label_2
_ccdc_geom_bond_type
C36   C38   A    
O15   C47   A    
C39   H13   S    
C9    C31   A    
C15   C19   A    
C13   C15   A    
O1    C3    A    
O16   C48   A    
O2    C4    A    
C2    O7    A    
O15   V3    S    
O3    V1    S    
O5    C3    A    
C29   Br1   S    
C40   C42   A    
C2    C37   S    
C21   C23   A    
C10   C12   A    
C35   H11   S    
C36   H12   S    
C24   Br4   S    
C37   C39   A    
C25   I1    S    
C38   C40   A    
C19   C21   A    
C7    C29   A    
C8    C30   A    
C17   C25   A    
C34   C44   A    
C20   C28   A    
C31   C46   S    
O12   V3    S    
C16   C18   A    
O14   V4    S    
C41   C43   A    
C42   C44   A    
O5    V1    S    
O6    V2    S    
C11   H9    S    
C12   H10   S    
C13   H7    S    
C10   H6    S    
C23   C25   A    
C39   C41   A    
C23   Br3   S    
O14   C46   A    
O4    C2    A    
C26   I2    S    
C16   C20   A    
O20   V3    S    
C4    C7    S    
C41   H15   S    
C40   H14   S    
O4    V2    S    
C5    C29   A    
O11   V4    S    
C6    C30   A    
O6    C4    A    
C27   H3    S    
O1    V2    S    
C28   H4    S    
O2    V1    S    
O13   C45   A    
O17   V3    S    
C7    C27   A    
C33   Br5   S    
C33   C35   A    
C30   Br2   S    
C43   C48   S    
O19   V4    S    
O13   V3    S    
C34   Br6   S    
C18   C32   A    
O12   C48   A    
O3    C1    A    
C32   C45   S    
C35   C37   A    
C11   C13   A    
C3    C8    S    
C12   C14   A    
C19   C27   A    
C22   C24   A    
O7    V1    S    
C10   C32   A    
C1    O8    A    
C15   C17   A    
O8    V2    S    
C24   C26   A    
C14   H8    S    
C46   O17   A    
C8    C28   A    
C45   O18   A    
O18   V4    S    
C14   C16   A    
C5    H1    S    
C20   C22   A    
C34   C36   A    
C1    C38   S    
C6    H2    S    
C18   C26   A    
C44   C47   S    
C9    H5    S    
C9    C11   A    
O16   V4    S    
C17   C31   A    
O9    V2    S    
C42   H16   S    
O10   V1    S    
C5    C21   A    
C6    C22   A    
O11   C47   A    
C33   C43   A    
