data_mof_unit_33895.cif
_audit_creation_date              2012-10-26T21:05:39-0400
_audit_creation_method            fapswitch 2.2
_symmetry_space_group_name_H-M    P1
_symmetry_Int_Tables_number       1
_space_group_crystal_system       triclinic
_cell_length_a                    12.897003
_cell_length_b                    9.073366
_cell_length_c                    7.827927
_cell_angle_alpha                 90.077782
_cell_angle_beta                  94.249413
_cell_angle_gamma                 89.536413
_cell_volume                      913.46962859

loop_
_atom_site_label
_atom_site_type_symbol
_atom_type_description
_atom_site_fract_x
_atom_site_fract_y
_atom_site_fract_z
_atom_type_partial_charge
Br1   Br    Br    0.087853 0.163634 0.280820 -0.198028
Br2   Br    Br    0.928771 0.256407 0.847919 -0.220771
C1    C     C_R   0.498671 0.220249 0.499846 0.580592
C2    C     C_R   0.871000 0.514283 0.693450 0.207233
C3    C     C_R   0.135686 0.424942 0.624269 0.237994
C4    C     C_R   0.866268 0.384730 0.420423 0.209846
C5    C     C_R   0.025940 0.411996 0.605645 -0.056216
C6    C     C_R   0.976507 0.381362 0.441655 -0.063723
C7    C     C_1   0.498815 0.065464 0.499905 0.041899
C8    C     C_1   0.499238 0.934557 0.500076 0.033146
C9    C     C_R   0.499758 0.779772 0.500050 0.573478
C10   C     C_R   0.299474 0.491029 0.473263 0.581434
C11   C     C_R   0.700289 0.492739 0.528728 0.607154
C12   C     C_R   0.813485 0.468161 0.543146 -0.060466
C13   C     C_R   0.186855 0.458709 0.471745 -0.032410
C14   C     C_R   0.040844 0.363913 0.306417 0.250313
C15   C     C_R   0.962588 0.437426 0.739877 0.264242
C16   C     C_R   0.125852 0.459891 0.315585 0.180073
Cu1   Cu    Cu3+1 0.500010 0.500000 0.669080 1.202564
Cu2   Cu    Cu3+1 0.499990 0.500000 0.330920 1.189718
H1    H     H_    0.816963 0.071370 0.126179 0.383314
H2    H     H_    0.336803 0.267383 0.926659 0.364700
H3    H     H_    0.818922 0.752107 0.052898 0.369170
H4    H     H_    0.962377 0.695175 0.329397 0.341621
N1    N     N_1   0.499980 0.500000 0.076820 -0.041489
N2    N     N_1   0.500020 0.500000 0.923180 -0.035404
O1    O     O_R   0.500000 0.288400 0.642760 -0.495121
O2    O     O_2   0.760598 0.371276 0.111388 -0.203865
O3    O     O_3   0.867250 0.134610 0.193434 -0.410929
O4    O     O_2   0.248733 0.542913 0.893179 -0.208480
O5    O     O_2   0.137294 0.339165 0.959764 -0.211458
O6    O     O_3   0.301667 0.275845 0.810143 -0.493183
O7    O     O_2   0.941127 0.778781 0.792132 -0.168859
O8    O     O_2   0.755812 0.765226 0.705151 -0.281427
O9    O     O_3   0.821142 0.653133 0.999637 -0.453875
O10   O     O_2   0.207355 0.711421 0.202777 -0.175544
O11   O     O_2   0.050560 0.618193 0.045575 -0.169570
O12   O     O_R   0.500000 0.711600 0.357240 -0.498374
O13   O     O_3   0.032640 0.738903 0.342502 -0.448417
O14   O     O_R   0.500000 0.288400 0.357240 -0.487612
O15   O     O_R   0.500000 0.711600 0.642760 -0.484783
O16   O     O_R   0.349000 0.500000 0.619590 -0.446982
O17   O     O_R   0.651000 0.500000 0.380410 -0.457234
O18   O     O_R   0.348990 0.500000 0.334020 -0.475995
O19   O     O_R   0.651010 0.500000 0.665980 -0.458222
O20   O     O_2   0.703838 0.210713 0.336768 -0.299017
S1    S     S_3+6 0.796609 0.276014 0.261267 0.092874
S2    S     S_3+6 0.204641 0.398462 0.829321 0.105378
S3    S     S_3+6 0.846117 0.684240 0.795193 0.098653
S4    S     S_3+6 0.105848 0.634680 0.219560 0.122059

loop_
_geom_bond_atom_site_label_1
_geom_bond_atom_site_label_2
_ccdc_geom_bond_type
O9    S3    S    
C9    O12   A    
C4    C6    A    
Cu1   O19   S    
O2    S1    D    
C1    C7    S    
C4    C12   A    
Cu2   O12   S    
C7    C8    T    
C13   C16   A    
Cu1   Cu2   S    
C10   C13   S    
C2    S3    S    
C8    C9    S    
O13   S4    S    
C6    C14   A    
C1    O1    A    
O10   S4    D    
C5    C6    A    
C10   O18   A    
Br1   C14   S    
C11   C12   S    
Br2   C15   S    
C11   O19   A    
O11   S4    D    
O6    S2    S    
Cu1   O16   S    
H2    O6    S    
O3    S1    S    
C2    C15   A    
O4    S2    D    
Cu2   O18   S    
C1    O14   A    
C9    O15   A    
H3    O9    S    
O5    S2    D    
C2    C12   A    
Cu2   O14   S    
C3    S2    S    
C3    C13   A    
C4    S1    S    
O7    S3    D    
C11   O17   A    
Cu2   O17   S    
Cu1   O1    S    
C16   S4    S    
C14   C16   A    
Cu2   N1    S    
C3    C5    A    
Cu1   N2    S    
O20   S1    D    
O8    S3    D    
C10   O16   A    
N1    N2    T    
H1    O3    S    
H4    O13   S    
Cu1   O15   S    
C5    C15   A    
