data_mof_unit_39660.cif
_audit_creation_date              2012-12-10T17:46:59-0500
_audit_creation_method            fapswitch 2.2
_symmetry_space_group_name_H-M    P1
_symmetry_Int_Tables_number       1
_space_group_crystal_system       triclinic
_cell_length_a                    9.999523
_cell_length_b                    10.669248
_cell_length_c                    13.613136
_cell_angle_alpha                 92.601715
_cell_angle_beta                  83.818208
_cell_angle_gamma                 86.852011
_cell_volume                      1439.79915709

loop_
_atom_site_label
_atom_site_type_symbol
_atom_type_description
_atom_site_fract_x
_atom_site_fract_y
_atom_site_fract_z
_atom_type_partial_charge
C1    C     C_R   0.496567 0.739623 0.492524 0.953164
C2    C     C_R   0.600418 0.929687 0.436928 0.116216
C3    C     C_R   0.608783 0.057833 0.451872 -0.152528
C4    C     C_R   0.476748 0.499569 0.685155 0.915380
C5    C     C_R   0.507191 0.127588 0.512490 -0.112109
C6    C     C_R   0.834389 0.575977 0.673649 0.194775
C7    C     C_R   0.880591 0.536360 0.761321 -0.237117
C8    C     C_R   0.016898 0.500348 0.760151 -0.292429
C9    C     C_R   0.103171 0.544638 0.682958 0.459810
C10   C     C_R   0.057352 0.532527 0.586880 0.019015
C11   C     C_R   0.913879 0.538851 0.584441 0.177196
C12   C     C_1   0.460824 0.502865 0.788703 -0.128054
C13   C     C_R   0.942860 0.467751 0.417482 -0.090573
C14   C     C_R   0.085173 0.469757 0.417079 -0.103258
C15   C     C_R   0.502529 0.260843 0.505847 0.846782
C16   C     C_R   0.523498 0.497639 0.314781 0.879726
C17   C     C_1   0.540502 0.483738 0.211318 -0.177597
C18   C     C_2   0.554358 0.457753 0.019822 0.106577
C19   C     C_2   0.450138 0.509681 0.980158 -0.163426
C20   C     C_1   0.451504 0.506496 0.876359 0.087103
C21   C     C_1   0.551325 0.470167 0.123818 -0.050390
C22   C     C_R   0.238416 0.912258 0.525960 -0.174857
C23   C     C_R   0.131639 0.990190 0.574175 0.544196
C24   C     C_R   0.159026 0.098818 0.627244 -0.195520
C25   C     C_R   0.289575 0.138796 0.619134 -0.217617
C26   C     C_R   0.392373 0.071372 0.555240 0.084899
C27   C     C_R   0.372556 0.948734 0.523037 0.004107
C28   C     C_R   0.486800 0.873444 0.480171 -0.138179
H1    H     H_    0.365466 0.558729 0.025641 0.150139
H2    H     H_    0.789768 0.762583 0.676433 0.283658
H3    H     H_    0.676491 0.685424 0.745155 0.167616
H4    H     H_    0.207288 0.765159 0.869859 0.381680
H5    H     H_    0.754240 0.433373 0.977768 0.183367
H6    H     H_    0.672401 0.299644 0.982892 0.199663
H7    H     H_    0.794114 0.871924 0.392031 0.261106
H8    H     H_    0.697792 0.894948 0.299872 0.166695
H9    H     H_    0.993497 0.799860 0.453296 0.331171
H10   H     H_    0.817979 0.550704 0.831251 0.176515
H11   H     H_    0.053620 0.483935 0.830739 0.205899
H12   H     H_    0.149111 0.443476 0.349295 0.152127
H13   H     H_    0.214366 0.830012 0.484054 0.171272
H14   H     H_    0.078205 0.157881 0.667918 0.176033
H15   H     H_    0.307033 0.227622 0.655910 0.161927
H16   H     H_    0.690992 0.103535 0.412426 0.188491
H17   H     H_    0.901693 0.439742 0.350131 0.145457
N1    N     N_R   0.857120 0.501200 0.500900 -0.103442
N2    N     N_R   0.142720 0.501280 0.500940 -0.122225
N3    N     N_3   0.737191 0.680814 0.677367 -0.349052
N4    N     N_3   0.666503 0.392177 0.960811 -0.442085
N5    N     N_3   0.699398 0.858350 0.369720 -0.435452
O1    O     O_R   0.385310 0.683220 0.500000 -0.595575
O2    O     O_2   0.043403 0.789888 0.726292 -0.273513
O3    O     O_3   0.185822 0.679637 0.847561 -0.596827
O4    O     O_2   0.873648 0.995694 0.650768 -0.261887
O5    O     O_2   0.922632 0.044137 0.477452 -0.373003
O6    O     O_3   0.950982 0.810216 0.522529 -0.568155
O7    O     O_R   0.614640 0.683250 0.500010 -0.561675
O8    O     O_R   0.368830 0.499960 0.640340 -0.597497
O9    O     O_R   0.598160 0.499980 0.640350 -0.613654
O10   O     O_R   0.385360 0.316750 0.499990 -0.621597
O11   O     O_R   0.614690 0.316780 0.500000 -0.598717
O12   O     O_R   0.401840 0.500020 0.359650 -0.626410
O13   O     O_R   0.631170 0.500040 0.359660 -0.619741
O14   O     O_2   0.280269 0.734576 0.673080 -0.306522
S1    S     S_3+6 0.155937 0.691541 0.728897 0.022941
S2    S     S_3+6 0.964363 0.961982 0.556891 0.006642
Zn1   Zn    Zn3+2 0.346870 0.499980 0.499990 0.980641
Zn2   Zn    Zn3+2 0.653130 0.500020 0.500010 0.998695

loop_
_geom_bond_atom_site_label_1
_geom_bond_atom_site_label_2
_ccdc_geom_bond_type
C1    C28   S    
C23   C24   A    
N1    Zn2   S    
C6    C7    A    
O4    S2    D    
C16   O13   A    
C1    O7    A    
O9    Zn2   S    
C4    C12   S    
C18   C21   S    
C24   H14   S    
C9    C10   A    
O8    Zn1   S    
C19   C20   S    
C22   C27   A    
O14   S1    D    
C25   H15   S    
H7    N5    S    
C2    C3    A    
C15   O11   A    
C7    C8    A    
O1    Zn1   S    
C13   C14   A    
C13   H17   S    
O3    S1    S    
C1    O1    A    
O11   Zn2   S    
C12   C20   T    
C26   C27   A    
C14   N2    A    
C6    N3    S    
O12   Zn1   S    
O6    S2    S    
C4    O9    A    
H2    N3    S    
C8    H11   S    
C7    H10   S    
C11   N1    A    
C18   N4    S    
H3    N3    S    
C13   N1    A    
C9    S1    S    
C3    H16   S    
C5    C15   S    
C22   H13   S    
C10   C11   A    
O7    Zn2   S    
H5    N4    S    
C5    C26   A    
C19   H1    S    
C3    C5    A    
H4    O3    S    
C10   N2    A    
O5    S2    D    
H8    N5    S    
C24   C25   A    
C23   S2    S    
C18   C19   D    
C15   O10   A    
N2    Zn1   S    
C6    C11   A    
O13   Zn2   S    
C16   C17   S    
H6    N4    S    
C2    C28   A    
C2    N5    S    
C4    O8    A    
C25   C26   A    
C22   C23   A    
H9    O6    S    
C14   H12   S    
C16   O12   A    
C17   C21   T    
O2    S1    D    
O10   Zn1   S    
C8    C9    A    
C27   C28   A    
