data_mof_unit_43278.cif
_audit_creation_date              2013-03-05T15:52:29-0500
_audit_creation_method            fapswitch 2.2
_symmetry_space_group_name_H-M    P1
_symmetry_Int_Tables_number       1
_space_group_crystal_system       triclinic
_cell_length_a                    18.477803
_cell_length_b                    18.397325
_cell_length_c                    42.841792
_cell_angle_alpha                 89.263727
_cell_angle_beta                  90.287639
_cell_angle_gamma                 90.264203
_cell_volume                      14562.1942443

loop_
_atom_site_label
_atom_site_type_symbol
_atom_site_description
_atom_site_fract_x
_atom_site_fract_y
_atom_site_fract_z
_atom_type_partial_charge
Zn1   Zn    Zn3+2 0.000000 0.586740 0.775960 1.030211
Zn2   Zn    Zn3+2 1.000000 0.413260 0.224040 0.983637
Zn3   Zn    Zn3+2 0.413260 1.000000 0.775960 1.026390
Zn4   Zn    Zn3+2 0.586740 1.000000 0.224040 0.967703
Zn5   Zn    Zn3+2 0.000000 0.413260 0.775960 1.012084
Zn6   Zn    Zn3+2 0.000000 0.586740 0.224040 0.969708
Zn7   Zn    Zn3+2 0.586740 1.000000 0.775960 1.028461
Zn8   Zn    Zn3+2 0.413260 1.000000 0.224040 0.975325
Zn9   Zn    Zn3+2 0.500000 0.086740 0.275960 1.031799
Zn10  Zn    Zn3+2 0.500000 0.913260 0.724040 0.972674
Zn11  Zn    Zn3+2 0.913260 0.500000 0.275960 1.014202
Zn12  Zn    Zn3+2 0.086740 0.500000 0.724040 0.986666
Zn13  Zn    Zn3+2 0.500000 0.913260 0.275960 1.034707
Zn14  Zn    Zn3+2 0.500000 0.086740 0.724040 0.983763
Zn15  Zn    Zn3+2 0.086740 0.500000 0.275960 1.038612
Zn16  Zn    Zn3+2 0.913260 0.500000 0.724040 0.985142
O1    O     O_3   1.000000 0.500000 0.750000 -0.517321
O2    O     O_3   1.000000 0.500000 0.250000 -0.514294
O3    O     O_3   0.500000 1.000000 0.750000 -0.501586
O4    O     O_3   0.500000 0.000000 0.250000 -0.503505
O5    O     O_R   0.060770 0.500000 0.680670 -0.628270
O6    O     O_R   0.939230 0.500000 0.319330 -0.614624
O7    O     O_R   0.500000 0.060770 0.680670 -0.685758
O8    O     O_R   0.500000 0.939230 0.319330 -0.609887
O9    O     O_R   0.939230 0.500000 0.680670 -0.656393
O10   O     O_R   0.060770 0.500000 0.319330 -0.624609
O11   O     O_R   0.500000 0.939230 0.680670 -0.660371
O12   O     O_R   0.500000 0.060770 0.319330 -0.642762
O13   O     O_R   0.560770 1.000000 0.180670 -0.664354
O14   O     O_R   0.439230 1.000000 0.819330 -0.636797
O15   O     O_R   1.000000 0.560770 0.180670 -0.664550
O16   O     O_R   1.000000 0.439230 0.819330 -0.629672
O17   O     O_R   0.439230 1.000000 0.180670 -0.649247
O18   O     O_R   0.560770 1.000000 0.819330 -0.608957
O19   O     O_R   0.000000 0.439230 0.180670 -0.630058
O20   O     O_R   1.000000 0.560770 0.819330 -0.633057
O21   O     O_R   0.853860 0.585440 0.731810 -0.611556
O22   O     O_R   0.146140 0.414560 0.268190 -0.598890
O23   O     O_R   0.414560 0.853860 0.731810 -0.635157
O24   O     O_R   0.585440 0.146140 0.268190 -0.619632
O25   O     O_R   0.146140 0.414560 0.731810 -0.607588
O26   O     O_R   0.853860 0.585440 0.268190 -0.629435
O27   O     O_R   0.585440 0.146140 0.731810 -0.614509
O28   O     O_R   0.414560 0.853860 0.268190 -0.627336
O29   O     O_R   0.853860 0.414560 0.268190 -0.610543
O30   O     O_R   0.146140 0.585440 0.731810 -0.667522
O31   O     O_R   0.414560 0.146140 0.268190 -0.624907
O32   O     O_R   0.585440 0.853860 0.731810 -0.681692
O33   O     O_R   0.146140 0.585440 0.268190 -0.592757
O34   O     O_R   0.853860 0.414560 0.731810 -0.643040
O35   O     O_R   0.585440 0.853860 0.268190 -0.606144
O36   O     O_R   0.414560 0.146140 0.731810 -0.641683
O37   O     O_R   0.353860 0.085440 0.231810 -0.637053
O38   O     O_R   0.646140 0.914560 0.768190 -0.614908
O39   O     O_R   0.914560 0.353860 0.231810 -0.604539
O40   O     O_R   0.085440 0.646140 0.768190 -0.595402
O41   O     O_R   0.646140 0.914560 0.231810 -0.630038
O42   O     O_R   0.353860 0.085440 0.768190 -0.629148
O43   O     O_R   0.085440 0.646140 0.231810 -0.633569
O44   O     O_R   0.914560 0.353860 0.768190 -0.632324
O45   O     O_R   0.353860 0.914560 0.768190 -0.629096
O46   O     O_R   0.646140 0.085440 0.231810 -0.667979
O47   O     O_R   0.914560 0.646140 0.768190 -0.596653
O48   O     O_R   0.085440 0.353860 0.231810 -0.664888
O49   O     O_R   0.646140 0.085440 0.768190 -0.614089
O50   O     O_R   0.353860 0.914560 0.231810 -0.675594
O51   O     O_R   0.085440 0.353860 0.768190 -0.607005
O52   O     O_R   0.914560 0.646140 0.231810 -0.617158
N1    N     N_R   0.945245 0.533416 0.984325 -0.120676
N2    N     N_R   0.065557 0.491911 0.014931 -0.135938
N3    N     N_R   0.509613 0.057019 0.985997 -0.150634
N4    N     N_R   0.499230 0.926483 0.014821 -0.138996
N5    N     N_R   0.064205 0.491522 0.983904 -0.128966
N6    N     N_R   0.946538 0.533394 0.015346 -0.118731
N7    N     N_R   0.500275 0.930550 0.983777 -0.137436
N8    N     N_R   0.508100 0.053098 0.016965 -0.149309
N9    N     N_R   0.460313 0.025012 0.484005 -0.143813
N10   N     N_R   0.576529 0.977695 0.516308 -0.139691
N11   N     N_R   0.015763 0.552900 0.485163 -0.124046
N12   N     N_R   0.000412 0.425157 0.515633 -0.140228
N13   N     N_R   0.576642 0.975619 0.485230 -0.135318
N14   N     N_R   0.460077 0.026851 0.514984 -0.139168
N15   N     N_R   0.001608 0.426737 0.484552 -0.125108
N16   N     N_R   0.013983 0.551498 0.516156 -0.143431
C1    C     C_R   0.065004 0.513192 0.883702 0.322811
C2    C     C_R   0.047428 0.455891 0.115300 0.323810
C3    C     C_R   0.481251 0.061300 0.884806 0.328515
C4    C     C_R   0.458240 0.042621 0.113509 0.328295
C5    C     C_R   0.934958 0.491491 0.884862 0.325465
C6    C     C_R   0.953622 0.548317 0.115150 0.319157
C7    C     C_R   0.531059 0.939205 0.885113 0.337402
C8    C     C_R   0.540944 0.939745 0.116861 0.313734
C9    C     C_R   0.573870 0.010003 0.383489 0.346746
C10   C     C_R   0.445163 0.980268 0.613536 0.308955
C11   C     C_R   0.981080 0.560419 0.385558 0.348471
C12   C     C_R   0.957894 0.543307 0.613572 0.348562
C13   C     C_R   0.445955 0.978459 0.386200 0.309910
C14   C     C_R   0.569839 0.024840 0.616819 0.321135
C15   C     C_R   0.023195 0.435728 0.383724 0.319319
C16   C     C_R   0.041348 0.441076 0.617022 0.330332
C17   C     C_R   0.065676 0.521909 0.916190 0.392034
C18   C     C_R   0.053842 0.463462 0.082671 0.386640
C19   C     C_R   0.480513 0.060525 0.917672 0.391862
C20   C     C_R   0.452398 0.033049 0.081063 0.373049
C21   C     C_R   0.936428 0.493705 0.917784 0.371927
C22   C     C_R   0.958771 0.555156 0.082648 0.383274
C23   C     C_R   0.540339 0.942802 0.917646 0.368624
C24   C     C_R   0.544744 0.939321 0.083786 0.374647
C25   C     C_R   0.577753 0.012322 0.416294 0.378308
C26   C     C_R   0.452680 0.975075 0.580785 0.387196
C27   C     C_R   0.979946 0.556247 0.418391 0.365648
C28   C     C_R   0.955571 0.536575 0.580955 0.384450
C29   C     C_R   0.451507 0.973189 0.419031 0.379550
C30   C     C_R   0.573693 0.028168 0.584067 0.424689
C31   C     C_R   0.029548 0.433701 0.416440 0.395001
C32   C     C_R   0.045643 0.440196 0.584108 0.388243
C33   C     C_R   0.999883 0.499639 0.665885 0.918273
C34   C     C_R   0.000183 0.501535 0.334043 1.034122
C35   C     C_R   0.500830 0.000482 0.665829 0.941853
C36   C     C_R   0.501811 0.999427 0.334163 1.040229
C37   C     C_R   0.499928 0.999165 0.165849 0.925506
C38   C     C_R   0.500419 0.998724 0.834129 1.003368
C39   C     C_R   0.999963 0.500332 0.165891 0.908833
C40   C     C_R   0.998816 0.499621 0.834014 1.049452
C41   C     C_R   0.855823 0.635462 0.752579 0.853586
C42   C     C_R   0.139784 0.360399 0.250264 0.994578
C43   C     C_R   0.360461 0.859302 0.750387 0.972495
C44   C     C_R   0.638784 0.140606 0.249511 0.969122
C45   C     C_R   0.143689 0.363323 0.752372 0.824203
C46   C     C_R   0.859290 0.640456 0.248896 0.905736
C47   C     C_R   0.635050 0.144773 0.752849 0.850739
C48   C     C_R   0.361042 0.858811 0.249583 0.959219
C49   C     C_R   0.862413 0.357062 0.251485 0.818813
C50   C     C_R   0.139530 0.639807 0.750157 0.976664
C51   C     C_R   0.359157 0.139756 0.250311 0.963926
C52   C     C_R   0.641001 0.860508 0.749719 0.929159
C53   C     C_R   0.136598 0.643658 0.252098 0.847809
C54   C     C_R   0.860385 0.358976 0.749652 0.946919
C55   C     C_R   0.644034 0.863949 0.252882 0.842345
C56   C     C_R   0.359198 0.139629 0.749457 0.950792
C57   C     C_R   0.517920 0.002917 0.531699 0.376405
C58   C     C_R   0.518267 0.998837 0.468536 0.364242
C59   C     C_R   0.005836 0.487711 0.531914 0.376022
C60   C     C_R   0.008890 0.490754 0.468673 0.365208
C61   C     C_R   0.006720 0.512658 0.031342 0.375962
C62   C     C_R   0.003948 0.512167 0.967978 0.372400
C63   C     C_R   0.503052 0.987858 0.031907 0.415924
C64   C     C_R   0.505572 0.995925 0.968753 0.388468
C65   C     C_R   0.999682 0.499472 0.868117 -0.374534
C66   C     C_R   0.000136 0.501221 0.131635 -0.377164
C67   C     C_R   0.502590 0.999050 0.868511 -0.404819
C68   C     C_R   0.499794 0.993861 0.131527 -0.349114
C69   C     C_R   0.506996 0.997553 0.368518 -0.401264
C70   C     C_R   0.505266 0.001877 0.631506 -0.366930
C71   C     C_R   0.001063 0.499453 0.368292 -0.378255
C72   C     C_R   0.999782 0.494811 0.631616 -0.360713
C73   C     C_R   0.123810 0.772414 0.713227 0.326201
C74   C     C_R   0.796793 0.293445 0.313217 0.328324
C75   C     C_R   0.297635 0.215971 0.693978 0.375600
C76   C     C_R   0.683260 0.764337 0.312490 0.341450
C77   C     C_R   0.780704 0.305132 0.694865 0.391103
C78   C     C_R   0.213936 0.693012 0.313963 0.319564
C79   C     C_R   0.701232 0.787339 0.694984 0.365284
C80   C     C_R   0.255578 0.151164 0.302549 0.307283
C81   C     C_R   0.136466 0.243884 0.296934 0.348756
C82   C     C_R   0.727727 0.639792 0.707499 0.415289
C83   C     C_R   0.292878 0.822640 0.308879 0.368274
C84   C     C_R   0.634865 0.278734 0.709666 0.402493
C85   C     C_R   0.818979 0.697984 0.309098 0.412515
C86   C     C_R   0.270461 0.361669 0.707683 0.425854
C87   C     C_R   0.713944 0.166639 0.307654 0.341511
C88   C     C_R   0.249784 0.853363 0.701785 0.301783
C89   C     C_R   0.680686 0.228421 0.195298 0.334046
C90   C     C_R   0.349869 0.752177 0.801743 0.318099
C91   C     C_R   0.828643 0.755839 0.194678 0.344291
C92   C     C_R   0.191181 0.277153 0.813796 0.338532
C93   C     C_R   0.303168 0.784053 0.194407 0.364599
C94   C     C_R   0.713432 0.194537 0.815131 0.321282
C95   C     C_R   0.268302 0.376840 0.212153 0.324397
C96   C     C_R   0.810829 0.716303 0.814456 0.332287
C97   C     C_R   0.683611 0.797789 0.809970 0.392368
C98   C     C_R   0.347405 0.250553 0.200853 0.323152
C99   C     C_R   0.795061 0.322920 0.809973 0.355035
C100  C     C_R   0.155017 0.756075 0.201236 0.402713
C101  C     C_R   0.323837 0.205364 0.809152 0.398871
C102  C     C_R   0.780281 0.885674 0.218304 0.435239
C103  C     C_R   0.253586 0.634946 0.797528 0.328319
C104  C     C_R   0.827709 0.264562 0.195953 0.378525
C105  C     C_R   0.122831 0.830044 0.691261 0.343469
C106  C     C_R   0.772494 0.255294 0.340042 0.284410
C107  C     C_R   0.299096 0.269376 0.669640 0.315101
C108  C     C_R   0.713605 0.729776 0.338980 0.264970
C109  C     C_R   0.725973 0.316255 0.671757 0.289280
C110  C     C_R   0.241132 0.727304 0.340864 0.287448
C111  C     C_R   0.696454 0.736420 0.670466 0.298930
C112  C     C_R   0.196899 0.143384 0.322930 0.311110
C113  C     C_R   0.141841 0.195052 0.322107 0.318052
C114  C     C_R   0.705257 0.661902 0.677507 0.304875
C115  C     C_R   0.283358 0.790019 0.337995 0.306570
C116  C     C_R   0.652646 0.309321 0.680436 0.321245
C117  C     C_R   0.780412 0.694412 0.336826 0.338417
C118  C     C_R   0.291598 0.343192 0.677395 0.305451
C119  C     C_R   0.726547 0.195590 0.336879 0.346816
C120  C     C_R   0.185727 0.870892 0.685934 0.314850
C121  C     C_R   0.715359 0.249262 0.167108 0.314298
C122  C     C_R   0.358055 0.692007 0.821747 0.317848
C123  C     C_R   0.817717 0.816576 0.174132 0.298098
C124  C     C_R   0.225218 0.248238 0.840728 0.273913
C125  C     C_R   0.259142 0.773729 0.167476 0.311733
C126  C     C_R   0.741905 0.228268 0.842013 0.300603
C127  C     C_R   0.323327 0.377701 0.189593 0.346479
C128  C     C_R   0.781431 0.749694 0.841152 0.261928
C129  C     C_R   0.720313 0.793797 0.838185 0.335741
C130  C     C_R   0.363590 0.314730 0.184417 0.310583
C131  C     C_R   0.785570 0.290100 0.839100 0.325716
C132  C     C_R   0.184157 0.762231 0.171200 0.320139
C133  C     C_R   0.290689 0.210718 0.838124 0.308190
C134  C     C_R   0.798904 0.883908 0.186846 0.291911
C135  C     C_R   0.305434 0.637243 0.821503 0.310396
C136  C     C_R   0.789919 0.264675 0.167512 0.324135
C137  C     C_R   0.001870 0.509663 0.933529 -0.278021
C138  C     C_R   0.006982 0.510750 0.065963 -0.298702
C139  C     C_R   0.508675 0.000037 0.934296 -0.303949
C140  C     C_R   0.499111 0.985125 0.066089 -0.279696
C141  C     C_R   0.516189 0.994580 0.434178 -0.289115
C142  C     C_R   0.515130 0.002503 0.566013 -0.293880
C143  C     C_R   0.006379 0.493522 0.434093 -0.286628
C144  C     C_R   0.001819 0.487330 0.566130 -0.287560
C145  C     C_R   0.248635 0.803931 0.727584 -0.185557
C146  C     C_R   0.731104 0.208002 0.280268 -0.228555
C147  C     C_R   0.252769 0.305927 0.729458 -0.193795
C148  C     C_R   0.784269 0.722380 0.281212 -0.227585
C149  C     C_R   0.691063 0.257218 0.730512 -0.207082
C150  C     C_R   0.273865 0.784713 0.281336 -0.215013
C151  C     C_R   0.744825 0.693363 0.730118 -0.206062
C152  C     C_R   0.193135 0.248799 0.274209 -0.194733
C153  C     C_R   0.251151 0.198280 0.275855 -0.173617
C154  C     C_R   0.713811 0.761695 0.725723 -0.142053
C155  C     C_R   0.224999 0.724967 0.283363 -0.153774
C156  C     C_R   0.758946 0.288535 0.725759 -0.150387
C157  C     C_R   0.722102 0.767184 0.283476 -0.162287
C158  C     C_R   0.284890 0.238629 0.724899 -0.157887
C159  C     C_R   0.780094 0.267667 0.282330 -0.150382
C160  C     C_R   0.188331 0.757146 0.730815 -0.174302
C161  C     C_R   0.788469 0.262397 0.224555 -0.204092
C162  C     C_R   0.250493 0.691978 0.774295 -0.187015
C163  C     C_R   0.762553 0.820225 0.234059 -0.185330
C164  C     C_R   0.285165 0.224467 0.781565 -0.219965
C165  C     C_R   0.202661 0.746954 0.227103 -0.200716
C166  C     C_R   0.773609 0.285976 0.782436 -0.216253
C167  C     C_R   0.301556 0.252074 0.227345 -0.187313
C168  C     C_R   0.717537 0.774797 0.782221 -0.225909
C169  C     C_R   0.776212 0.724819 0.784306 -0.141243
C170  C     C_R   0.255220 0.312366 0.230533 -0.177098
C171  C     C_R   0.723522 0.227002 0.784726 -0.152191
C172  C     C_R   0.270923 0.778326 0.224340 -0.154845
C173  C     C_R   0.224695 0.271655 0.783669 -0.159295
C174  C     C_R   0.801176 0.757602 0.226178 -0.163431
C175  C     C_R   0.302106 0.749370 0.775510 -0.176015
C176  C     C_R   0.720878 0.228474 0.223700 -0.148820
C177  C     C_R   0.304014 0.802365 0.750804 -0.016775
C178  C     C_R   0.696818 0.194065 0.251245 0.006853
C179  C     C_R   0.207185 0.313911 0.755962 -0.009596
C180  C     C_R   0.812109 0.705445 0.251185 -0.023671
C181  C     C_R   0.682703 0.209882 0.756824 -0.002110
C182  C     C_R   0.302831 0.804918 0.251761 -0.003962
C183  C     C_R   0.791576 0.683534 0.756502 -0.008674
C184  C     C_R   0.196188 0.305647 0.251390 0.000760
C185  C     C_R   0.302136 0.196309 0.250824 -0.019535
C186  C     C_R   0.693800 0.800376 0.752411 -0.001840
C187  C     C_R   0.187347 0.705975 0.254869 -0.014297
C188  C     C_R   0.799533 0.307430 0.752459 -0.009664
C189  C     C_R   0.708815 0.816096 0.257575 -0.007544
C190  C     C_R   0.306983 0.199580 0.751746 -0.011596
C191  C     C_R   0.811016 0.294734 0.253351 -0.019559
C192  C     C_R   0.194435 0.696350 0.751415 0.014160
O53   O     O_3   0.058589 0.740379 0.721688 -0.580862
C193  C     C_3   0.031845 0.696084 0.697507 -0.188845
H1    H     H_    0.074994 0.673068 0.682479 0.101025
H2    H     H_    0.992134 0.726992 0.683263 0.189975
H3    H     H_    0.002289 0.649450 0.708169 0.148078
O54   O     O_3   0.833704 0.357442 0.318186 -0.583492
C194  C     C_3   0.783054 0.411811 0.326101 -0.183437
H4    H     H_    0.766764 0.407113 0.350938 0.167679
H5    H     H_    0.734280 0.411531 0.310652 0.121832
H6    H     H_    0.808901 0.465688 0.323022 0.207434
O55   O     O_3   0.294907 0.141816 0.688308 -0.641605
C195  C     C_3   0.349483 0.119727 0.667775 -0.175271
H7    H     H_    0.400078 0.152484 0.669782 0.172434
H8    H     H_    0.329121 0.120889 0.643451 0.189037
H9    H     H_    0.362497 0.062452 0.673581 0.198903
O56   O     O_3   0.616619 0.795894 0.316394 -0.564043
C196  C     C_3   0.562788 0.741454 0.313399 -0.169160
H10   H     H_    0.562517 0.703965 0.333940 0.159892
H11   H     H_    0.568997 0.710123 0.291481 0.130384
H12   H     H_    0.509178 0.768090 0.312185 0.176987
O57   O     O_3   0.854091 0.297627 0.688255 -0.619665
C197  C     C_3   0.879851 0.348224 0.666008 -0.158813
H13   H     H_    0.852069 0.401541 0.667214 0.186025
H14   H     H_    0.876164 0.325277 0.642228 0.190979
H15   H     H_    0.938029 0.357697 0.670874 0.151810
O58   O     O_3   0.177352 0.628474 0.318829 -0.577330
C198  C     C_3   0.228847 0.572296 0.323172 -0.126378
H16   H     H_    0.258465 0.577354 0.345658 0.156775
H17   H     H_    0.268030 0.570461 0.303507 0.137175
H18   H     H_    0.200144 0.519288 0.323884 0.197383
O59   O     O_3   0.709027 0.861566 0.689581 -0.618950
C199  C     C_3   0.654926 0.889695 0.669730 -0.061738
H19   H     H_    0.604149 0.856985 0.669744 0.143786
H20   H     H_    0.676132 0.895789 0.645647 0.226453
H21   H     H_    0.641405 0.944461 0.678267 0.176227
O60   O     O_3   0.319748 0.118399 0.311287 -0.595648
C200  C     C_3   0.354968 0.164211 0.332939 -0.218683
H22   H     H_    0.403864 0.136630 0.342040 0.185261
H23   H     H_    0.320565 0.175790 0.353534 0.136698
H24   H     H_    0.372327 0.216099 0.321562 0.152970
O61   O     O_3   0.077860 0.290350 0.296500 -0.572709
C201  C     C_3   0.017110 0.252450 0.284837 -0.280521
H25   H     H_    0.003023 0.204235 0.299554 0.159458
H26   H     H_    0.025846 0.235679 0.260298 0.154103
H27   H     H_    0.969991 0.289304 0.285265 0.181716
O62   O     O_3   0.727531 0.565935 0.714331 -0.537546
C202  C     C_3   0.673496 0.550361 0.736602 -0.291774
H28   H     H_    0.666845 0.490515 0.738399 0.166745
H29   H     H_    0.620112 0.573333 0.729503 0.149434
H30   H     H_    0.689516 0.570208 0.760046 0.136730
O63   O     O_3   0.316912 0.893883 0.308081 -0.543002
C203  C     C_3   0.257659 0.938423 0.299845 -0.285366
H31   H     H_    0.212075 0.930543 0.316394 0.138708
H32   H     H_    0.238566 0.928707 0.275606 0.131171
H33   H     H_    0.275175 0.995653 0.300797 0.238996
O64   O     O_3   0.562987 0.277802 0.718586 -0.541225
C204  C     C_3   0.550391 0.338002 0.737839 -0.302373
H34   H     H_    0.567734 0.390006 0.726486 0.167535
H35   H     H_    0.577703 0.330953 0.760871 0.137008
H36   H     H_    0.491411 0.342034 0.741992 0.164450
O65   O     O_3   0.891155 0.677645 0.309937 -0.518113
C205  C     C_3   0.934989 0.739438 0.304030 -0.308466
H37   H     H_    0.925006 0.782671 0.321413 0.140080
H38   H     H_    0.927170 0.761751 0.280048 0.141354
H39   H     H_    0.992584 0.723137 0.305890 0.168368
O66   O     O_3   0.276225 0.433375 0.716689 -0.550565
C206  C     C_3   0.345258 0.443621 0.730249 -0.336172
H40   H     H_    0.352548 0.502141 0.735389 0.175482
H41   H     H_    0.389439 0.428188 0.714056 0.190612
H42   H     H_    0.350217 0.412738 0.752668 0.136709
O67   O     O_3   0.682050 0.098489 0.306800 -0.547844
C207  C     C_3   0.734676 0.047929 0.297694 -0.237322
H43   H     H_    0.780316 0.045631 0.314730 0.133734
H44   H     H_    0.755394 0.060897 0.274026 0.175438
H45   H     H_    0.709216 0.993269 0.296725 0.178632
O68   O     O_3   0.313724 0.881777 0.690331 -0.573045
C208  C     C_3   0.343437 0.829743 0.670086 -0.131741
H46   H     H_    0.398965 0.846787 0.663641 0.220234
H47   H     H_    0.310773 0.825871 0.648274 0.152956
H48   H     H_    0.348456 0.775090 0.681403 0.109923
O69   O     O_3   0.605927 0.221287 0.196935 -0.642326
C209  C     C_3   0.579560 0.168751 0.176052 -0.161924
H49   H     H_    0.562615 0.195276 0.153929 0.194030
H50   H     H_    0.530464 0.143596 0.186412 0.185243
H51   H     H_    0.619048 0.124682 0.171410 0.141137
O70   O     O_3   0.381581 0.816613 0.810831 -0.605157
C210  C     C_3   0.333558 0.850707 0.831679 -0.261210
H52   H     H_    0.358565 0.901622 0.840051 0.187627
H53   H     H_    0.322744 0.816235 0.852712 0.141765
H54   H     H_    0.281634 0.865200 0.819918 0.163053
O71   O     O_3   0.865844 0.696714 0.183399 -0.578783
C211  C     C_3   0.934353 0.719879 0.171714 0.052105
H55   H     H_    0.951849 0.775081 0.179115 0.089482
H56   H     H_    0.934511 0.718056 0.145894 0.182162
H57   H     H_    0.976925 0.683681 0.180530 0.234358
O72   O     O_3   0.125496 0.310366 0.818111 -0.571466
C212  C     C_3   0.071035 0.256050 0.819310 -0.170366
H58   H     H_    0.072489 0.225512 0.841832 0.164523
H59   H     H_    0.074661 0.217779 0.799413 0.129876
H60   H     H_    0.017588 0.282767 0.817474 0.178787
O73   O     O_3   0.378360 0.784433 0.193001 -0.610548
C213  C     C_3   0.404864 0.836274 0.171406 -0.169013
H61   H     H_    0.369078 0.884445 0.168615 0.156200
H62   H     H_    0.414367 0.810558 0.148568 0.193476
H63   H     H_    0.458189 0.855480 0.179996 0.158245
O74   O     O_3   0.674969 0.130978 0.819621 -0.589228
C214  C     C_3   0.724668 0.073689 0.825017 -0.164749
H64   H     H_    0.748109 0.075624 0.848894 0.162147
H65   H     H_    0.768686 0.073249 0.807313 0.126930
H66   H     H_    0.695552 0.021236 0.823116 0.208846
O75   O     O_3   0.236356 0.442284 0.219911 -0.588719
C215  C     C_3   0.188768 0.465955 0.195956 -0.192032
H67   H     H_    0.163570 0.420432 0.182844 0.171944
H68   H     H_    0.216884 0.504040 0.179785 0.186560
H69   H     H_    0.144124 0.496778 0.206756 0.137321
O76   O     O_3   0.871341 0.673583 0.818929 -0.593615
C216  C     C_3   0.931488 0.717399 0.827723 -0.082642
H70   H     H_    0.941475 0.711776 0.853200 0.164267
H71   H     H_    0.926169 0.776082 0.821178 0.106020
H72   H     H_    0.980714 0.697778 0.815910 0.203310
O77   O     O_3   0.612553 0.821039 0.810468 -0.528937
C217  C     C_3   0.567122 0.761150 0.803918 -0.289567
H73   H     H_    0.580311 0.713268 0.819000 0.123672
H74   H     H_    0.569781 0.745595 0.779002 0.136130
H75   H     H_    0.510691 0.776808 0.808620 0.247364
O78   O     O_3   0.371513 0.185838 0.188874 -0.578373
C218  C     C_3   0.313040 0.153864 0.172415 -0.153741
H76   H     H_    0.326330 0.096556 0.167442 0.232473
H77   H     H_    0.303521 0.183122 0.149902 0.151535
H78   H     H_    0.261983 0.151887 0.186148 0.109280
O79   O     O_3   0.823025 0.392863 0.809225 -0.540903
C219  C     C_3   0.766118 0.441897 0.802919 -0.261459
H79   H     H_    0.727401 0.442826 0.822710 0.151895
H80   H     H_    0.736819 0.429065 0.780920 0.124299
H81   H     H_    0.789443 0.497177 0.799854 0.171358
O80   O     O_3   0.080776 0.764339 0.204291 -0.570461
C220  C     C_3   0.065278 0.819138 0.226064 -0.311925
H82   H     H_    0.097576 0.869458 0.221582 0.145336
H83   H     H_    0.073814 0.799245 0.250378 0.157620
H84   H     H_    0.007318 0.833843 0.223839 0.157988
O81   O     O_3   0.395710 0.184594 0.808380 -0.539180
C221  C     C_3   0.438257 0.246398 0.800811 -0.323595
H85   H     H_    0.437538 0.286105 0.820168 0.154671
H86   H     H_    0.420604 0.273527 0.778751 0.146003
H87   H     H_    0.494948 0.229160 0.797146 0.166341
O82   O     O_3   0.782863 0.950768 0.234024 -0.569457
C222  C     C_3   0.852822 0.957415 0.247193 -0.377021
H88   H     H_    0.860374 0.013340 0.255946 0.170172
H89   H     H_    0.896346 0.948825 0.229701 0.165525
H90   H     H_    0.859507 0.918939 0.267246 0.156249
O83   O     O_3   0.200536 0.581832 0.799881 -0.571763
C223  C     C_3   0.228600 0.515266 0.789496 -0.235575
H91   H     H_    0.277221 0.497659 0.802913 0.159693
H92   H     H_    0.241618 0.518631 0.764319 0.192591
H93   H     H_    0.186546 0.472787 0.792797 0.168549
O84   O     O_3   0.902212 0.257147 0.194530 -0.535730
C224  C     C_3   0.922160 0.189183 0.207492 -0.252346
H94   H     H_    0.893077 0.143685 0.195871 0.164038
H95   H     H_    0.912683 0.187082 0.233095 0.138635
H96   H     H_    0.980940 0.181327 0.203725 0.167764
O85   O     O_3   0.127748 0.522872 0.866703 -0.573011
C225  C     C_3   0.168058 0.458168 0.868766 -0.216553
H97   H     H_    0.214959 0.462583 0.852871 0.205434
H98   H     H_    0.135504 0.410192 0.861480 0.197325
H99   H     H_    0.189836 0.449754 0.892752 0.172050
O86   O     O_3   0.092267 0.408586 0.131545 -0.628224
C226  C     C_3   0.063826 0.337529 0.129346 -0.202856
H100  H     H_    0.067354 0.317001 0.105122 0.189011
H101  H     H_    0.006908 0.334375 0.137662 0.191269
H102  H     H_    0.096546 0.300938 0.144534 0.163159
O87   O     O_3   0.462137 0.124152 0.868929 -0.520717
C227  C     C_3   0.525599 0.158830 0.857846 -0.176104
H103  H     H_    0.536595 0.141905 0.833623 0.196736
H104  H     H_    0.574416 0.148255 0.872563 0.144241
H105  H     H_    0.516835 0.218375 0.857607 0.150232
O88   O     O_3   0.423227 0.098971 0.128140 -0.613501
C228  C     C_3   0.442769 0.166594 0.114471 -0.211099
H106  H     H_    0.401058 0.184059 0.097269 0.210374
H107  H     H_    0.497489 0.167192 0.103558 0.123108
H108  H     H_    0.444007 0.207477 0.132976 0.242825
O89   O     O_3   0.870829 0.480187 0.868735 -0.545894
C229  C     C_3   0.827248 0.542633 0.871064 -0.177963
H109  H     H_    0.859183 0.593993 0.869461 0.190808
H110  H     H_    0.795487 0.540910 0.892962 0.184121
H111  H     H_    0.787893 0.543637 0.851530 0.153441
O90   O     O_3   0.904093 0.590422 0.130709 -0.563844
C230  C     C_3   0.840072 0.549694 0.135043 -0.161726
H112  H     H_    0.848581 0.505347 0.152496 0.094313
H113  H     H_    0.819085 0.527364 0.112687 0.151262
H114  H     H_    0.797926 0.586107 0.144385 0.207658
O91   O     O_3   0.556396 0.879915 0.869118 -0.512576
C231  C     C_3   0.511755 0.819192 0.875605 -0.080054
H115  H     H_    0.460161 0.824278 0.862635 0.178073
H116  H     H_    0.500171 0.810543 0.900810 0.154316
H117  H     H_    0.539822 0.769743 0.867784 0.196005
O92   O     O_3   0.581413 0.892555 0.135492 -0.623497
C232  C     C_3   0.570646 0.819276 0.127057 -0.210922
H118  H     H_    0.615799 0.801234 0.112078 0.225972
H119  H     H_    0.517836 0.808796 0.115217 0.143803
H120  H     H_    0.571908 0.785227 0.148610 0.164874
O93   O     O_3   0.635739 0.020549 0.366017 -0.512353
C233  C     C_3   0.673286 0.954032 0.365093 -0.203390
H121  H     H_    0.641959 0.912877 0.351813 0.182675
H122  H     H_    0.686368 0.932837 0.388879 0.168752
H123  H     H_    0.725569 0.962752 0.353093 0.159731
O94   O     O_3   0.382541 0.958628 0.629012 -0.620882
C234  C     C_3   0.319233 0.985795 0.614410 -0.170414
H124  H     H_    0.294040 0.943047 0.599839 0.210899
H125  H     H_    0.328165 0.036488 0.600388 0.136614
H126  H     H_    0.279826 0.999179 0.632731 0.209561
O95   O     O_3   0.959465 0.623389 0.370358 -0.508564
C235  C     C_3   0.016989 0.673896 0.371448 -0.189945
H127  H     H_    0.061837 0.656641 0.356060 0.180185
H128  H     H_    0.037301 0.682575 0.395580 0.166886
H129  H     H_    0.997271 0.727381 0.363034 0.164096
O96   O     O_3   0.916384 0.595045 0.628138 -0.607856
C236  C     C_3   0.948677 0.663964 0.623650 -0.305819
H130  H     H_    0.919293 0.703752 0.638040 0.178811
H131  H     H_    0.944050 0.682842 0.599005 0.223945
H132  H     H_    0.006467 0.664140 0.631108 0.122803
O97   O     O_3   0.384257 0.956286 0.370484 -0.554841
C237  C     C_3   0.324020 0.997732 0.379247 -0.013357
H133  H     H_    0.337622 0.055443 0.384382 0.102112
H134  H     H_    0.295398 0.971684 0.399166 0.187761
H135  H     H_    0.285897 0.997311 0.359449 0.227925
O98   O     O_3   0.632153 0.034703 0.634347 -0.603809
C238  C     C_3   0.640538 0.108598 0.641671 -0.232844
H136  H     H_    0.588515 0.134908 0.647465 0.136273
H137  H     H_    0.667844 0.138125 0.622298 0.191814
H138  H     H_    0.675960 0.112739 0.662565 0.180386
O99   O     O_3   0.038528 0.374864 0.366503 -0.584693
C239  C     C_3   0.976837 0.329520 0.366980 -0.170928
H139  H     H_    0.925869 0.359971 0.362420 0.193019
H140  H     H_    0.973257 0.300109 0.389706 0.166137
H141  H     H_    0.981705 0.288655 0.348398 0.229213
O100  O     O_3   0.081497 0.393582 0.635533 -0.620222
C240  C     C_3   0.062055 0.320655 0.629634 -0.234347
H142  H     H_    0.099363 0.297119 0.612287 0.225727
H143  H     H_    0.004861 0.313743 0.621762 0.136489
H144  H     H_    0.068544 0.288796 0.651623 0.169289
O101  O     O_3   0.129694 0.541191 0.930820 -0.577160
C241  C     C_3   0.131728 0.617536 0.933334 -0.301401
H145  H     H_    0.126972 0.644885 0.910086 0.156246
H146  H     H_    0.184641 0.633497 0.943556 0.180085
H147  H     H_    0.088618 0.637142 0.949147 0.159796
O102  O     O_3   0.103139 0.421022 0.067038 -0.574102
C242  C     C_3   0.172220 0.453581 0.069567 -0.241484
H148  H     H_    0.192194 0.452713 0.094063 0.168355
H149  H     H_    0.172288 0.510396 0.060268 0.146266
H150  H     H_    0.210886 0.422004 0.055464 0.186051
O103  O     O_3   0.447398 0.116418 0.933487 -0.557560
C243  C     C_3   0.495536 0.175968 0.935937 -0.205858
H151  H     H_    0.489950 0.212654 0.915356 0.180694
H152  H     H_    0.553146 0.159515 0.939165 0.112500
H153  H     H_    0.480344 0.207746 0.956715 0.182420
O104  O     O_3   0.404067 0.074105 0.063580 -0.577677
C244  C     C_3   0.335178 0.041283 0.065869 -0.287578
H154  H     H_    0.314742 0.042069 0.090259 0.167689
H155  H     H_    0.335825 0.984591 0.057055 0.148432
H156  H     H_    0.296691 0.072761 0.051122 0.191499
O105  O     O_3   0.872983 0.485703 0.934527 -0.587633
C245  C     C_3   0.857696 0.411145 0.938709 -0.252902
H157  H     H_    0.906429 0.378916 0.945451 0.136775
H158  H     H_    0.832039 0.389154 0.917382 0.229480
H159  H     H_    0.818011 0.404951 0.957908 0.181805
O106  O     O_3   0.914085 0.604106 0.067278 -0.550856
C246  C     C_3   0.949996 0.671848 0.065625 -0.227553
H160  H     H_    0.914570 0.711114 0.053076 0.185197
H161  H     H_    0.001426 0.668087 0.052322 0.128521
H162  H     H_    0.960676 0.693819 0.089288 0.158886
O107  O     O_3   0.578922 0.888146 0.932733 -0.567228
C247  C     C_3   0.646373 0.915635 0.943105 -0.211184
H163  H     H_    0.642533 0.932714 0.967783 0.163278
H164  H     H_    0.667537 0.961937 0.928741 0.112321
H165  H     H_    0.686802 0.871343 0.942106 0.181285
O108  O     O_3   0.592389 0.894038 0.068716 -0.579318
C248  C     C_3   0.660906 0.928077 0.067936 -0.285018
H166  H     H_    0.683232 0.935534 0.091856 0.177092
H167  H     H_    0.658719 0.981192 0.055210 0.140043
H168  H     H_    0.698789 0.892608 0.055210 0.191214
O109  O     O_3   0.643844 0.024738 0.430683 -0.568671
C249  C     C_3   0.648894 0.097982 0.439952 -0.227856
H169  H     H_    0.595806 0.124380 0.444518 0.108653
H170  H     H_    0.679017 0.129754 0.422108 0.213455
H171  H     H_    0.680741 0.100165 0.461939 0.181944
O110  O     O_3   0.398971 0.942879 0.563002 -0.581352
C250  C     C_3   0.410939 0.867235 0.562977 -0.312479
H172  H     H_    0.406756 0.843423 0.586926 0.166635
H173  H     H_    0.464335 0.854036 0.552586 0.156468
H174  H     H_    0.368530 0.841373 0.548391 0.185061
O111  O     O_3   0.957681 0.616154 0.434968 -0.569829
C251  C     C_3   0.883381 0.608690 0.441604 -0.228842
H175  H     H_    0.870436 0.555650 0.453155 0.130850
H176  H     H_    0.850584 0.615924 0.420098 0.199957
H177  H     H_    0.867801 0.652209 0.457907 0.186655
O112  O     O_3   0.910035 0.580973 0.563578 -0.571882
C252  C     C_3   0.845479 0.542382 0.557540 -0.268220
H178  H     H_    0.820000 0.521955 0.579441 0.138708
H179  H     H_    0.855140 0.496470 0.541471 0.154508
H180  H     H_    0.806541 0.579784 0.545943 0.184964
O113  O     O_3   0.392890 0.947258 0.435972 -0.586469
C253  C     C_3   0.408126 0.877654 0.448783 -0.241232
H181  H     H_    0.455081 0.849597 0.438030 0.117699
H182  H     H_    0.359835 0.842448 0.445532 0.181347
H183  H     H_    0.417976 0.882098 0.474263 0.184303
O114  O     O_3   0.637163 0.051891 0.570178 -0.539561
C254  C     C_3   0.627539 0.123752 0.558898 -0.287698
H184  H     H_    0.681633 0.148276 0.554720 0.196830
H185  H     H_    0.598961 0.159007 0.575803 0.113154
H186  H     H_    0.598068 0.124210 0.536261 0.160183
O115  O     O_3   0.055515 0.371522 0.430987 -0.576246
C255  C     C_3   0.131508 0.377133 0.433001 -0.285155
H187  H     H_    0.148209 0.423734 0.447756 0.156951
H188  H     H_    0.156522 0.382086 0.409481 0.160496
H189  H     H_    0.152683 0.326815 0.444200 0.183023
O116  O     O_3   0.092164 0.392460 0.569765 -0.577444
C256  C     C_3   0.157304 0.429337 0.562704 -0.276999
H190  H     H_    0.177968 0.461707 0.582647 0.134086
H191  H     H_    0.150439 0.465214 0.541861 0.162771
H192  H     H_    0.199104 0.388492 0.557119 0.187490
O117  O     O_3   0.301526 0.587070 0.845789 -0.604439
C257  C     C_3   0.269263 0.620494 0.871687 -0.185140
H193  H     H_    0.214965 0.642705 0.865619 0.185652
H194  H     H_    0.304281 0.664128 0.881335 0.158962
H195  H     H_    0.262043 0.579034 0.890435 0.207297
O118  O     O_3   0.826917 0.275267 0.139849 -0.573051
C258  C     C_3   0.839780 0.350328 0.135667 -0.284049
H196  H     H_    0.875354 0.372044 0.154413 0.181403
H197  H     H_    0.788089 0.381138 0.134507 0.158785
H198  H     H_    0.868152 0.359093 0.113162 0.175795
O119  O     O_3   0.323742 0.180585 0.864144 -0.528863
C259  C     C_3   0.295678 0.109795 0.868664 -0.144856
H199  H     H_    0.319923 0.086161 0.890219 0.195850
H200  H     H_    0.310261 0.074004 0.848921 0.161678
H201  H     H_    0.235946 0.110239 0.871954 0.129340
O120  O     O_3   0.807746 0.947963 0.169964 -0.618200
C260  C     C_3   0.739396 0.978555 0.163651 -0.203853
H202  H     H_    0.714104 0.999514 0.185182 0.234213
H203  H     H_    0.703046 0.938937 0.152031 0.207781
H204  H     H_    0.746645 0.025317 0.147365 0.135304
O121  O     O_3   0.817255 0.320088 0.865241 -0.567596
C261  C     C_3   0.890863 0.299930 0.865963 -0.198353
H205  H     H_    0.915202 0.317416 0.888353 0.157062
H206  H     H_    0.921256 0.327788 0.846936 0.202846
H207  H     H_    0.897629 0.239843 0.864636 0.120748
O122  O     O_3   0.138757 0.759068 0.145516 -0.585678
C262  C     C_3   0.127669 0.685384 0.138047 -0.295990
H208  H     H_    0.102602 0.654538 0.157743 0.179507
H209  H     H_    0.179242 0.659237 0.131091 0.177276
H210  H     H_    0.089884 0.682470 0.117894 0.163763
O123  O     O_3   0.694446 0.832596 0.863078 -0.522003
C263  C     C_3   0.739433 0.893945 0.867536 -0.191612
H211  H     H_    0.761170 0.917609 0.845358 0.095715
H212  H     H_    0.784889 0.879886 0.883519 0.165437
H213  H     H_    0.707128 0.937161 0.878484 0.176415
O124  O     O_3   0.417581 0.314701 0.162309 -0.621468
C264  C     C_3   0.481547 0.341728 0.176091 -0.226588
H214  H     H_    0.495724 0.311364 0.197914 0.196141
H215  H     H_    0.476885 0.400735 0.180955 0.187784
H216  H     H_    0.526727 0.334908 0.159444 0.213057
O125  O     O_3   0.339823 0.442093 0.174018 -0.565434
C265  C     C_3   0.318921 0.436871 0.142332 -0.285964
H217  H     H_    0.266223 0.408036 0.139168 0.142308
H218  H     H_    0.361651 0.410155 0.128524 0.215335
H219  H     H_    0.312252 0.492655 0.132639 0.175190
O126  O     O_3   0.815273 0.739851 0.869920 -0.609703
C266  C     C_3   0.767498 0.707222 0.891713 -0.266711
H220  H     H_    0.729329 0.667585 0.880920 0.125159
H221  H     H_    0.737096 0.749227 0.904482 0.219850
H222  H     H_    0.800115 0.677133 0.909378 0.175106
O127  O     O_3   0.290251 0.769942 0.138188 -0.582548
C267  C     C_3   0.269849 0.830896 0.119766 -0.283719
H223  H     H_    0.262435 0.881384 0.133517 0.123536
H224  H     H_    0.219957 0.818731 0.106264 0.220152
H225  H     H_    0.313446 0.842248 0.102644 0.161419
O128  O     O_3   0.728939 0.197298 0.871151 -0.582794
C268  C     C_3   0.685282 0.243919 0.888952 -0.264875
H226  H     H_    0.641350 0.269978 0.874894 0.115762
H227  H     H_    0.718582 0.286003 0.900614 0.208384
H228  H     H_    0.659196 0.211241 0.907721 0.152074
O129  O     O_3   0.824549 0.806206 0.142122 -0.574991
C269  C     C_3   0.873502 0.855883 0.128106 -0.220193
H229  H     H_    0.916619 0.875313 0.144304 0.153207
H230  H     H_    0.843476 0.902483 0.117744 0.201362
H231  H     H_    0.900975 0.828148 0.108646 0.148420
O130  O     O_3   0.190550 0.254272 0.869267 -0.595329
C270  C     C_3   0.233916 0.293031 0.890684 -0.225256
H232  H     H_    0.268226 0.335802 0.879393 0.123312
H233  H     H_    0.268001 0.255126 0.904643 0.222968
H234  H     H_    0.197681 0.320382 0.907368 0.163303
O131  O     O_3   0.675107 0.259177 0.140015 -0.592956
C271  C     C_3   0.692658 0.205415 0.118031 -0.261884
H235  H     H_    0.707537 0.152112 0.128897 0.118063
H236  H     H_    0.736694 0.224968 0.102507 0.224217
H237  H     H_    0.644479 0.195724 0.103073 0.154747
O132  O     O_3   0.410353 0.694393 0.845015 -0.602941
C272  C     C_3   0.457417 0.634527 0.842168 -0.343795
H238  H     H_    0.475191 0.626614 0.817627 0.129152
H239  H     H_    0.432580 0.583847 0.851537 0.221980
H240  H     H_    0.506467 0.644722 0.856478 0.164093
O133  O     O_3   0.692094 0.165888 0.362589 -0.541415
C273  C     C_3   0.622334 0.196741 0.364146 -0.200081
H241  H     H_    0.589420 0.184116 0.343040 0.185754
H242  H     H_    0.625508 0.256588 0.367499 0.127834
H243  H     H_    0.593295 0.173102 0.384450 0.153528
O134  O     O_3   0.185146 0.927601 0.664525 -0.606844
C274  C     C_3   0.173858 0.992733 0.680792 -0.214668
H244  H     H_    0.170795 0.038298 0.663633 0.190328
H245  H     H_    0.219679 0.004380 0.696969 0.193313
H246  H     H_    0.121795 0.991319 0.693776 0.171734
O135  O     O_3   0.809356 0.656002 0.361792 -0.531175
C275  C     C_3   0.769923 0.590531 0.365872 -0.244225
H247  H     H_    0.748676 0.567694 0.343624 0.110996
H248  H     H_    0.724428 0.598915 0.382244 0.174140
H249  H     H_    0.806309 0.548956 0.376325 0.167210
O136  O     O_3   0.310249 0.397384 0.656281 -0.600932
C276  C     C_3   0.246817 0.423975 0.642028 -0.170193
H250  H     H_    0.208152 0.445491 0.659447 0.224429
H251  H     H_    0.220862 0.381143 0.627649 0.204755
H252  H     H_    0.261853 0.469733 0.626229 0.145657
O137  O     O_3   0.315157 0.820251 0.363992 -0.552091
C277  C     C_3   0.385380 0.791170 0.367020 -0.144116
H253  H     H_    0.420399 0.809982 0.347479 0.178606
H254  H     H_    0.384490 0.730676 0.368567 0.116295
H255  H     H_    0.409993 0.811162 0.388869 0.178968
O138  O     O_3   0.598928 0.339560 0.661896 -0.565946
C278  C     C_3   0.570576 0.285992 0.642152 -0.296732
H256  H     H_    0.533273 0.312572 0.625226 0.171611
H257  H     H_    0.538812 0.245350 0.655810 0.176178
H258  H     H_    0.613668 0.259765 0.628255 0.159469
O139  O     O_3   0.093349 0.200029 0.346491 -0.606050
C279  C     C_3   0.129357 0.230739 0.372388 -0.209260
H259  H     H_    0.152437 0.285129 0.366412 0.186019
H260  H     H_    0.172573 0.194720 0.381772 0.168155
H261  H     H_    0.089835 0.237667 0.391469 0.205564
O140  O     O_3   0.689344 0.610213 0.655405 -0.600897
C280  C     C_3   0.753050 0.594465 0.639043 -0.174872
H262  H     H_    0.792294 0.565325 0.654430 0.215642
H263  H     H_    0.778084 0.644302 0.628656 0.212163
H264  H     H_    0.738784 0.558271 0.619482 0.139967
O141  O     O_3   0.688446 0.760071 0.639804 -0.589764
C281  C     C_3   0.619454 0.740131 0.628212 -0.268302
H265  H     H_    0.576609 0.737843 0.646467 0.127355
H266  H     H_    0.622453 0.687290 0.616108 0.217166
H267  H     H_    0.602395 0.781489 0.610625 0.165214
O142  O     O_3   0.200435 0.091603 0.346631 -0.612098
C282  C     C_3   0.139026 0.045501 0.345540 -0.341221
H268  H     H_    0.123301 0.030948 0.321241 0.129687
H269  H     H_    0.092548 0.069895 0.357803 0.225636
H270  H     H_    0.151870 0.994248 0.358254 0.163806
O143  O     O_3   0.743912 0.329115 0.640812 -0.612146
C283  C     C_3   0.726202 0.401160 0.631926 -0.258508
H271  H     H_    0.725388 0.439827 0.651775 0.182732
H272  H     H_    0.673301 0.402094 0.619572 0.217440
H273  H     H_    0.767621 0.421152 0.615210 0.139703
O144  O     O_3   0.229463 0.695134 0.369892 -0.585335
C284  C     C_3   0.187187 0.740979 0.388615 -0.244492
H274  H     H_    0.143154 0.768692 0.375223 0.112121
H275  H     H_    0.221542 0.781638 0.400633 0.211941
H276  H     H_    0.161591 0.707235 0.407162 0.169210
O145  O     O_3   0.302462 0.248876 0.638669 -0.597882
C285  C     C_3   0.368832 0.271315 0.625332 -0.283083
H277  H     H_    0.413564 0.276639 0.642680 0.149567
H278  H     H_    0.361627 0.323352 0.612335 0.216589
H279  H     H_    0.385682 0.229970 0.608236 0.151507
O146  O     O_3   0.675595 0.730526 0.366811 -0.593316
C286  C     C_3   0.714553 0.770008 0.389503 -0.238093
H280  H     H_    0.746905 0.815889 0.379464 0.123623
H281  H     H_    0.750400 0.733139 0.403165 0.198033
H282  H     H_    0.675311 0.793580 0.406022 0.170063
O147  O     O_3   0.058058 0.849714 0.677161 -0.557378
C287  C     C_3   0.060046 0.832724 0.645094 -0.259170
H283  H     H_    0.086096 0.779357 0.640583 0.104608
H284  H     H_    0.087468 0.876463 0.631501 0.218560
H285  H     H_    0.003601 0.829178 0.636291 0.177109
O148  O     O_3   0.789108 0.281863 0.369386 -0.593191
C288  C     C_3   0.830829 0.230512 0.386307 -0.276266
H286  H     H_    0.874948 0.207102 0.371976 0.131763
H287  H     H_    0.796486 0.186444 0.396208 0.214327
H288  H     H_    0.856254 0.258315 0.406410 0.173770

loop_
_geom_bond_atom_site_label_1
_geom_bond_atom_site_label_2
_geom_bond_distance
_ccdc_geom_bond_type
C273  H242  1.113431 S    
O83   C223  1.410251 S    
O112  C252  1.409844 S    
C121  C136  1.405369 A    
O69   C209  1.409047 S    
C28   C144  1.407754 A    
C4    C68   1.404551 A    
C248  H166  1.112668 S    
C283  H273  1.109072 S    
C91   C123  1.428000 A    
Zn5   O51   1.956524 S    
C266  H222  1.109121 S    
C167  C185  1.427552 A    
C272  H238  1.114623 S    
C278  H256  1.108601 S    
C198  H17   1.114528 S    
C54   C188  1.471953 S    
C276  H250  1.113359 S    
C169  C183  1.450891 A    
C232  H120  1.109334 S    
C136  O118  1.382360 S    
C274  H245  1.113260 S    
C249  H171  1.109253 S    
C170  C184  1.417458 A    
O54   C194  1.418417 S    
C265  H217  1.115224 S    
C32   C144  1.408523 A    
O109  C249  1.412221 S    
C134  O120  1.384195 S    
O20   C40   1.281991 A    
Zn1   O40   1.943570 S    
C236  H131  1.110241 S    
C2    O86   1.383316 S    
C103  C162  1.438067 A    
Zn2   O39   1.943572 S    
N4    N7    1.331338 A    
O106  C246  1.410359 S    
C24   C140  1.407006 A    
C281  H266  1.109400 S    
C92   C173  1.439313 A    
C204  H36   1.108115 S    
C261  H205  1.108222 S    
O24   C44   1.277990 A    
Zn7   O3    1.946249 S    
Zn16  O9    1.921346 S    
O72   C212  1.415540 S    
C209  H51   1.113691 S    
O89   C229  1.410872 S    
C154  C186  1.406409 A    
O122  C262  1.410642 S    
C102  C163  1.410816 A    
O5    C33   1.288369 A    
C256  H191  1.110675 S    
Zn13  O35   1.956524 S    
C95   C170  1.435505 A    
C209  H49   1.105007 S    
C275  H249  1.109277 S    
Zn14  O36   1.956525 S    
O14   C38   1.293662 A    
Zn2   O48   1.949034 S    
C243  H151  1.108211 S    
C123  C134  1.405417 A    
C255  H189  1.109179 S    
Zn3   O3    1.955425 S    
O114  C254  1.413432 S    
C23   C139  1.410341 A    
C201  H27   1.106350 S    
C199  H21   1.106377 S    
C111  C114  1.409908 A    
C87   C146  1.426440 A    
C260  H203  1.109795 S    
C6    O90   1.381239 S    
O51   C45   1.284735 A    
N14   C57   1.355578 A    
C96   O76   1.380837 S    
C211  H55   1.113838 S    
C208  H47   1.112743 S    
C109  O143  1.385291 S    
C222  H90   1.112863 S    
C238  H137  1.108415 S    
C99   C131  1.390793 A    
O8    C36   1.284105 A    
C10   O94   1.390577 S    
C250  H172  1.113352 S    
C195  H9    1.106794 S    
C7    C23   1.405818 A    
C113  O139  1.383886 S    
C106  O148  1.387150 S    
C268  H228  1.108665 S    
C62   C137  1.477473 S    
O66   C206  1.411843 S    
C112  C113  1.395521 A    
C265  H219  1.109322 S    
C204  H34   1.114169 S    
C29   O113  1.386264 S    
C13   C69   1.402679 A    
C258  H196  1.112293 S    
C31   O115  1.382342 S    
C252  H180  1.109136 S    
C82   C114  1.404145 A    
C31   C143  1.412593 A    
C86   O66   1.382708 S    
O30   C50   1.286635 A    
O40   C50   1.273002 A    
C198  H16   1.110286 S    
C224  H96   1.109223 S    
C230  H113  1.114198 S    
O68   C208  1.414591 S    
O110  C250  1.410136 S    
C210  H52   1.105701 S    
N1    N6    1.329080 A    
C286  H281  1.109700 S    
O64   C204  1.410256 S    
C264  H214  1.113672 S    
O47   C41   1.287631 A    
C212  H58   1.110564 S    
C3    C19   1.408074 A    
C267  H224  1.109361 S    
O84   C224  1.411382 S    
C219  H80   1.111993 S    
C14   O98   1.384031 S    
C97   O77   1.383124 S    
C244  H155  1.113934 S    
O12   C36   1.288509 A    
O125  C265  1.413808 S    
N7    C64   1.360195 A    
C248  H168  1.109157 S    
C197  H13   1.111112 S    
C277  H254  1.114108 S    
C214  H64   1.109805 S    
C222  H88   1.107584 S    
C272  H240  1.108280 S    
C18   C138  1.415511 A    
C58   C141  1.475331 S    
N12   N15   1.331806 A    
C269  H229  1.114585 S    
C216  H70   1.109654 S    
C276  H252  1.108642 S    
O42   C56   1.275553 A    
C124  C133  1.401244 A    
O6    C34   1.288273 A    
C249  H169  1.115865 S    
C130  O124  1.379077 S    
Zn13  O4    1.933352 S    
C218  H77   1.112104 S    
C173  C179  1.446656 A    
Zn14  O3    1.933353 S    
C64   C139  1.478539 S    
C174  C180  1.443088 A    
C84   O64   1.383850 S    
C279  H259  1.113217 S    
C175  C177  1.430252 A    
C257  H195  1.108644 S    
C254  H186  1.109809 S    
C21   O105  1.383743 S    
C96   C169  1.445511 A    
O34   C54   1.274614 A    
C241  H145  1.113338 S    
C88   O68   1.379651 S    
C122  C135  1.397048 A    
O28   C48   1.269927 A    
O121  C261  1.411495 S    
O29   C49   1.295478 A    
N16   C59   1.354458 A    
C251  H177  1.109137 S    
C100  C165  1.420569 A    
C92   C124  1.410624 A    
C277  H255  1.105177 S    
C9    C69   1.408546 A    
O126  C266  1.414331 S    
C232  H118  1.109723 S    
C278  H258  1.112200 S    
C119  O133  1.380388 S    
C227  H103  1.107339 S    
O50   C48   1.276511 A    
C88   C120  1.398556 A    
C12   C72   1.405451 A    
N9    N14   1.328125 A    
C243  H153  1.109199 S    
C247  H164  1.114942 S    
C235  H127  1.111497 S    
C268  H227  1.109107 S    
C287  H284  1.109312 S    
C262  H210  1.109343 S    
Zn15  O33   1.939218 S    
C228  H108  1.099876 S    
C86   C118  1.403358 A    
C262  H208  1.112548 S    
C14   C30   1.405835 A    
C73   O53   1.386900 S    
Zn4   O4    1.955426 S    
C74   O54   1.376332 S    
C234  H126  1.104211 S    
O104  C244  1.409681 S    
C203  H32   1.111424 S    
O131  C271  1.414371 S    
C90   C122  1.399498 A    
C240  H143  1.114923 S    
C213  H61   1.113024 S    
Zn13  O28   1.945666 S    
C63   C140  1.466815 S    
Zn9   O12   1.912538 S    
O44   C54   1.277747 A    
C84   C149  1.420557 A    
C19   O103  1.385172 S    
Zn10  O11   1.912538 S    
Zn15  O2    1.946249 S    
C253  H182  1.109451 S    
C40   C65   1.461043 S    
C14   C70   1.412103 A    
Zn11  O2    1.955425 S    
O133  C273  1.413081 S    
O33   C53   1.278712 A    
N6    C61   1.356960 A    
O119  C259  1.410959 S    
O37   C51   1.286484 A    
C220  H82   1.114229 S    
C6    C66   1.404712 A    
C132  O122  1.381960 S    
O120  C260  1.408612 S    
C241  H147  1.112611 S    
C53   C187  1.483331 S    
C77   C156  1.414390 A    
O117  C257  1.411424 S    
C251  H175  1.113948 S    
C102  C134  1.393461 A    
C284  H274  1.114771 S    
C91   O71   1.383109 S    
C90   O70   1.379637 S    
C128  O126  1.389399 S    
C271  H235  1.115068 S    
C255  H188  1.113212 S    
O22   C42   1.270484 A    
C2    C66   1.405971 A    
O7    C35   1.285697 A    
N11   N16   1.328293 A    
C242  H150  1.109131 S    
C200  H23   1.113430 S    
C253  H183  1.109736 S    
O70   C210  1.416352 S    
O123  C263  1.413012 S    
C51   C185  1.484600 S    
O60   C200  1.415363 S    
C94   C126  1.413343 A    
C3    O87   1.380411 S    
C288  H286  1.114496 S    
C96   C128  1.416994 A    
C161  C176  1.394124 A    
C83   O63   1.381988 S    
C207  H43   1.113114 S    
C264  H216  1.109305 S    
C201  H26   1.112194 S    
C162  C175  1.420818 A    
C22   O106  1.382939 S    
C8    C24   1.419185 A    
C246  H160  1.109156 S    
C215  H67   1.113390 S    
C163  C189  1.419184 A    
C75   C158  1.415044 A    
C200  H22   1.105170 S    
C92   O72   1.375725 S    
Zn14  O27   1.945665 S    
C112  O142  1.384878 S    
C275  H248  1.110104 S    
C39   C66   1.467480 S    
C202  H28   1.109009 S    
O18   C38   1.285536 A    
O53   C193  1.412206 S    
C41   C183  1.495062 S    
C194  H6    1.104932 S    
C124  O130  1.389087 S    
C280  H263  1.113693 S    
C42   C184  1.452961 S    
C279  H261  1.107845 S    
C76   O56   1.375668 S    
C4    C20   1.406956 A    
C199  H20   1.109649 S    
C204  H35   1.112407 S    
C221  H86   1.111291 S    
C151  C183  1.429313 A    
C216  H72   1.107323 S    
C226  H101  1.113130 S    
C229  H109  1.113259 S    
C13   O97   1.383649 S    
C227  H105  1.108012 S    
O92   C232  1.413152 S    
Zn12  O30   1.944254 S    
C18   O102  1.383515 S    
C145  C160  1.411112 A    
C167  C170  1.412766 A    
C126  O128  1.386987 S    
C85   C117  1.389006 A    
C207  H45   1.109410 S    
O13   C37   1.288496 A    
C202  H29   1.114306 S    
C195  H8    1.106104 S    
C5    O89   1.384897 S    
C99   O79   1.384466 S    
C196  H10   1.111098 S    
C78   O58   1.377611 S    
O25   C45   1.282689 A    
C221  H87   1.108401 S    
C234  H124  1.109602 S    
O147  C287  1.413513 S    
C259  H199  1.108967 S    
C24   O108  1.382824 S    
C246  H162  1.112577 S    
C77   C109  1.425260 A    
C104  C161  1.426998 A    
C7    O91   1.380454 S    
C9    O93   1.381204 S    
C128  C129  1.397936 A    
C209  H50   1.108623 S    
C165  C172  1.389649 A    
C116  O138  1.382556 S    
N13   C58   1.358714 A    
C282  H269  1.108639 S    
C205  H38   1.110492 S    
O59   C199  1.405446 S    
C206  H41   1.114096 S    
O82   C222  1.413253 S    
C151  C154  1.394164 A    
C217  H74   1.110070 S    
C244  H156  1.109133 S    
C2    C18   1.408524 A    
C159  C191  1.450646 A    
C80   C153  1.428343 A    
C223  H91   1.111401 S    
O78   C218  1.416949 S    
C30   O114  1.384061 S    
C57   C142  1.471139 S    
C284  H275  1.108979 S    
C147  C179  1.426644 A    
C275  H247  1.115440 S    
C265  H218  1.109345 S    
C148  C180  1.426558 A    
Zn5   O44   1.945666 S    
O31   C51   1.281345 A    
Zn6   O43   1.945665 S    
O32   C52   1.284917 A    
C271  H237  1.109377 S    
C147  C158  1.391942 A    
O10   C34   1.288127 A    
C231  H116  1.111231 S    
O116  C256  1.411167 S    
C266  H221  1.109047 S    
C224  H94   1.114095 S    
Zn8   O37   1.954299 S    
C117  O135  1.381193 S    
C89   C121  1.417614 A    
C242  H148  1.110631 S    
C80   C112  1.401204 A    
C80   O60   1.380482 S    
O45   C43   1.285328 A    
C145  C177  1.423677 A    
C232  H119  1.114666 S    
C205  H39   1.109199 S    
Zn1   O1    1.956800 S    
C263  H213  1.106896 S    
C288  H288  1.108671 S    
C93   O73   1.390969 S    
O19   C39   1.283058 A    
C99   C166  1.422778 A    
O77   C217  1.412259 S    
C78   C155  1.444905 A    
C281  H267  1.109545 S    
C89   O69   1.389032 S    
C215  H69   1.109503 S    
C21   C137  1.413175 A    
C250  H173  1.113560 S    
C210  H54   1.113337 S    
C251  H176  1.107183 S    
O62   C202  1.410408 S    
C211  H57   1.095585 S    
C233  H121  1.111657 S    
O102  C242  1.411787 S    
C26   O110  1.383763 S    
C149  C181  1.424155 A    
C127  C130  1.400348 A    
C231  H115  1.104770 S    
C220  H83   1.110377 S    
C285  H277  1.113602 S    
C5    C21   1.411653 A    
O95   C235  1.409579 S    
C160  C192  1.420355 A    
C83   C115  1.388922 A    
C193  H1    1.115696 S    
C168  C169  1.426520 A    
C214  H66   1.106376 S    
C114  O140  1.380261 S    
O86   C226  1.410780 S    
C236  H130  1.108754 S    
C55   C189  1.500342 S    
C20   C140  1.400343 A    
O85   C225  1.408697 S    
Zn1   O20   1.912538 S    
C9    C25   1.408072 A    
C239  H139  1.113165 S    
C261  H207  1.115272 S    
O35   C55   1.280202 A    
Zn2   O19   1.912538 S    
C146  C178  1.418410 A    
O74   C214  1.417097 S    
C49   C191  1.487127 S    
C19   C139  1.413389 A    
O107  C247  1.414573 S    
C16   C32   1.413015 A    
C274  H244  1.109276 S    
C211  H56   1.107154 S    
O129  C269  1.413421 S    
C12   O96   1.382228 S    
C101  O81   1.384298 S    
O127  C267  1.414451 S    
C222  H89   1.115188 S    
C208  H46   1.106786 S    
O124  C264  1.409971 S    
C245  H157  1.115242 S    
C103  O83   1.384004 S    
C73   C160  1.434104 A    
Zn16  O34   1.939219 S    
C284  H276  1.108523 S    
C267  H225  1.109552 S    
C15   C31   1.405971 A    
N3    N8    1.328194 A    
C257  H194  1.111279 S    
C100  C132  1.400421 A    
Zn5   O1    1.933352 S    
C259  H201  1.113450 S    
Zn4   O46   1.944254 S    
C166  C171  1.425559 A    
C263  H211  1.115889 S    
O96   C236  1.410177 S    
O41   C55   1.289146 A    
Zn11  O26   1.945521 S    
C280  H262  1.112426 S    
C157  C189  1.440497 A    
C228  H107  1.116041 S    
C95   O75   1.388273 S    
C225  H97   1.106892 S    
O16   C40   1.284115 A    
O71   C211  1.425007 S    
Zn16  O1    1.946253 S    
C224  H95   1.111779 S    
C193  H3    1.109533 S    
C15   C71   1.400211 A    
Zn12  O1    1.955426 S    
C230  H114  1.109165 S    
C237  H134  1.108717 S    
C108  C117  1.402039 A    
O142  C282  1.414460 S    
C60   C143  1.482200 S    
C8    O92   1.390035 S    
C38   C67   1.473398 S    
C44   C178  1.453985 S    
C73   C105  1.408683 A    
Zn4   O13   1.916681 S    
C131  O121  1.381188 S    
C223  H93   1.107802 S    
Zn16  O21   1.954299 S    
Zn5   O16   1.924430 S    
C16   C72   1.409190 A    
C5    C65   1.403848 A    
Zn6   O15   1.924430 S    
C244  H154  1.113121 S    
N1    C62   1.355894 A    
C248  H167  1.113631 S    
C235  H129  1.106242 S    
C197  H14   1.109452 S    
C228  H106  1.109470 S    
C203  H33   1.101280 S    
C272  H239  1.108748 S    
C256  H190  1.112709 S    
C198  H18   1.108105 S    
C269  H230  1.109959 S    
C104  C136  1.401278 A    
C105  C120  1.399182 A    
O65   C205  1.413716 S    
C104  O84   1.385736 S    
C274  H246  1.113697 S    
C249  H170  1.107090 S    
C237  H135  1.099927 S    
O87   C227  1.413680 S    
C75   C107  1.423712 A    
O101  C241  1.410352 S    
O128  C268  1.413302 S    
C6    C22   1.400184 A    
C279  H260  1.110512 S    
O67   C207  1.408712 S    
C254  H185  1.114941 S    
O90   C230  1.409187 S    
C203  H31   1.111495 S    
C241  H146  1.109169 S    
C61   C138  1.483178 S    
C171  C181  1.447588 A    
C16   O100  1.387446 S    
C10   C26   1.415148 A    
Zn9   O24   1.943570 S    
C121  O131  1.385927 S    
C230  H112  1.110751 S    
Zn10  O23   1.943572 S    
C225  H99   1.110943 S    
C227  H104  1.114363 S    
O115  C255  1.409807 S    
C278  H257  1.110892 S    
C164  C190  1.423401 A    
O93   C233  1.410603 S    
C81   C113  1.398142 A    
C30   C142  1.410121 A    
C225  H98   1.112917 S    
C216  H71   1.116590 S    
C4    O88   1.383156 S    
Zn9   O4    1.956800 S    
O55   C195  1.406354 S    
C111  O141  1.385909 S    
C231  H117  1.105791 S    
C79   C111  1.418544 A    
Zn10  O3    1.956804 S    
C238  H136  1.108926 S    
C218  H78   1.114530 S    
N2    N5    1.329447 A    
C207  H44   1.108359 S    
C196  H12   1.107896 S    
C262  H209  1.113139 S    
Zn8   O4    1.946253 S    
C76   C108  1.408894 A    
C101  C133  1.391688 A    
O27   C47   1.282473 A    
C239  H141  1.106265 S    
N11   C60   1.356794 A    
C234  H125  1.114934 S    
Zn9   O31   1.949036 S    
C260  H204  1.108744 S    
O48   C42   1.281104 A    
Zn10  O32   1.949034 S    
C245  H159  1.109111 S    
Zn7   O18   1.921346 S    
C212  H60   1.107155 S    
C213  H62   1.107415 S    
C258  H197  1.113483 S    
N4    C63   1.354875 A    
C163  C174  1.403819 A    
O136  C276  1.405841 S    
C261  H206  1.110714 S    
C270  H232  1.115238 S    
C17   C137  1.412299 A    
C93   C172  1.419271 A    
O98   C238  1.406822 S    
O80   C220  1.413508 S    
C270  H233  1.109127 S    
C84   C116  1.406051 A    
C257  H193  1.113387 S    
C283  H272  1.109339 S    
O76   C216  1.422059 S    
C97   C168  1.417037 A    
O56   C196  1.414838 S    
C255  H187  1.113256 S    
C287  H285  1.109221 S    
C109  C116  1.411594 A    
C85   C148  1.421715 A    
C161  C191  1.435562 A    
C85   O65   1.386984 S    
C240  H144  1.109375 S    
C213  H63   1.108006 S    
C74   C106  1.412957 A    
C27   C143  1.415873 A    
O63   C203  1.411254 S    
C135  O117  1.383916 S    
O39   C49   1.285448 A    
O132  C272  1.413327 S    
C258  H198  1.109404 S    
C120  O134  1.380294 S    
C242  H149  1.113780 S    
N10   N13   1.332479 A    
C168  C186  1.423272 A    
O137  C277  1.410554 S    
C162  C192  1.424340 A    
O36   C56   1.279337 A    
C263  H212  1.110381 S    
C286  H282  1.109324 S    
C74   C159  1.442864 A    
C87   C119  1.385159 A    
O146  C286  1.413226 S    
C105  O147  1.385456 S    
C264  H215  1.111827 S    
C91   C174  1.444952 A    
C48   C182  1.462007 S    
O139  C279  1.413511 S    
Zn3   O42   1.945521 S    
C82   O62   1.386253 S    
C226  H100  1.111240 S    
C219  H79   1.112484 S    
C81   C152  1.435144 A    
C215  H68   1.108414 S    
O94   C234  1.414042 S    
C236  H132  1.113077 S    
C152  C184  1.423542 A    
O52   C46   1.262653 A    
C153  C185  1.431905 A    
Zn7   O38   1.954300 S    
C277  H253  1.111405 S    
C45   C179  1.493662 S    
C208  H48   1.114684 S    
C197  H15   1.107440 S    
C126  C131  1.396231 A    
O88   C228  1.414316 S    
C88   C145  1.422473 A    
C83   C150  1.420361 A    
C81   O61   1.382667 S    
C206  H40   1.109140 S    
Zn8   O50   1.939219 S    
O138  C278  1.404780 S    
N10   C57   1.357420 A    
Zn2   O2    1.956804 S    
C50   C192  1.451006 S    
O57   C197  1.406810 S    
C165  C187  1.428932 A    
C202  H30   1.111370 S    
O118  C258  1.409460 S    
C218  H76   1.107234 S    
C166  C188  1.423381 A    
C59   C144  1.468059 S    
C98   O78   1.379195 S    
C77   O57   1.394513 S    
O81   C221  1.414538 S    
O99   C239  1.409534 S    
O143  C283  1.413716 S    
C103  C135  1.401967 A    
O141  C281  1.414349 S    
C152  C153  1.422935 A    
C108  O146  1.387126 S    
C12   C28   1.404874 A    
Zn12  O25   1.945522 S    
C229  H110  1.109115 S    
C127  O125  1.385602 S    
C247  H163  1.109523 S    
C149  C156  1.392710 A    
C240  H142  1.109594 S    
C17   O101  1.382886 S    
N15   C60   1.358982 A    
C106  C119  1.392727 A    
C150  C182  1.422298 A    
Zn7   O49   1.939218 S    
O134  C274  1.410751 S    
O43   C53   1.281500 A    
C56   C190  1.473267 S    
O103  C243  1.412616 S    
C269  H231  1.109368 S    
C95   C127  1.406234 A    
C129  O123  1.379555 S    
C118  O136  1.381219 S    
C287  H283  1.114980 S    
O97   C237  1.407324 S    
C270  H234  1.108849 S    
C93   C125  1.422606 A    
N9    C58   1.355689 A    
C36   C69   1.474444 S    
C226  H102  1.109333 S    
C1    O85   1.381851 S    
C146  C159  1.422902 A    
C29   C141  1.413810 A    
O135  C275  1.414224 S    
N8    C63   1.356055 A    
C23   O107  1.386485 S    
C276  H251  1.111982 S    
C229  H111  1.105935 S    
C259  H200  1.113505 S    
Zn4   O41   1.945522 S    
C133  O119  1.379642 S    
C252  H179  1.112116 S    
O79   C219  1.411409 S    
C246  H161  1.113451 S    
C107  C118  1.409828 A    
C76   C157  1.438692 A    
C1    C65   1.399932 A    
C150  C155  1.421346 A    
Zn6   O52   1.956525 S    
N3    C64   1.354488 A    
C260  H202  1.110439 S    
C123  O129  1.393414 S    
C3    C67   1.407781 A    
O100  C240  1.412910 S    
O17   C37   1.291863 A    
C210  H53   1.113572 S    
C217  H75   1.103267 S    
O61   C201  1.411381 S    
O75   C215  1.413859 S    
Zn1   O47   1.949036 S    
C235  H128  1.111289 S    
O144  C284  1.412374 S    
O49   C47   1.283645 A    
C223  H92   1.107187 S    
C237  H133  1.114374 S    
O21   C41   1.288533 A    
Zn3   O45   1.944256 S    
Zn6   O2    1.933353 S    
C125  C132  1.410193 A    
O23   C43   1.285963 A    
C15   O99   1.380087 S    
C283  H271  1.115866 S    
C158  C190  1.407949 A    
C89   C176  1.422357 A    
C176  C178  1.405159 A    
C90   C175  1.426792 A    
C25   C141  1.409453 A    
O140  C280  1.406294 S    
Zn15  O10   1.921346 S    
C110  O144  1.387778 S    
C94   C171  1.438632 A    
C233  H123  1.106703 S    
O105  C245  1.408540 S    
Zn12  O5    1.916681 S    
C75   O55   1.389413 S    
C43   C177  1.474807 S    
Zn13  O8    1.924430 S    
C288  H287  1.108611 S    
Zn14  O7    1.924430 S    
C28   O112  1.383396 S    
Zn3   O14   1.916681 S    
C98   C167  1.420315 A    
C214  H65   1.115031 S    
Zn15  O22   1.954300 S    
C8    C68   1.411383 A    
C201  H25   1.112335 S    
C94   O74   1.377435 S    
O91   C231  1.411186 S    
C219  H81   1.109222 S    
C10   C70   1.406864 A    
N12   C59   1.356400 A    
O38   C52   1.281650 A    
C86   C147  1.415709 A    
C78   C110  1.410221 A    
C33   C72   1.471973 S    
O145  C285  1.413227 S    
C34   C71   1.467290 S    
O26   C46   1.302367 A    
N2    C61   1.356606 A    
C233  H122  1.112232 S    
C220  H84   1.109165 S    
C281  H265  1.115898 S    
O73   C213  1.408168 S    
C79   C154  1.411673 A    
C115  O137  1.378900 S    
C243  H152  1.115502 S    
O108  C248  1.410207 S    
C11   O95   1.381267 S    
C205  H37   1.113216 S    
C285  H278  1.109519 S    
C101  C164  1.419186 A    
C273  H241  1.113543 S    
C102  O82   1.381953 S    
C280  H264  1.107095 S    
C193  H2    1.106612 S    
O46   C44   1.282843 A    
C13   C29   1.411884 A    
C194  H4    1.109469 S    
C256  H192  1.109186 S    
C1    C17   1.403089 A    
C199  H19   1.112312 S    
C239  H140  1.109861 S    
C221  H85   1.112329 S    
C82   C151  1.424347 A    
C282  H268  1.115007 S    
C172  C182  1.404323 A    
O58   C198  1.417927 S    
C46   C180  1.487493 S    
O130  C270  1.412988 S    
C238  H138  1.109448 S    
C247  H165  1.109378 S    
C87   O67   1.383744 S    
C26   C142  1.407311 A    
C267  H223  1.115618 S    
O111  C251  1.409160 S    
O9    C33   1.290184 A    
C97   C129  1.384332 A    
C125  O127  1.385458 S    
O11   C35   1.286801 A    
C35   C70   1.473075 S    
C285  H279  1.109411 S    
C20   O104  1.383461 S    
Zn11  O6    1.916681 S    
C245  H158  1.107522 S    
C37   C68   1.474865 S    
C155  C187  1.447928 A    
N5    C62   1.356134 A    
C100  O80   1.387941 S    
C250  H174  1.109158 S    
C148  C157  1.421363 A    
C195  H7    1.113510 S    
C156  C188  1.410998 A    
C27   O111  1.384010 S    
O15   C39   1.286588 A    
C254  H184  1.109156 S    
C196  H11   1.114807 S    
C271  H236  1.109257 S    
C11   C27   1.408000 A    
C268  H226  1.114811 S    
C200  H24   1.112879 S    
C7    C67   1.405782 A    
C32   O116  1.383443 S    
C286  H280  1.115090 S    
C122  O132  1.385819 S    
O148  C288  1.412717 S    
C212  H59   1.114993 S    
C22   C138  1.414225 A    
C253  H181  1.116110 S    
C11   C71   1.403361 A    
Zn8   O17   1.921346 S    
C79   O59   1.389082 S    
C252  H178  1.112202 S    
C25   O109  1.384549 S    
Zn11  O29   1.944256 S    
C164  C173  1.422062 A    
C110  C115  1.394331 A    
C282  H270  1.108897 S    
C273  H243  1.107492 S    
C107  O145  1.385815 S    
O113  C253  1.415600 S    
C206  H42   1.113227 S    
C98   C130  1.398872 A    
C217  H73   1.112921 S    
C52   C186  1.481384 S    
C47   C181  1.494362 S    
C266  H220  1.115189 S    
C194  H5    1.115502 S    
