data_mof_unit_50031.cif
_audit_creation_date              2012-12-10T17:33:53-0500
_audit_creation_method            fapswitch 2.2
_symmetry_space_group_name_H-M    P1
_symmetry_Int_Tables_number       1
_space_group_crystal_system       triclinic
_cell_length_a                    10.65282
_cell_length_b                    11.97109
_cell_length_c                    12.866283
_cell_angle_alpha                 94.129135
_cell_angle_beta                  89.392235
_cell_angle_gamma                 85.91485
_cell_volume                      1632.16272737

loop_
_atom_site_label
_atom_site_type_symbol
_atom_type_description
_atom_site_fract_x
_atom_site_fract_y
_atom_site_fract_z
_atom_type_partial_charge
C1    C     C_R   0.494217 0.523344 0.700909 0.923414
C2    C     C_R   0.512981 0.450122 0.973890 0.187285
C3    C     C_R   0.456431 0.547552 0.027939 0.101259
C4    C     C_R   0.742565 0.499415 0.498436 0.913297
C5    C     C_R   0.446033 0.552309 0.134803 -0.230698
C6    C     C_R   0.544576 0.362655 0.134876 -0.111934
C7    C     C_R   0.554673 0.356921 0.027171 -0.173533
C8    C     C_R   0.371665 0.955820 0.413965 -0.315533
C9    C     C_R   0.385070 0.839187 0.421014 0.045068
C10   C     C_R   0.557525 0.857403 0.534634 0.041613
C11   C     C_R   0.547252 0.975132 0.530486 0.085298
C12   C     C_3   0.121542 0.499520 0.500505 0.077878
C13   C     C_R   0.453009 0.024818 0.469163 0.083860
C14   C     C_R   0.443026 0.142536 0.464727 -0.039266
C15   C     C_R   0.614657 0.160798 0.579253 0.030639
C16   C     C_R   0.497753 0.477125 0.299609 0.948682
C17   C     C_R   0.628314 0.044134 0.585994 -0.298713
C18   C     C_R   0.257652 0.500074 0.501485 0.859140
C19   C     C_3   0.938772 0.378214 0.514396 -0.346435
C20   C     C_3   0.081353 0.378041 0.509475 -0.369320
C21   C     C_3   0.929300 0.535942 0.390620 0.339669
C22   C     C_3   0.919436 0.579306 0.587610 -0.510702
C23   C     C_3   0.072731 0.545161 0.397585 -0.439683
C24   C     C_3   0.879370 0.497553 0.496461 0.019553
C25   C     C_3   0.063422 0.575839 0.593220 -0.355532
C26   C     C_R   0.494024 0.461983 0.188244 -0.043609
C27   C     C_R   0.483369 0.539134 0.813220 -0.214183
C28   C     C_R   0.413379 0.640051 0.975197 -0.262989
C29   C     C_R   0.424658 0.637259 0.867347 0.460935
C30   C     C_R   0.527742 0.447489 0.867540 -0.318208
H1    H     H_    0.907254 0.314128 0.455319 0.239570
H2    H     H_    0.371790 0.182283 0.417439 0.127554
H3    H     H_    0.909160 0.353169 0.592203 0.162073
H4    H     H_    0.677569 0.214010 0.621605 0.124486
H5    H     H_    0.298258 0.991617 0.366182 0.154666
H6    H     H_    0.701601 0.008322 0.633884 0.153408
H7    H     H_    0.321878 0.785990 0.378975 0.124844
H8    H     H_    0.629183 0.817631 0.581504 0.132321
H9    H     H_    0.120590 0.342694 0.581065 0.177679
H10   H     H_    0.118318 0.322251 0.441407 0.221519
H11   H     H_    0.124607 0.499702 0.329952 0.216540
H12   H     H_    0.093687 0.662698 0.590894 0.224316
H13   H     H_    0.881967 0.666717 0.576109 0.190658
H14   H     H_    0.880306 0.556118 0.663089 0.195112
H15   H     H_    0.095190 0.543309 0.668225 0.198069
H16   H     H_    0.249382 0.910351 0.853123 0.385554
H17   H     H_    0.979063 0.294285 0.195336 0.388462
H18   H     H_    0.884250 0.620763 0.378628 0.084922
H19   H     H_    0.092940 0.634967 0.395176 0.145368
H20   H     H_    0.403711 0.627905 0.176661 0.152694
H21   H     H_    0.580606 0.291845 0.176325 0.179203
H22   H     H_    0.370403 0.714142 0.018616 0.203198
H23   H     H_    0.597038 0.281154 0.985956 0.144117
H24   H     H_    0.573618 0.372709 0.826902 0.178453
N1    N     N_R   0.523380 0.207800 0.519350 -0.102189
N2    N     N_R   0.476620 0.792180 0.480650 -0.098364
O1    O     O_R   0.506240 0.421700 0.658830 -0.639010
O2    O     O_2   0.274691 0.720887 0.720544 -0.328496
O3    O     O_3   0.278785 0.846070 0.893129 -0.566538
O4    O     O_2   0.767545 0.401457 0.286908 -0.339984
O5    O     O_2   0.897134 0.513105 0.182681 -0.288204
O6    O     O_3   0.002942 0.336423 0.260356 -0.594234
O7    O     O_R   0.491240 0.609310 0.646410 -0.539805
O8    O     O_R   0.692710 0.406190 0.506230 -0.613310
O9    O     O_R   0.677700 0.593810 0.493810 -0.647281
O10   O     O_R   0.508760 0.390690 0.353590 -0.607224
O11   O     O_R   0.493760 0.578300 0.341170 -0.631421
O12   O     O_R   0.322300 0.406190 0.506190 -0.642398
O13   O     O_R   0.307290 0.593810 0.493770 -0.614097
O14   O     O_2   0.466571 0.815984 0.761966 -0.311357
S1    S     S_3+6 0.360906 0.756626 0.806402 0.015732
S2    S     S_3+6 0.894724 0.445883 0.276846 -0.017566
Zn1   Zn    Zn3+2 0.510020 0.374730 0.508290 0.964613
Zn2   Zn    Zn3+2 0.489980 0.625270 0.491710 1.009096

loop_
_geom_bond_atom_site_label_1
_geom_bond_atom_site_label_2
_ccdc_geom_bond_type
C25   H12   S    
O8    Zn1   S    
C6    C7    A    
O7    Zn2   S    
C1    O1    A    
C6    H21   S    
C27   C29   A    
C10   N2    A    
C4    O8    A    
C15   H4    S    
C19   C20   S    
C23   H11   S    
C20   H10   S    
C10   H8    S    
C12   C25   S    
C2    C30   A    
C21   H18   S    
C19   H1    S    
C30   H24   S    
C18   O13   A    
C9    H7    S    
C14   N1    A    
O11   Zn2   S    
O6    S2    S    
O13   Zn2   S    
C9    N2    A    
C13   C14   A    
C27   C30   A    
C28   H22   S    
C12   C23   S    
C12   C20   S    
C6    C26   A    
H17   O6    S    
C4    C24   S    
C1    O7    A    
O5    S2    D    
C16   O11   A    
C28   C29   A    
C17   H6    S    
C19   C24   S    
C2    C3    A    
C21   C23   S    
C16   C26   S    
C4    O9    A    
H16   O3    S    
C22   C24   S    
O2    S1    D    
C23   H19   S    
N2    Zn2   S    
C10   C11   A    
O4    S2    D    
C21   S2    S    
O1    Zn1   S    
C5    C26   A    
N1    Zn1   S    
C8    C13   A    
C25   H15   S    
C5    H20   S    
C11   C13   A    
O14   S1    D    
C16   O10   A    
O3    S1    S    
C1    C27   S    
C19   H3    S    
C21   C24   S    
C12   C18   S    
C15   C17   A    
C20   H9    S    
C7    H23   S    
C3    C28   A    
C22   H14   S    
C2    C7    A    
C3    C5    A    
O12   Zn1   S    
O10   Zn1   S    
C18   O12   A    
C22   C25   S    
C11   C17   A    
O9    Zn2   S    
C22   H13   S    
C14   H2    S    
C8    C9    A    
C29   S1    S    
C8    H5    S    
C15   N1    A    
