data_mof_unit_56615.cif
_audit_creation_date              2012-12-10T19:08:37-0500
_audit_creation_method            fapswitch 2.2
_symmetry_space_group_name_H-M    P1
_symmetry_Int_Tables_number       1
_space_group_crystal_system       triclinic
_cell_length_a                    15.956313
_cell_length_b                    10.877693
_cell_length_c                    9.553631
_cell_angle_alpha                 89.346037
_cell_angle_beta                  89.092454
_cell_angle_gamma                 90.937424
_cell_volume                      1657.66050422

loop_
_atom_site_label
_atom_site_type_symbol
_atom_type_description
_atom_site_fract_x
_atom_site_fract_y
_atom_site_fract_z
_atom_type_partial_charge
C1    C     C_R   0.499013 0.262546 0.500606 0.815225
C2    C     C_R   0.041526 0.428449 0.599696 -0.254059
C3    C     C_1   0.822922 0.503308 0.498593 -0.034147
C4    C     C_1   0.176818 0.502903 0.505065 -0.045499
C5    C     C_1   0.251998 0.501370 0.503177 -0.208598
C6    C     C_1   0.747821 0.501304 0.496998 -0.200625
C7    C     C_R   0.495536 0.059160 0.622271 0.110272
C8    C     C_R   0.498683 0.129645 0.499704 -0.116352
C9    C     C_R   0.503280 0.066121 0.371341 -0.212729
C10   C     C_R   0.504902 0.937162 0.369850 -0.228760
C11   C     C_R   0.502523 0.869694 0.496696 -0.069847
C12   C     C_R   0.341264 0.500019 0.500922 0.830660
C13   C     C_R   0.499704 0.935448 0.619681 0.048402
C14   C     C_3   0.495044 0.919281 0.773674 -0.547236
C15   C     C_3   0.489844 0.060714 0.779165 0.289671
C16   C     C_R   0.548792 0.582090 0.071559 0.173299
C17   C     C_R   0.445868 0.427906 0.077807 -0.187144
C18   C     C_R   0.442246 0.432121 0.928939 0.513038
C19   C     C_R   0.548091 0.584276 0.924410 0.132666
C20   C     C_3   0.641534 0.604575 0.917044 0.243958
C21   C     C_3   0.641623 0.594679 0.075904 -0.475832
C22   C     C_R   0.501115 0.737211 0.499093 0.788284
C23   C     C_R   0.658665 0.499617 0.498978 0.796588
C24   C     C_R   0.953882 0.429928 0.601477 0.474703
C25   C     C_R   0.912448 0.505471 0.504684 0.044166
C26   C     C_R   0.958421 0.582903 0.413025 -0.271808
C27   C     C_R   0.045751 0.582724 0.414044 -0.177341
C28   C     C_R   0.087224 0.505033 0.506702 0.090738
Cu1   Cu    Cu3+1 0.500000 0.499980 0.640670 0.970950
Cu2   Cu    Cu3+1 0.500000 0.500020 0.359330 0.937638
H1    H     H_    0.073742 0.367462 0.670510 0.146933
H2    H     H_    0.544094 0.108906 0.827591 0.070325
H3    H     H_    0.405650 0.365280 0.137403 0.145176
H4    H     H_    0.676732 0.528900 0.866240 0.084705
H5    H     H_    0.671900 0.509655 0.114443 0.169697
H6    H     H_    0.661919 0.680258 0.129234 0.212939
H7    H     H_    0.505570 0.115323 0.272115 0.159019
H8    H     H_    0.507669 0.891113 0.269987 0.163387
H9    H     H_    0.436930 0.868962 0.807799 0.214937
H10   H     H_    0.553746 0.883720 0.817601 0.214507
N1    N     N_R   0.500520 0.500930 0.147930 -0.200669
N2    N     N_R   0.500520 0.500890 0.852020 -0.254933
O1    O     O_R   0.500000 0.319640 0.618810 -0.536649
O2    O     O_R   0.500010 0.319680 0.381230 -0.593461
O3    O     O_R   0.380300 0.499950 0.618760 -0.564070
O4    O     O_R   0.380310 0.499990 0.381180 -0.577183
O5    O     O_R   0.499990 0.680320 0.618770 -0.580627
O6    O     O_R   0.500000 0.680360 0.381190 -0.582288
O7    O     O_R   0.619690 0.500010 0.618820 -0.609400
O8    O     O_R   0.619700 0.500050 0.381240 -0.566967
O9    O     O_3   0.383097 0.360466 0.862295 -0.564038
C29   C     C_3   0.303037 0.415477 0.872296 0.107829
H11   H     H_    0.266498 0.381780 0.782030 0.187170
H12   H     H_    0.306388 0.517754 0.861451 0.121430
C30   C     C_3   0.254797 0.379317 0.007595 -0.430393
H13   H     H_    0.266823 0.282236 0.035939 0.237865
H14   H     H_    0.275534 0.438854 0.094490 0.215621
C31   C     C_3   0.160638 0.395750 0.992020 -0.909929
H15   H     H_    0.147178 0.492111 0.961152 0.252441
H16   H     H_    0.128135 0.374614 0.093323 0.268418
H17   H     H_    0.135908 0.332284 0.911749 0.251560
O10   O     O_3   0.663101 0.726998 0.876532 -0.612127
C32   C     C_3   0.706417 0.731042 0.746839 0.081527
H18   H     H_    0.661517 0.715197 0.661476 0.173068
H19   H     H_    0.757419 0.662577 0.742825 0.125461
C33   C     C_3   0.746055 0.858662 0.724585 -0.350131
H20   H     H_    0.696688 0.929450 0.729408 0.216182
H21   H     H_    0.791585 0.877009 0.809004 0.228084
C34   C     C_3   0.791314 0.868596 0.582826 -0.911017
H22   H     H_    0.746464 0.852712 0.496829 0.251273
H23   H     H_    0.842010 0.799982 0.576172 0.258461
H24   H     H_    0.819575 0.962036 0.569547 0.269674
O11   O     O_3   0.909772 0.348844 0.689062 -0.613257
C35   C     C_3   0.875975 0.412261 0.805138 0.054192
H25   H     H_    0.816262 0.364908 0.836658 0.166631
H26   H     H_    0.860092 0.509660 0.781381 0.114924
C36   C     C_3   0.936176 0.407705 0.928099 -0.365081
H27   H     H_    0.953526 0.310834 0.949681 0.236265
H28   H     H_    0.993969 0.461317 0.900265 0.214783
C37   C     C_3   0.896814 0.461682 0.059920 -0.906395
H29   H     H_    0.880574 0.559422 0.041633 0.255130
H30   H     H_    0.942196 0.456797 0.146567 0.269165
H31   H     H_    0.839286 0.408783 0.091393 0.255199
H32   H     H_    0.926733 0.642145 0.339601 0.165983
H33   H     H_    0.080902 0.642063 0.341727 0.152520
O12   O     O_3   0.410421 0.099157 0.826837 -0.541545
C38   C     C_3   0.402140 0.079830 0.973568 0.105492
H34   H     H_    0.407098 0.169826 0.025962 0.158755
H35   H     H_    0.451074 0.019953 0.019701 0.107529
C39   C     C_3   0.316269 0.021163 0.006598 -0.349468
H36   H     H_    0.266407 0.077183 0.958802 0.234519
H37   H     H_    0.313074 0.927962 0.960345 0.211844
C40   C     C_3   0.300160 0.010310 0.164199 -0.923347
H38   H     H_    0.346887 0.949166 0.212627 0.266066
H39   H     H_    0.236599 0.970330 0.184455 0.261114
H40   H     H_    0.303885 0.102286 0.213329 0.254896

loop_
_geom_bond_atom_site_label_1
_geom_bond_atom_site_label_2
_ccdc_geom_bond_type
C33   H21   S    
C38   H34   S    
C32   H19   S    
C40   H38   S    
Cu1   N2    S    
C1    C8    S    
O11   C35   S    
C22   O6    A    
C19   C20   S    
C30   H13   S    
C3    C6    T    
C7    C8    A    
C21   H6    S    
Cu1   O7    S    
C36   H27   S    
C26   C27   A    
C16   C21   S    
C35   H26   S    
Cu1   O5    S    
Cu2   O6    S    
C18   N2    A    
C37   H29   S    
C24   O11   S    
C23   O7    A    
C33   C34   S    
C31   H16   S    
C27   H33   S    
C34   H23   S    
C14   H9    S    
C1    O1    A    
C8    C9    A    
C35   C36   S    
Cu2   N1    S    
C9    C10   A    
C19   N2    A    
C20   H4    S    
C31   H17   S    
C7    C15   S    
C22   O5    A    
Cu2   O8    S    
C32   C33   S    
C40   H39   S    
C13   C14   S    
Cu1   O1    S    
Cu2   O2    S    
C17   H3    S    
C37   H31   S    
C4    C28   S    
C29   H12   S    
C18   O9    S    
C36   H28   S    
C35   H25   S    
O9    C29   S    
C3    C25   S    
C24   C25   A    
C5    C12   S    
C12   O4    A    
O12   C38   S    
C4    C5    T    
C23   O8    A    
C31   H15   S    
Cu1   O3    S    
C2    H1    S    
C34   H24   S    
Cu1   Cu2   S    
C1    O2    A    
C39   H37   S    
O10   C32   S    
C9    H7    S    
C17   C18   A    
C15   O12   S    
C37   H30   S    
C40   H40   S    
C30   H14   S    
C2    C24   A    
C38   C39   S    
C29   H11   S    
C39   C40   S    
C36   C37   S    
C26   H32   S    
Cu2   O4    S    
C12   O3    A    
C15   H2    S    
C29   C30   S    
C21   H5    S    
C11   C22   S    
C10   H8    S    
C38   H35   S    
C25   C26   A    
C11   C13   A    
C39   H36   S    
C16   C19   A    
C6    C23   S    
C33   H20   S    
C20   O10   S    
C34   H22   S    
C17   N1    A    
C10   C11   A    
C14   H10   S    
C32   H18   S    
C7    C13   A    
C20   C21   S    
C30   C31   S    
C27   C28   A    
C14   C15   S    
C2    C28   A    
C16   N1    A    
