data_mof_unit_21694.cif
_audit_creation_date              2013-03-05T15:48:29-0500
_audit_creation_method            fapswitch 2.2
_symmetry_space_group_name_H-M    P1
_symmetry_Int_Tables_number       1
_space_group_crystal_system       triclinic
_cell_length_a                    20.087351
_cell_length_b                    7.147813
_cell_length_c                    13.920711
_cell_angle_alpha                 89.26222
_cell_angle_beta                  103.377802
_cell_angle_gamma                 90.619926
_cell_volume                      1944.28532849

loop_
_atom_site_label
_atom_site_type_symbol
_atom_site_description
_atom_site_fract_x
_atom_site_fract_y
_atom_site_fract_z
_atom_type_partial_charge
O1    O     O_R   0.449830 0.506740 0.599960 -0.594724
O2    O     O_R   0.550170 0.006740 0.400040 -0.588960
O3    O     O_R   0.588980 0.179860 0.596720 -0.594727
O4    O     O_R   0.411020 0.679860 0.403280 -0.575075
C1    C     C_R   0.616794 0.344141 0.617188 1.053182
C2    C     C_R   0.383045 0.844764 0.383129 1.069692
O5    O     O_R   0.452740 0.177340 0.612040 -0.582987
O6    O     O_R   0.547260 0.677340 0.387960 -0.593538
O7    O     O_R   0.412960 0.002070 0.415460 -0.571631
O8    O     O_R   0.587040 0.502070 0.584540 -0.595015
C3    C     C_R   0.434431 0.344202 0.634696 1.135139
C4    C     C_R   0.565406 0.847830 0.365167 1.114763
O9    O     O_3   0.487110 0.337570 0.435490 -0.242600
O10   O     O_3   0.512890 0.837570 0.564510 -0.262071
V1    V     V_3+5 0.502390 0.064650 0.511970 1.328785
V2    V     V_3+5 0.497610 0.564650 0.488030 1.317624
C5    C     C_R   0.615927 0.982686 0.131947 0.725333
C6    C     C_R   0.388052 0.315862 0.878402 0.738564
C7    C     C_R   0.605849 0.868404 0.291256 -0.476646
C8    C     C_R   0.393929 0.347543 0.708791 -0.507217
C9    C     C_R   0.933929 0.817763 0.314503 0.724499
C10   C     C_R   0.063970 0.316784 0.685435 0.729170
C11   C     C_R   0.900072 0.819745 0.391062 -0.325954
C12   C     C_R   0.098164 0.293076 0.610424 -0.314505
C13   C     C_R   0.829473 0.844476 0.371559 0.701458
C14   C     C_R   0.169280 0.305713 0.629143 0.705842
C15   C     C_R   0.790241 0.853968 0.273038 -0.071941
C16   C     C_R   0.208601 0.346046 0.725581 -0.066738
C17   C     C_R   0.825922 0.863071 0.195512 -0.081967
C18   C     C_R   0.172788 0.368441 0.802277 -0.080730
C19   C     C_R   0.717279 0.865998 0.248577 0.100070
C20   C     C_R   0.282009 0.352117 0.750680 0.106567
C21   C     C_R   0.683449 0.915607 0.150812 -0.363437
C22   C     C_R   0.317047 0.350187 0.851971 -0.375622
C23   C     C_R   0.717582 0.894908 0.074530 0.449025
C24   C     C_R   0.280880 0.384761 0.924649 0.455785
C25   C     C_R   0.788573 0.876307 0.097462 -0.258166
C26   C     C_R   0.209912 0.394875 0.899516 -0.254209
C27   C     C_R   0.675749 0.825154 0.315699 -0.231367
C28   C     C_R   0.322515 0.361410 0.679875 -0.225992
C29   C     C_R   0.578289 0.964167 0.203209 0.699536
C30   C     C_R   0.426007 0.320268 0.807527 0.696524
C31   C     C_R   0.898223 0.850506 0.217015 -0.385240
C32   C     C_R   0.100310 0.358306 0.781336 -0.386266
H1    H     H_    0.696140 0.759313 0.386455 0.218712
H2    H     H_    0.300697 0.386049 0.602568 0.227752
H3    H     H_    0.929111 0.805998 0.466698 0.242407
H4    H     H_    0.069248 0.256948 0.537175 0.238827
H5    H     H_    0.814407 0.865737 0.037645 0.161306
H6    H     H_    0.183896 0.422438 0.957776 0.137246
C33   C     C_3   0.234028 0.743161 0.149573 -0.583077
C34   C     C_3   0.773545 0.188155 0.830065 -0.520374
H7    H     H_    0.215134 0.596416 0.146522 0.287881
H8    H     H_    0.799679 0.060578 0.813070 0.302330
H9    H     H_    0.231082 0.784913 0.071563 0.202204
H10   H     H_    0.775898 0.179442 0.910482 0.208979
C35   C     C_3   0.308855 0.752030 0.214559 0.269642
C36   C     C_3   0.698730 0.188629 0.766200 0.265589
H11   H     H_    0.324436 0.605371 0.232659 0.210217
H12   H     H_    0.692449 0.054528 0.725589 0.171061
H13   H     H_    0.271041 0.598914 0.371928 0.281757
H14   H     H_    0.740609 0.177069 0.598995 0.254819
C37   C     C_3   0.183265 0.772178 0.298010 1.000930
C38   C     C_3   0.818531 0.353775 0.696951 1.025138
C39   C     C_3   0.219988 0.063063 0.208387 0.534634
C40   C     C_3   0.768954 0.536595 0.821560 0.510059
C41   C     C_3   0.185173 0.863359 0.194083 -0.476842
C42   C     C_3   0.813599 0.363017 0.808329 -0.493867
H15   H     H_    0.235649 0.100132 0.139337 0.141444
H16   H     H_    0.754925 0.524521 0.894151 0.123286
C43   C     C_3   0.311451 0.854217 0.314329 -0.430528
C44   C     C_3   0.687932 0.350821 0.686901 -0.434878
C45   C     C_3   0.258507 0.749646 0.362346 -0.650905
C46   C     C_3   0.744607 0.321982 0.628320 -0.663740
C47   C     C_3   0.283219 0.059235 0.295763 0.063340
C48   C     C_3   0.703366 0.545527 0.736657 0.077979
H17   H     H_    0.264555 0.098712 0.362283 0.172367
H18   H     H_    0.715227 0.642718 0.679586 0.172731
H19   H     H_    0.263142 0.802749 0.438430 0.193813
H20   H     H_    0.734873 0.413042 0.561380 0.205939
O11   O     O_R   0.912980 0.203550 0.915410 -0.585024
O12   O     O_R   0.087020 0.703550 0.084590 -0.572348
O13   O     O_R   0.047270 0.535570 0.887960 -0.597009
O14   O     O_R   0.952730 0.035570 0.112040 -0.596041
C49   C     C_R   0.062505 0.368466 0.860653 1.082602
C50   C     C_R   0.936885 0.866006 0.138624 1.066689
O15   O     O_R   0.911030 0.532970 0.903270 -0.534006
O16   O     O_R   0.088970 0.032970 0.096730 -0.545996
O17   O     O_R   0.949820 0.708150 0.099970 -0.599997
O18   O     O_R   0.050180 0.208150 0.900030 -0.600930
C51   C     C_R   0.884214 0.365666 0.880827 1.053591
C52   C     C_R   0.114930 0.865607 0.120978 1.049372
O19   O     O_3   0.012900 0.375230 0.064480 -0.257725
O20   O     O_3   0.987100 0.875230 0.935520 -0.264080
V3    V     V_3+5 0.997610 0.648190 0.988040 1.323623
V4    V     V_3+5 0.002390 0.148190 0.011960 1.318930
F1    F     F_    0.515237 0.041571 0.186433 -0.542685
F2    F     F_    0.494712 0.303427 0.836279 -0.544616
N1    N     N_R   0.358113 0.831696 0.162027 0.294973
O21   O     O_R   0.422154 0.786143 0.191376 -0.282262
O22   O     O_R   0.338729 0.927860 0.080368 -0.291814
N2    N     N_R   0.647885 0.189462 0.826852 0.304615
O23   O     O_R   0.589118 0.107400 0.794270 -0.201638
O24   O     O_R   0.663402 0.247181 0.917799 -0.293105
F3    F     F_    0.153814 0.595265 0.282810 -0.594880
F4    F     F_    0.858439 0.202109 0.685412 -0.606139
F5    F     F_    0.177032 0.204085 0.223959 -0.584564
F6    F     F_    0.804923 0.702877 0.820564 -0.650459
N3    N     N_R   0.333738 0.203127 0.285123 0.269143
O25   O     O_R   0.375928 0.180436 0.228268 -0.214020
O26   O     O_R   0.345426 0.338701 0.348181 -0.406276
N4    N     N_R   0.644456 0.627671 0.766039 0.273888
O27   O     O_R   0.610596 0.538149 0.821084 -0.236818
O28   O     O_R   0.618548 0.781104 0.723042 -0.321534
N5    N     N_R   0.142775 0.879511 0.353676 0.250920
O29   O     O_R   0.103035 0.015309 0.313172 -0.281351
O30   O     O_R   0.139221 0.821490 0.441405 -0.294096
N6    N     N_R   0.851821 0.524543 0.668923 0.255419
O31   O     O_R   0.818012 0.648930 0.608369 -0.334319
O32   O     O_R   0.916436 0.555516 0.706505 -0.293787
N7    N     N_R   0.680194 0.863391 0.975165 0.277571
O33   O     O_R   0.712725 0.862586 0.905009 -0.412492
O34   O     O_R   0.618347 0.794826 0.957573 -0.211845
N8    N     N_R   0.315926 0.426314 0.023522 0.270518
O35   O     O_R   0.288917 0.376719 0.095840 -0.431795
O36   O     O_R   0.368322 0.539436 0.040163 -0.253715
F7    F     F_    0.587824 0.077834 0.047469 -0.518230
F8    F     F_    0.420964 0.268592 0.972064 -0.511793
F9    F     F_    0.001908 0.784574 0.335811 -0.612769
F10   F     F_    0.995370 0.288268 0.665183 -0.601561
F11   F     F_    0.801675 0.874555 0.449730 -0.641559
F12   F     F_    0.197880 0.259289 0.553708 -0.660989

loop_
_geom_bond_atom_site_label_1
_geom_bond_atom_site_label_2
_geom_bond_distance
_ccdc_geom_bond_type
C40   C42   1.576051 S    
O16   V4    2.037590 S    
O4    V2    2.037601 S    
O15   C51   1.317434 A    
C15   C17   1.427507 A    
N5    O30   1.302004 A    
O1    C3    1.313862 A    
C44   C48   1.558486 S    
O2    C4    1.307661 A    
C2    O7    1.304293 A    
N4    O28   1.297375 A    
C38   N6    1.476521 S    
O5    C3    1.315342 A    
C38   C42   1.578597 S    
C24   N8    1.426836 S    
C12   C14   1.393663 A    
C1    C44   1.531026 S    
N3    O26   1.298599 A    
C8    C28   1.401616 A    
C35   H11   1.106422 S    
C36   H12   1.110235 S    
N5    O29   1.300655 A    
C35   N1    1.466284 S    
C42   C51   1.538972 S    
O12   C52   1.335038 A    
C18   C26   1.400194 A    
O14   V4    2.044723 S    
C47   H17   1.116846 S    
N6    O31   1.300441 A    
C29   F1    1.356381 S    
C6    F8    1.358624 S    
C9    C31   1.398553 A    
C10   C32   1.399205 A    
O16   C52   1.318555 A    
C16   C18   1.430159 A    
C39   C41   1.577221 S    
O15   V3    2.034659 S    
C19   C21   1.415825 A    
C36   N2    1.468098 S    
C37   F3    1.388013 S    
C22   C24   1.401030 A    
C34   C42   1.543463 S    
C48   N4    1.468849 S    
C27   H1    1.079337 S    
C37   N5    1.473453 S    
O5    V1    2.067183 S    
C40   C48   1.554372 S    
O6    V2    2.044674 S    
C46   H20   1.110421 S    
C10   F10   1.354804 S    
C18   C32   1.418351 A    
N2    O23   1.299006 A    
C5    C21   1.408731 A    
N4    O27   1.295529 A    
C34   H8    1.111983 S    
C5    C29   1.383727 A    
C2    C43   1.534000 S    
C34   C36   1.559079 S    
C37   C41   1.587485 S    
C3    C8    1.454565 S    
C47   N3    1.467176 S    
C11   H3    1.083013 S    
C15   C19   1.429124 A    
C48   H18   1.113705 S    
C12   H4    1.083178 S    
C16   C20   1.434900 A    
C44   C46   1.562892 S    
C38   F4    1.388007 S    
C43   C45   1.560573 S    
O11   V4    2.018254 S    
C5    F7    1.358186 S    
C37   C45   1.577216 S    
H13   C45   1.108424 S    
C50   O17   1.310287 A    
C33   H7    1.109562 S    
C20   C22   1.422769 A    
O17   V3    2.061871 S    
N2    O24   1.303188 A    
C25   H5    1.082030 S    
N1    O21   1.300100 A    
C23   N7    1.432410 S    
O6    C4    1.323841 A    
O13   V3    2.067221 S    
C45   H19   1.112875 S    
O1    V2    2.046248 S    
C33   C41   1.548708 S    
C35   C43   1.567469 S    
O20   V4    2.218686 S    
O2    V1    2.058529 S    
C6    C22   1.411489 A    
C9    F9    1.351559 S    
N7    O33   1.294741 A    
C7    C27   1.403019 A    
C33   C35   1.565828 S    
O4    C2    1.310224 A    
N1    O22   1.302741 A    
O19   V4    1.778884 S    
C9    C11   1.390880 A    
C10   C12   1.389196 A    
C28   H2    1.076924 S    
C32   C49   1.480659 S    
C13   F11   1.353520 S    
C14   F12   1.354683 S    
C23   C25   1.394805 A    
N8    O36   1.299532 A    
O12   V3    2.017419 S    
O13   C49   1.318429 A    
C31   C50   1.481018 S    
H14   C46   1.113518 S    
C40   F6    1.385822 S    
O3    C1    1.301137 A    
C30   F2    1.351346 S    
C8    C30   1.388666 A    
C49   O18   1.309718 A    
O18   V4    2.049173 S    
C26   H6    1.082667 S    
C13   C15   1.416063 A    
C14   C16   1.422544 A    
C39   C47   1.542227 S    
C6    C30   1.379290 A    
O7    V1    2.028156 S    
C1    O8    1.309108 A    
O8    V2    2.029102 S    
N3    O25   1.299085 A    
C43   C47   1.573625 S    
C36   C44   1.572044 S    
C40   H16   1.112197 S    
C39   H15   1.106655 S    
C4    C7    1.456216 S    
C24   C26   1.389475 A    
C41   C52   1.537025 S    
C21   C23   1.400990 A    
C19   C27   1.415164 A    
C33   H9    1.110937 S    
C20   C28   1.416404 A    
O20   V3    1.765827 S    
N6    O32   1.299970 A    
N7    O34   1.301029 A    
O11   C51   1.334093 A    
C7    C29   1.396388 A    
C11   C13   1.393601 A    
O19   V3    2.200356 S    
O9    V2    1.779252 S    
C17   C25   1.399712 A    
C38   C46   1.584691 S    
O10   V1    1.766185 S    
O14   C50   1.319788 A    
O3    V1    2.034666 S    
C39   F5    1.385131 S    
C17   C31   1.417007 A    
C34   H10   1.110447 S    
N8    O35   1.293403 A    
