data_mof_unit_33792.cif
_audit_creation_date              2012-12-10T17:19:02-0500
_audit_creation_method            fapswitch 2.2
_symmetry_space_group_name_H-M    P1
_symmetry_Int_Tables_number       1
_space_group_crystal_system       triclinic
_cell_length_a                    10.254776
_cell_length_b                    10.801523
_cell_length_c                    13.610042
_cell_angle_alpha                 91.867221
_cell_angle_beta                  100.843858
_cell_angle_gamma                 95.714845
_cell_volume                      1471.23514881

loop_
_atom_site_label
_atom_site_type_symbol
_atom_type_description
_atom_site_fract_x
_atom_site_fract_y
_atom_site_fract_z
_atom_type_partial_charge
C1    C     C_R   0.054287 0.731573 0.495500 1.028097
C2    C     C_2   0.025655 0.066448 0.531695 -0.038183
C3    C     C_2   0.430684 0.518991 0.496724 -0.054528
C4    C     C_2   0.570168 0.489635 0.490052 -0.102595
C5    C     C_R   0.093766 0.512633 0.686094 0.901197
C6    C     C_R   0.905772 0.487486 0.314065 0.894211
C7    C     C_R   0.147540 0.534911 0.793287 -0.059736
C8    C     C_R   0.857194 0.491573 0.206253 -0.057750
C9    C     C_R   0.151364 0.645115 0.951616 -0.177119
C10   C     C_R   0.882795 0.464520 0.034228 -0.185998
C11   C     C_R   0.083071 0.602251 0.856121 -0.235874
C12   C     C_R   0.949170 0.268182 0.510991 0.969338
C13   C     C_R   0.934143 0.460095 0.136253 -0.201733
C14   C     C_R   0.276170 0.505557 0.828874 -0.146068
C15   C     C_R   0.731959 0.532310 0.173604 -0.150607
C16   C     C_R   0.353418 0.566748 0.915487 0.099125
C17   C     C_R   0.684120 0.548545 0.072463 0.114320
C18   C     C_R   0.287274 0.629494 0.981163 0.159339
C19   C     C_R   0.756778 0.505410 0.001933 0.162772
C20   C     C_R   0.493617 0.563375 0.939546 0.027393
C21   C     C_R   0.558783 0.593908 0.039717 0.020588
C22   C     C_2   0.567254 0.746124 0.189902 0.385866
C23   C     C_R   0.494281 0.666116 0.102493 -0.028604
C24   C     C_2   0.531280 0.546446 0.759266 0.368933
C25   C     C_2   0.156220 0.116190 0.597175 0.501294
C26   C     C_2   0.917290 0.918523 0.378678 0.481390
C27   C     C_3   0.755591 0.711908 0.668711 -0.590708
C28   C     C_3   0.311895 0.305859 0.321982 -0.725119
C29   C     C_R   0.572229 0.532315 0.867898 -0.011524
C30   C     C_R   0.358805 0.680442 0.073056 -0.318703
C31   C     C_R   0.702230 0.502657 0.900274 -0.334125
C32   C     C_2   0.096264 0.862033 0.512633 -0.362285
C33   C     C_2   0.921545 0.134897 0.517220 -0.385841
C34   C     C_2   0.013959 0.945102 0.476157 -0.115917
H1    H     H_    0.309833 0.735087 0.120720 0.151062
H2    H     H_    0.178685 0.884859 0.575272 0.116093
H3    H     H_    0.583119 0.409567 0.444223 0.143057
H4    H     H_    0.418476 0.607184 0.532231 0.190945
H5    H     H_    0.516969 0.770334 0.250160 0.046859
H6    H     H_    0.564276 0.484983 0.706521 0.079741
H7    H     H_    0.249542 0.089265 0.581218 0.041584
H8    H     H_    0.840184 0.978594 0.354561 0.064672
H9    H     H_    0.649699 0.735858 0.525295 0.218174
H10   H     H_    0.711090 0.780352 0.711392 0.225090
H11   H     H_    0.848892 0.758869 0.651407 0.230321
H12   H     H_    0.760863 0.476419 0.845879 0.140406
H13   H     H_    0.778610 0.632965 0.716637 0.212927
H14   H     H_    0.410936 0.282463 0.469366 0.198704
H15   H     H_    0.314117 0.205676 0.302155 0.220596
H16   H     H_    0.391118 0.361600 0.291875 0.211243
H17   H     H_    0.212770 0.333348 0.287446 0.253539
H18   H     H_    0.669673 0.547804 0.227609 0.149543
H19   H     H_    0.317613 0.439996 0.784937 0.167634
H20   H     H_    0.031789 0.429031 0.160083 0.156093
H21   H     H_    0.982233 0.624697 0.830882 0.157680
H22   H     H_    0.100131 0.695702 0.000124 0.163885
H23   H     H_    0.940509 0.434244 0.980671 0.157911
H24   H     H_    0.820453 0.093594 0.487178 0.113065
N1    N     N_2   0.322180 0.446120 0.460900 -0.024594
N2    N     N_2   0.677820 0.553880 0.539100 -0.035522
N3    N     N_2   0.661314 0.669559 0.578258 -0.236459
N4    N     N_2   0.333748 0.325448 0.429476 -0.215938
O1    O     O_R   0.935190 0.693030 0.507870 -0.599951
O2    O     O_2   0.465848 0.630409 0.728142 -0.568378
O3    O     O_2   0.159669 0.186832 0.669804 -0.593642
O4    O     O_2   0.927486 0.832193 0.321347 -0.532715
O5    O     O_R   0.064810 0.306970 0.492130 -0.575311
O6    O     O_R   0.142080 0.658430 0.482770 -0.617437
O7    O     O_R   0.857920 0.341570 0.517230 -0.626921
O8    O     O_R   0.969700 0.527180 0.651960 -0.635194
O9    O     O_R   0.030300 0.472820 0.348040 -0.614764
O10   O     O_R   0.176600 0.492580 0.626860 -0.575682
O11   O     O_R   0.823400 0.507420 0.373140 -0.614537
O12   O     O_2   0.681595 0.791742 0.192476 -0.520434
Zn1   Zn    Zn3+2 0.861850 0.523100 0.516760 0.947118
Zn2   Zn    Zn3+2 0.138150 0.476900 0.483240 0.998688

loop_
_geom_bond_atom_site_label_1
_geom_bond_atom_site_label_2
_ccdc_geom_bond_type
O5    Zn2   S    
C12   O7    A    
C23   C30   A    
C32   C34   D    
C5    O8    A    
C18   C30   A    
C5    O10   A    
C9    C11   A    
C28   H15   S    
N2    Zn1   S    
H14   N4    S    
C1    O6    A    
C16   C20   A    
C10   C19   A    
O10   Zn2   S    
C19   C31   A    
C27   H11   S    
C25   O3    D    
C29   C31   A    
C9    H22   S    
C15   H18   S    
C4    H3    S    
C7    C11   A    
O11   Zn1   S    
C2    C34   S    
C2    C25   S    
C33   H24   S    
O1    Zn1   S    
C30   H1    S    
C6    O11   A    
C22   H5    S    
C32   H2    S    
C2    C33   D    
C17   C19   A    
O7    Zn1   S    
C8    C15   A    
C5    C7    S    
C10   H23   S    
C21   C23   A    
C31   H12   S    
C28   N4    S    
O9    Zn2   S    
C28   H17   S    
C14   C16   A    
O6    Zn2   S    
C22   O12   D    
N1    Zn2   S    
C27   H13   S    
C3    C4    S    
C26   O4    D    
C8    C13   A    
C1    O1    A    
C9    C18   A    
C14   H19   S    
C11   H21   S    
C20   C21   A    
C26   H8    S    
C20   C29   A    
C16   C18   A    
C13   H20   S    
C25   H7    S    
O8    Zn1   S    
C15   C17   A    
C28   H16   S    
C24   C29   S    
N2    N3    S    
N1    N4    S    
C6    C8    S    
C12   O5    A    
C27   N3    S    
C24   H6    S    
C12   C33   S    
C22   C23   S    
H9    N3    S    
C27   H10   S    
C26   C34   S    
C1    C32   S    
C7    C14   A    
C24   O2    D    
C3    H4    S    
C17   C21   A    
C6    O9    A    
C4    N2    D    
C10   C13   A    
C3    N1    D    
