data_mof_unit_39061.cif
_audit_creation_date              2012-10-26T19:04:21-0400
_audit_creation_method            fapswitch 2.2
_symmetry_space_group_name_H-M    P1
_symmetry_Int_Tables_number       1
_space_group_crystal_system       triclinic
_cell_length_a                    14.688268
_cell_length_b                    16.247749
_cell_length_c                    9.697459
_cell_angle_alpha                 90.961588
_cell_angle_beta                  84.312205
_cell_angle_gamma                 89.988792
_cell_volume                      2302.58874189

loop_
_atom_site_label
_atom_site_type_symbol
_atom_type_description
_atom_site_fract_x
_atom_site_fract_y
_atom_site_fract_z
_atom_type_partial_charge
Br1   Br    Br    0.518092 0.761976 0.006736 -0.291457
Br2   Br    Br    0.479049 0.269921 0.961656 -0.357491
Br3   Br    Br    0.019852 0.263935 0.007507 -0.346397
Br4   Br    Br    0.978342 0.769509 0.959531 -0.354487
C1    C     C_R   0.378068 0.882954 0.505224 0.522298
C2    C     C_R   0.734574 0.210218 0.385291 -0.040319
C3    C     C_R   0.223805 0.273896 0.384642 -0.042230
C4    C     C_R   0.236692 0.708302 0.386928 -0.047915
C5    C     C_R   0.664663 0.797246 0.499518 0.007052
C6    C     C_R   0.668652 0.197872 0.494437 -0.003998
C7    C     C_R   0.165776 0.297998 0.499438 0.008851
C8    C     C_R   0.169271 0.697452 0.494393 0.003073
C9    C     C_R   0.670164 0.023617 0.108434 0.245077
C10   C     C_R   0.170164 0.526739 0.107381 0.242258
C11   C     C_R   0.735714 0.070733 0.027581 0.260291
C12   C     C_R   0.378141 0.116460 0.506095 0.529921
C13   C     C_R   0.234768 0.573852 0.024221 0.260401
C14   C     C_R   0.734178 0.066109 0.884921 -0.114102
C15   C     C_R   0.232927 0.567457 0.881940 -0.110797
C16   C     C_R   0.663439 0.025177 0.830333 -0.094376
C17   C     C_R   0.162960 0.524785 0.829375 -0.094209
C18   C     C_R   0.580627 0.012199 0.912429 0.142490
C19   C     C_R   0.080495 0.512198 0.912152 0.145163
C20   C     C_R   0.581456 0.014481 0.060676 0.135129
C21   C     C_R   0.081354 0.515372 0.060363 0.137258
C22   C     C_R   0.421974 0.995059 0.085523 0.119185
C23   C     C_R   0.877545 0.383457 0.505063 0.528226
C24   C     C_R   0.922027 0.494299 0.085635 0.114448
C25   C     C_R   0.613596 0.122208 0.497542 0.543341
C26   C     C_R   0.611044 0.875322 0.497788 0.574894
C27   C     C_R   0.113665 0.622146 0.497522 0.543896
C28   C     C_R   0.111399 0.375549 0.497766 0.573257
C29   C     C_R   0.422060 0.993873 0.938210 0.087079
C30   C     C_R   0.922082 0.493717 0.938291 0.054716
C31   C     C_R   0.247792 0.160708 0.766555 -0.116202
C32   C     C_R   0.238211 0.839702 0.765290 -0.120686
C33   C     C_R   0.747173 0.660115 0.766386 -0.112634
C34   C     C_R   0.877950 0.616351 0.506064 0.530559
C35   C     C_R   0.737248 0.341467 0.764071 -0.147770
C36   C     C_R   0.185502 0.180375 0.881041 0.243836
C37   C     C_R   0.164984 0.824247 0.868907 0.270985
C38   C     C_R   0.684582 0.679326 0.880731 0.239087
C39   C     C_R   0.665106 0.325185 0.868946 0.229729
C40   C     C_R   0.609248 0.729484 0.862936 0.204996
C41   C     C_R   0.585037 0.287448 0.832845 0.184098
C42   C     C_R   0.109977 0.230222 0.862959 0.201245
C43   C     C_R   0.084766 0.787306 0.831708 0.175418
C44   C     C_R   0.599214 0.761019 0.733802 -0.093617
C45   C     C_R   0.293206 0.218671 0.393334 -0.082633
C46   C     C_R   0.583443 0.253526 0.702202 -0.096754
C47   C     C_R   0.099485 0.260986 0.733330 -0.096968
C48   C     C_R   0.083466 0.753873 0.700742 -0.103390
C49   C     C_R   0.668431 0.752468 0.623373 -0.011850
C50   C     C_R   0.662214 0.253000 0.607774 -0.015329
C51   C     C_R   0.168836 0.252579 0.622932 -0.009876
C52   C     C_R   0.162681 0.752830 0.607283 -0.017275
C53   C     C_R   0.241896 0.196449 0.635711 -0.016099
C54   C     C_R   0.236842 0.806030 0.628962 -0.024901
C55   C     C_R   0.741400 0.696153 0.635819 -0.015673
C56   C     C_R   0.303590 0.767831 0.395465 -0.097715
C57   C     C_R   0.735892 0.306963 0.628407 -0.016286
C58   C     C_R   0.304754 0.179046 0.516473 -0.001334
C59   C     C_R   0.306357 0.817645 0.514711 -0.007685
C60   C     C_R   0.803867 0.678424 0.516244 -0.001046
C61   C     C_R   0.804676 0.319201 0.513473 -0.004341
C62   C     C_R   0.790637 0.716626 0.392375 -0.080164
C63   C     C_R   0.800167 0.271040 0.392554 -0.049637
C64   C     C_R   0.720556 0.771212 0.383743 -0.040754
Cu1   Cu    Cu3+1 0.499990 1.000000 0.640660 0.952054
Cu2   Cu    Cu3+1 0.999990 0.500000 0.640660 0.946692
Cu3   Cu    Cu3+1 0.500010 1.000000 0.359340 1.089610
Cu4   Cu    Cu3+1 0.000010 0.500000 0.359340 1.105158
H1    H     H_    0.339722 0.208309 0.301120 0.219037
H2    H     H_    0.857960 0.489278 0.893400 0.146810
H3    H     H_    0.300524 0.118224 0.785838 0.177852
H4    H     H_    0.297575 0.871216 0.795601 0.181334
H5    H     H_    0.799604 0.617202 0.785200 0.180076
H6    H     H_    0.795632 0.375003 0.792421 0.145268
H7    H     H_    0.535569 0.792104 0.721332 0.179566
H8    H     H_    0.521366 0.223049 0.677759 0.174489
H9    H     H_    0.035768 0.291932 0.720818 0.174840
H10   H     H_    0.021337 0.723805 0.675453 0.175597
H11   H     H_    0.713468 0.792805 0.284574 0.261934
H12   H     H_    0.355807 0.773155 0.309272 0.213069
H13   H     H_    0.734625 0.171457 0.295087 0.222448
H14   H     H_    0.219291 0.297750 0.286313 0.261222
H15   H     H_    0.236691 0.669282 0.297211 0.222244
H16   H     H_    0.357822 0.993990 0.150035 0.188491
H17   H     H_    0.857929 0.491930 0.150351 0.223279
H18   H     H_    0.158552 0.023348 0.947527 0.338420
H19   H     H_    0.282410 0.870728 0.173883 0.367422
H20   H     H_    0.652670 0.522121 0.947439 0.336539
H21   H     H_    0.825540 0.335333 0.011113 0.360712
H22   H     H_    0.865655 0.912493 0.066389 0.418233
H23   H     H_    0.836055 0.705402 0.299351 0.220363
H24   H     H_    0.368703 0.416334 0.077579 0.413330
H25   H     H_    0.983932 0.072071 0.019347 0.402665
H26   H     H_    0.481082 0.571658 0.011992 0.397281
H27   H     H_    0.850295 0.278279 0.304114 0.228710
H28   H     H_    0.792512 0.085583 0.816065 0.185390
H29   H     H_    0.290437 0.587282 0.811772 0.189326
H30   H     H_    0.676090 0.005862 0.724407 0.204129
H31   H     H_    0.175541 0.504866 0.723817 0.204436
H32   H     H_    0.357955 0.989409 0.893216 0.149835
N1    N     N_R   0.501200 1.000000 0.147910 -0.247008
N2    N     N_R   0.001200 0.500000 0.147910 -0.246844
N3    N     N_R   0.501270 1.000000 0.852040 -0.258303
N4    N     N_R   0.001270 0.500000 0.852040 -0.255881
O1    O     O_R   0.409820 0.909830 0.618810 -0.532959
O2    O     O_R   0.590170 0.909830 0.618760 -0.538481
O3    O     O_R   0.090170 0.590170 0.618760 -0.535046
O4    O     O_R   0.090170 0.409830 0.618760 -0.540170
O5    O     O_R   0.590190 0.090180 0.381190 -0.489598
O6    O     O_R   0.590190 0.909820 0.381190 -0.409200
O7    O     O_R   0.090190 0.590180 0.381190 -0.489703
O8    O     O_R   0.090190 0.409820 0.381190 -0.409099
O9    O     O_2   0.298927 0.159051 0.072960 -0.273650
O10   O     O_2   0.136404 0.160556 0.158954 -0.199588
O11   O     O_3   0.201589 0.033188 0.018498 -0.503141
O12   O     O_R   0.409820 0.090170 0.618810 -0.531685
O13   O     O_2   0.108913 0.900446 0.109470 -0.203948
O14   O     O_2   0.156033 0.757130 0.116971 -0.268836
O15   O     O_3   0.283145 0.866168 0.071962 -0.518690
O16   O     O_2   0.797261 0.655195 0.072474 -0.276014
O17   O     O_2   0.634573 0.657820 0.157876 -0.203774
O18   O     O_3   0.698456 0.530927 0.014655 -0.489100
O19   O     O_2   0.608624 0.397613 0.112620 -0.169349
O20   O     O_2   0.660242 0.255709 0.114758 -0.264107
O21   O     O_3   0.783301 0.368646 0.075167 -0.517531
O22   O     O_2   0.757702 0.933574 0.278386 -0.297068
O23   O     O_R   0.909820 0.409830 0.618810 -0.538955
O24   O     O_2   0.652255 0.863957 0.127818 -0.254457
O25   O     O_3   0.809880 0.909202 0.017027 -0.462137
O26   O     O_2   0.256422 0.440437 0.283524 -0.302115
O27   O     O_2   0.156384 0.366865 0.128592 -0.251176
O28   O     O_3   0.314542 0.415179 0.024377 -0.461213
O29   O     O_2   0.843369 0.192062 0.085208 -0.277361
O30   O     O_2   0.854652 0.070020 0.226505 -0.249226
O31   O     O_3   0.928023 0.064828 0.971163 -0.502994
O32   O     O_2   0.338057 0.698373 0.081362 -0.227398
O33   O     O_2   0.357567 0.575104 0.217692 -0.259917
O34   O     O_R   0.909820 0.590170 0.618810 -0.529933
O35   O     O_3   0.426388 0.574757 0.960215 -0.503799
O36   O     O_R   0.409840 0.909830 0.381240 -0.509664
O37   O     O_R   0.409840 0.090170 0.381240 -0.495417
O38   O     O_R   0.909840 0.409830 0.381240 -0.487053
O39   O     O_R   0.909840 0.590170 0.381240 -0.495359
O40   O     O_R   0.590170 0.090170 0.618760 -0.535913
S1    S     S_3+6 0.204653 0.135518 0.040137 0.030720
S2    S     S_3+6 0.176649 0.837678 0.046889 0.059795
S3    S     S_3+6 0.702770 0.633008 0.038853 0.033732
S4    S     S_3+6 0.678172 0.337312 0.047150 0.068014
S5    S     S_3+6 0.722280 0.930018 0.138223 0.048299
S6    S     S_3+6 0.224125 0.434751 0.141337 0.046361
S7    S     S_3+6 0.841898 0.100202 0.084075 0.040005
S8    S     S_3+6 0.340723 0.606381 0.077453 0.048210

loop_
_geom_bond_atom_site_label_1
_geom_bond_atom_site_label_2
_ccdc_geom_bond_type
O30   S7    D    
O11   S1    S    
C11   C14   A    
C62   C64   A    
C15   H29   S    
H26   O35   S    
C29   H32   S    
C23   O23   A    
C29   N3    A    
C45   H1    S    
C25   O40   A    
C49   C55   A    
C53   C58   A    
H24   O28   S    
C36   C42   A    
Cu3   O5    S    
C31   H3    S    
C55   C60   A    
C46   C50   A    
O27   S6    D    
C14   H28   S    
C26   O2    A    
C56   C59   A    
O25   S5    S    
O14   S2    D    
C44   H7    S    
C15   C17   A    
C32   C54   A    
C12   O12   A    
C3    H14   S    
C16   H30   S    
C18   N3    A    
H22   O25   S    
O13   S2    D    
C1    C59   S    
Cu1   O2    S    
C33   C38   A    
Cu1   Cu3   S    
O17   S3    D    
Cu1   O1    S    
C17   C19   A    
O20   S4    D    
C24   N2    A    
C61   C63   A    
O29   S7    D    
C24   H17   S    
C32   H4    S    
C47   H9    S    
C11   S7    S    
C63   H27   S    
O15   S2    S    
C24   C30   A    
H19   O15   S    
C10   S6    S    
C34   O34   A    
C10   C13   A    
C32   C37   A    
Cu4   N2    S    
C38   C40   A    
H21   O21   S    
C22   N1    A    
C27   O7    A    
C21   N2    A    
C34   C60   S    
C52   C54   A    
Br2   C41   S    
Cu1   N3    S    
C44   C49   A    
C35   C57   A    
Cu2   O34   S    
C35   H6    S    
C3    C45   A    
O21   S4    S    
C1    O36   A    
C35   C39   A    
C37   S2    S    
C47   C51   A    
C33   H5    S    
C42   C47   A    
Cu3   O6    S    
H20   O18   S    
C12   O37   A    
C60   C62   A    
O10   S1    D    
C3    C7    A    
C23   C61   S    
O19   S4    D    
O28   S6    S    
O18   S3    S    
Br1   C40   S    
Cu4   O7    S    
C9    C11   A    
O31   S7    S    
C4    C8    A    
O24   S5    D    
C37   C43   A    
C33   C55   A    
C28   O8    A    
C48   H10   S    
C38   S3    S    
C39   C41   A    
C9    S5    S    
C8    C52   A    
Cu2   O4    S    
C5    C26   S    
O32   S8    D    
C2    C63   A    
Cu3   O37   S    
O16   S3    D    
C30   H2    S    
C7    C28   S    
Cu3   N1    S    
C8    C27   S    
C18   C20   A    
C5    C49   A    
C7    C51   A    
C26   O6    A    
C54   C59   A    
C25   O5    A    
C45   C58   A    
C28   O4    A    
C64   H11   S    
C16   C18   A    
C46   H8    S    
C2    C6    A    
Cu2   Cu4   S    
O33   S8    D    
C43   C48   A    
C50   C57   A    
Cu4   O39   S    
Cu4   O8    S    
Cu1   O12   S    
C31   C53   A    
C4    H15   S    
C30   N4    A    
H18   O11   S    
C51   C53   A    
C31   C36   A    
C5    C64   A    
C40   C44   A    
Cu2   N4    S    
C4    C56   A    
C56   H12   S    
C6    C25   S    
O35   S8    S    
O26   S6    D    
C1    O1    A    
C41   C46   A    
C23   O38   A    
Cu4   O38   S    
C19   N4    A    
Cu2   O23   S    
C13   C15   A    
Br3   C42   S    
C36   S1    S    
O22   S5    D    
C14   C16   A    
C19   C21   A    
C10   C21   A    
C6    C50   A    
C34   O39   A    
Cu2   O3    S    
C17   H31   S    
C57   C61   A    
C9    C20   A    
C22   H16   S    
C12   C58   S    
C2    H13   S    
Cu1   O40   S    
C27   O3    A    
Cu3   O36   S    
O9    S1    D    
C20   N1    A    
C13   S8    S    
H25   O31   S    
C39   S4    S    
C48   C52   A    
C22   C29   A    
C62   H23   S    
Br4   C43   S    
