data_mof_unit_37530.cif
_audit_creation_date              2012-10-26T20:51:10-0400
_audit_creation_method            fapswitch 2.2
_symmetry_space_group_name_H-M    P1
_symmetry_Int_Tables_number       1
_space_group_crystal_system       triclinic
_cell_length_a                    13.022158
_cell_length_b                    10.798861
_cell_length_c                    9.537806
_cell_angle_alpha                 90.751928
_cell_angle_beta                  97.578575
_cell_angle_gamma                 90.451438
_cell_volume                      1329.35607136

loop_
_atom_site_label
_atom_site_type_symbol
_atom_type_description
_atom_site_fract_x
_atom_site_fract_y
_atom_site_fract_z
_atom_type_partial_charge
C1    C     C_R   0.496537 0.262231 0.498578 0.547237
C2    C     C_R   0.431307 0.935082 0.368861 -0.024877
C3    C     C_R   0.467682 0.870082 0.495460 0.008775
C4    C     C_R   0.299798 0.495796 0.471794 0.530947
C5    C     C_R   0.483341 0.938845 0.621881 0.011091
C6    C     C_3   0.562603 0.932686 0.749934 -0.273877
C7    C     C_3   0.569571 0.072815 0.747213 -0.261790
C8    C     C_R   0.586953 0.533161 0.089869 0.163743
C9    C     C_R   0.420668 0.448574 0.059163 -0.021590
C10   C     C_R   0.419829 0.449924 0.910257 -0.004544
C11   C     C_R   0.587720 0.531192 0.942756 0.153207
C12   C     C_R   0.028994 0.515060 0.566531 0.054874
C13   C     C_3   0.646667 0.650170 0.949628 -0.283258
C14   C     C_3   0.644273 0.653077 0.108404 -0.269225
C15   C     C_R   0.489857 0.737289 0.498480 0.546443
C16   C     C_R   0.699594 0.500484 0.527946 0.552828
C17   C     C_R   0.812592 0.501473 0.545830 -0.041607
C18   C     C_R   0.185390 0.487324 0.454061 -0.019315
C19   C     C_R   0.016969 0.434664 0.325039 -0.098273
C20   C     C_R   0.124898 0.439333 0.329194 -0.004757
C21   C     C_R   0.136325 0.523584 0.570831 -0.120700
C22   C     C_3   0.174831 0.393445 0.202849 -0.237649
C23   C     C_R   0.969637 0.471678 0.441050 -0.004639
C24   C     C_3   0.104220 0.320556 0.087384 -0.306536
C25   C     C_3   0.164264 0.274389 0.970351 -0.444090
C26   C     C_3   0.379732 0.872498 0.233313 -0.249444
C27   C     C_3   0.272645 0.927100 0.183137 -0.329571
C28   C     C_3   0.218789 0.856729 0.053666 -0.415222
C29   C     C_R   0.862450 0.465677 0.431448 -0.149781
C30   C     C_R   0.870909 0.541133 0.672666 -0.097503
C31   C     C_R   0.978810 0.549051 0.683712 0.226976
C32   C     C_R   0.488811 0.065558 0.621422 0.017889
C33   C     C_R   0.480373 0.129443 0.495454 -0.008909
C34   C     C_R   0.444398 0.065037 0.369497 -0.144496
Cl1   Cl    Cl    0.046962 0.603226 0.845241 -0.728523
Cu1   Cu    Cu3+1 0.499990 0.499980 0.640670 0.939220
Cu2   Cu    Cu3+1 0.500010 0.500020 0.359330 0.916275
H1    H     H_    0.817527 0.433059 0.333820 0.129083
H2    H     H_    0.596631 0.729417 0.144019 0.146620
H3    H     H_    0.832754 0.568603 0.761933 0.146301
H4    H     H_    0.967748 0.401607 0.231816 0.108161
H5    H     H_    0.182624 0.559026 0.665636 0.184700
H6    H     H_    0.427281 0.115571 0.271988 0.125037
H7    H     H_    0.527481 0.900838 0.843275 0.128839
H8    H     H_    0.192154 0.354273 0.913381 0.174521
H9    H     H_    0.231225 0.217631 0.014704 0.129689
H10   H     H_    0.112540 0.216553 0.893438 0.158356
H11   H     H_    0.069578 0.239411 0.135062 0.155600
H12   H     H_    0.635054 0.886098 0.729087 0.140634
H13   H     H_    0.041402 0.380870 0.037453 0.210190
H14   H     H_    0.205745 0.475884 0.153311 0.181632
H15   H     H_    0.238853 0.330491 0.243094 0.149926
H16   H     H_    0.266402 0.861080 0.965356 0.163725
H17   H     H_    0.206093 0.758264 0.079729 0.195991
H18   H     H_    0.142415 0.899106 0.018787 0.172467
H19   H     H_    0.223324 0.921715 0.269621 0.175605
H20   H     H_    0.280017 0.025726 0.154468 0.153756
H21   H     H_    0.430775 0.883018 0.149445 0.136772
H22   H     H_    0.365828 0.772732 0.247613 0.191273
H23   H     H_    0.540805 0.118690 0.839355 0.142194
H24   H     H_    0.645250 0.108060 0.721414 0.141322
H25   H     H_    0.357882 0.405274 0.102450 0.105437
H26   H     H_    0.354557 0.410309 0.842513 0.122346
H27   H     H_    0.725883 0.638879 0.920956 0.131460
H28   H     H_    0.600981 0.723647 0.893338 0.143955
H29   H     H_    0.722141 0.643161 0.170531 0.139269
N1    N     N_R   0.500660 0.500930 0.148010 -0.234403
N2    N     N_R   0.500660 0.500890 0.852110 -0.231124
O1    O     O_R   0.500000 0.319640 0.618810 -0.496132
O2    O     O_R   0.500010 0.319680 0.381230 -0.508320
O3    O     O_R   0.348990 0.499960 0.599490 -0.512529
O4    O     O_R   0.349000 0.500000 0.361910 -0.523200
O5    O     O_R   0.499990 0.680320 0.618770 -0.493764
O6    O     O_R   0.500000 0.680360 0.381190 -0.514904
O7    O     O_R   0.651000 0.500000 0.638090 -0.501658
O8    O     O_R   0.651010 0.500040 0.400510 -0.498154

loop_
_geom_bond_atom_site_label_1
_geom_bond_atom_site_label_2
_ccdc_geom_bond_type
Cu2   O6    S    
C18   C21   A    
C17   C29   A    
C19   C20   A    
C1    C33   S    
C13   H28   S    
Cu1   O1    S    
C12   C23   A    
C26   C27   S    
C23   C29   A    
C22   C24   S    
Cu1   Cu2   S    
C30   C31   A    
C16   O7    A    
C7    H24   S    
C14   H2    S    
C10   H26   S    
C16   C17   S    
C29   H1    S    
C9    C10   A    
C25   H10   S    
Cu1   O3    S    
C5    C32   A    
C4    C18   S    
C2    C34   A    
C6    H7    S    
Cu2   O2    S    
C17   C30   A    
C28   H18   S    
C24   H13   S    
C9    H25   S    
C24   H11   S    
C24   C25   S    
C27   H20   S    
C28   H17   S    
C27   H19   S    
C12   C21   A    
C1    O1    A    
C19   C23   A    
C9    N1    A    
Cu1   O7    S    
C33   C34   A    
C14   H29   S    
C30   H3    S    
C2    C26   S    
C26   H21   S    
C15   O5    A    
Cu2   O8    S    
C20   C22   S    
C12   C31   A    
C31   Cl1   S    
C25   H8    S    
C7    H23   S    
C4    O4    A    
C3    C15   S    
C11   N2    A    
C22   H15   S    
C26   H22   S    
C8    C14   S    
C7    C32   S    
C16   O8    A    
C34   H6    S    
C3    C5    A    
C28   H16   S    
Cu1   N2    S    
C6    C7    S    
C10   N2    A    
C1    O2    A    
C32   C33   A    
C2    C3    A    
C11   C13   S    
C5    C6    S    
C13   H27   S    
C8    C11   A    
Cu2   N1    S    
C18   C20   A    
C6    H12   S    
Cu1   O5    S    
C21   H5    S    
C15   O6    A    
C8    N1    A    
Cu2   O4    S    
C27   C28   S    
C13   C14   S    
C25   H9    S    
C4    O3    A    
C19   H4    S    
C22   H14   S    
