data_mof_unit_63863.cif
_audit_creation_date              2012-12-10T16:57:53-0500
_audit_creation_method            fapswitch 2.2
_symmetry_space_group_name_H-M    P1
_symmetry_Int_Tables_number       1
_space_group_crystal_system       triclinic
_cell_length_a                    13.132656
_cell_length_b                    13.138938
_cell_length_c                    15.10877
_cell_angle_alpha                 86.504911
_cell_angle_beta                  100.22124
_cell_angle_gamma                 90.971515
_cell_volume                      2560.81002024

loop_
_atom_site_label
_atom_site_type_symbol
_atom_type_description
_atom_site_fract_x
_atom_site_fract_y
_atom_site_fract_z
_atom_type_partial_charge
C1    C     C_R   0.463896 0.772990 0.466224 0.511143
C2    C     C_2   0.503943 0.057289 0.486340 -0.150150
C3    C     C_2   0.452977 0.883482 0.449626 -0.108160
C4    C     C_R   0.537145 0.227897 0.534396 0.507754
C5    C     C_2   0.511209 0.946693 0.503825 -0.157978
C6    C     C_2   0.112371 0.450167 0.462241 -0.081283
C7    C     C_2   0.059507 0.496340 0.515690 -0.149082
C8    C     C_2   0.889767 0.547132 0.541595 -0.105557
C9    C     C_2   0.946529 0.488596 0.500026 -0.151401
C10   C     C_R   0.776966 0.536049 0.526710 0.515883
C11   C     C_R   0.223692 0.463186 0.473265 0.507479
C12   C     C_R   0.498983 0.377126 0.131364 -0.124259
C13   C     C_R   0.511395 0.519674 0.740676 0.492611
C14   C     C_R   0.485778 0.481519 0.258981 0.500243
C15   C     C_R   0.505371 0.534917 0.834887 0.027897
C16   C     C_R   0.481815 0.472387 0.162886 0.033049
C17   C     C_R   0.505530 0.368466 0.041298 -0.132916
C18   C     C_3   0.482913 0.727027 0.800311 -0.235513
C19   C     C_3   0.451652 0.827026 0.835705 -0.322354
C20   C     C_3   0.443636 0.913791 0.762774 -0.443405
C21   C     C_R   0.470717 0.559331 0.103925 -0.124954
C22   C     C_R   0.480928 0.551837 0.013897 0.029960
C23   C     C_R   0.497981 0.455618 0.982536 0.040223
C24   C     C_R   0.508734 0.447890 0.893324 -0.130261
C25   C     C_R   0.489153 0.632755 0.865376 -0.010900
C26   C     C_R   0.476716 0.639298 0.955639 -0.114076
C27   C     C_2   0.550615 0.118452 0.548441 -0.083143
H1    H     H_    0.520853 0.373709 0.869142 0.115625
H2    H     H_    0.459200 0.633028 0.129178 0.110553
H3    H     H_    0.564828 0.916663 0.562550 0.155766
H4    H     H_    0.458156 0.089140 0.423955 0.129892
H5    H     H_    0.398054 0.913352 0.391801 0.107277
H6    H     H_    0.519245 0.926449 0.740402 0.150406
H7    H     H_    0.383941 0.895799 0.703867 0.159744
H8    H     H_    0.421395 0.985137 0.790046 0.150423
H9    H     H_    0.375303 0.817200 0.857372 0.164537
H10   H     H_    0.510685 0.848630 0.893899 0.159602
H11   H     H_    0.559886 0.739379 0.780412 0.176391
H12   H     H_    0.591820 0.087581 0.613030 0.085139
H13   H     H_    0.425519 0.711340 0.739059 0.150667
H14   H     H_    0.909205 0.434414 0.452734 0.162408
H15   H     H_    0.099610 0.541997 0.569029 0.131346
H16   H     H_    0.926725 0.602529 0.587760 0.107717
H17   H     H_    0.072796 0.409022 0.405706 0.092746
H18   H     H_    0.518875 0.294194 0.018139 0.106227
H19   H     H_    0.464178 0.711922 0.981825 0.101842
H20   H     H_    0.508090 0.309545 0.176801 0.122273
O1    O     O_3   0.500000 0.500000 0.500000 -0.436502
O2    O     O_R   0.563230 0.581310 0.697440 -0.556718
O3    O     O_R   0.421030 0.536630 0.288090 -0.542157
O4    O     O_R   0.459330 0.447650 0.700640 -0.540989
O5    O     O_R   0.556410 0.434400 0.313840 -0.542420
O6    O     O_R   0.733070 0.467190 0.476550 -0.538655
O7    O     O_R   0.261010 0.525210 0.419080 -0.534611
O8    O     O_R   0.532760 0.736590 0.530220 -0.546931
O9    O     O_R   0.473150 0.271000 0.574150 -0.536815
O10   O     O_R   0.407210 0.713280 0.414580 -0.537354
O11   O     O_R   0.586880 0.279120 0.481060 -0.534710
O12   O     O_R   0.723250 0.592730 0.566440 -0.537189
O13   O     O_R   0.282660 0.414860 0.537920 -0.532289
Zn1   Zn    Zn3+2 0.592480 0.421540 0.443840 0.937532
Zn2   Zn    Zn3+2 0.578450 0.600910 0.572270 0.923765
Zn3   Zn    Zn3+2 0.430000 0.409940 0.576840 0.936176
Zn4   Zn    Zn3+2 0.399070 0.567610 0.407050 0.938436

loop_
_geom_bond_atom_site_label_1
_geom_bond_atom_site_label_2
_ccdc_geom_bond_type
C12   C17   A    
C23   C24   A    
C16   C21   A    
C1    O10   A    
O3    Zn4   S    
C9    H14   S    
C19   C20   S    
C8    H16   S    
C19   H9    S    
C2    C27   D    
C20   H7    S    
C3    C5    D    
O11   Zn1   S    
C12   H20   S    
C10   O12   A    
C1    O8    A    
O9    Zn3   S    
C6    H17   S    
C21   C22   A    
C4    O9    A    
C18   C25   S    
O1    Zn1   S    
C17   C23   A    
C11   O7    A    
O7    Zn4   S    
O13   Zn3   S    
C13   O2    A    
C20   H6    S    
C15   C24   A    
C17   H18   S    
C5    H3    S    
C6    C7    D    
O5    Zn1   S    
C13   C15   S    
C18   H11   S    
C3    H5    S    
C14   C16   S    
O1    Zn4   S    
C2    C5    S    
C15   C25   A    
C14   O3    A    
O6    Zn1   S    
C11   O13   A    
O8    Zn2   S    
C12   C16   A    
O1    Zn2   S    
C4    C27   S    
O4    Zn3   S    
O10   Zn4   S    
C8    C10   S    
C18   C19   S    
C22   C26   A    
C7    H15   S    
C4    O11   A    
C6    C11   S    
C7    C9    S    
C10   O6    A    
C26   H19   S    
C22   C23   A    
C8    C9    D    
O12   Zn2   S    
C18   H13   S    
O2    Zn2   S    
C19   H10   S    
C1    C3    S    
C25   C26   A    
C13   O4    A    
C20   H8    S    
C21   H2    S    
C14   O5    A    
C24   H1    S    
C27   H12   S    
C2    H4    S    
O1    Zn3   S    
