data_mof_unit_59161.cif
_audit_creation_date              2012-12-10T18:50:52-0500
_audit_creation_method            fapswitch 2.2
_symmetry_space_group_name_H-M    P1
_symmetry_Int_Tables_number       1
_space_group_crystal_system       triclinic
_cell_length_a                    10.570138
_cell_length_b                    9.945792
_cell_length_c                    15.770188
_cell_angle_alpha                 90.043738
_cell_angle_beta                  91.196945
_cell_angle_gamma                 90.174766
_cell_volume                      1657.52450413

loop_
_atom_site_label
_atom_site_type_symbol
_atom_type_description
_atom_site_fract_x
_atom_site_fract_y
_atom_site_fract_z
_atom_type_partial_charge
C1    C     C_R   0.260868 0.499821 0.500399 0.942645
C2    C     C_R   0.936942 0.508107 0.578775 0.029066
C3    C     C_R   0.871669 0.500543 0.500897 0.014455
C4    C     C_R   0.128443 0.499423 0.500749 0.014435
C5    C     C_R   0.588448 0.072130 0.546598 -0.029364
C6    C     C_R   0.588224 0.928514 0.546771 -0.026878
C7    C     C_R   0.498927 0.500031 0.338574 0.901261
C8    C     C_R   0.410986 0.927824 0.453840 -0.032276
C9    C     C_R   0.411122 0.071383 0.453785 -0.022752
C10   C     C_R   0.739147 0.500179 0.500756 0.946360
C11   C     C_R   0.500395 0.500071 0.661316 0.913568
C12   C     C_3   0.627755 0.498606 0.950603 -0.511792
C13   C     C_3   0.400388 0.622496 0.046876 -0.218996
C14   C     C_3   0.439162 0.356569 0.048073 -0.146468
C15   C     C_3   0.421912 0.369055 0.947662 -0.142501
C16   C     C_3   0.425402 0.631644 0.948280 -0.092389
C17   C     C_1   0.497807 0.500288 0.749705 -0.082248
C18   C     C_3   0.490783 0.501614 0.082501 -0.141570
C19   C     C_3   0.489005 0.500170 0.916035 0.160839
C20   C     C_2   0.312084 0.855468 0.404741 0.970767
C21   C     C_2   0.315825 0.142777 0.401707 0.967189
C22   C     C_2   0.260707 0.600102 0.068758 0.968442
C23   C     C_3   0.633803 0.524677 0.049011 -0.158399
C24   C     C_2   0.317509 0.302949 0.089056 0.975907
C25   C     C_2   0.534110 0.244559 0.071584 0.864920
C26   C     C_2   0.429831 0.761440 0.086617 0.907295
C27   C     C_2   0.684063 0.666555 0.069270 0.892197
C28   C     C_2   0.735685 0.433190 0.089740 0.940379
C29   C     C_2   0.685684 0.144457 0.597172 0.970367
C30   C     C_2   0.681547 0.856845 0.600498 0.970804
C31   C     C_1   0.494211 0.500425 0.824639 -0.032302
C32   C     C_1   0.492628 0.501512 0.174627 0.158154
C33   C     C_1   0.495356 0.500502 0.249884 0.109615
C34   C     C_R   0.063166 0.492037 0.422967 0.010180
C35   C     C_R   0.068337 0.507447 0.578706 0.034639
C36   C     C_R   0.931904 0.492430 0.423050 0.008186
H1    H     H_    0.468674 0.283556 0.915572 0.213872
H2    H     H_    0.269647 0.223563 0.288582 0.358608
H3    H     H_    0.125708 0.613830 0.157179 0.351162
H4    H     H_    0.191632 0.150044 0.096273 0.359455
H5    H     H_    0.659601 0.104085 0.034937 0.367587
H6    H     H_    0.451181 0.961443 0.070286 0.393269
H7    H     H_    0.746539 0.846619 0.027763 0.364148
H8    H     H_    0.888300 0.314074 0.074681 0.361209
H9    H     H_    0.104094 0.399204 0.312182 0.223576
H10   H     H_    0.107091 0.569762 0.308621 0.214335
H11   H     H_    0.119390 0.603501 0.687899 0.210202
H12   H     H_    0.499031 0.709668 0.938257 0.245041
H13   H     H_    0.117917 0.433041 0.694567 0.190131
H14   H     H_    0.882715 0.565532 0.306827 0.227804
H15   H     H_    0.881336 0.395094 0.314541 0.244108
H16   H     H_    0.893246 0.433056 0.694248 0.198419
H17   H     H_    0.895464 0.603456 0.688512 0.207027
H18   H     H_    0.867898 0.203901 0.607616 0.341825
H19   H     H_    0.722236 0.773554 0.714308 0.337580
H20   H     H_    0.687532 0.570696 0.915321 0.238003
H21   H     H_    0.667515 0.398949 0.933958 0.256353
H22   H     H_    0.254165 0.603645 0.879161 0.248716
H23   H     H_    0.271483 0.757458 0.925368 0.241837
H24   H     H_    0.283277 0.381428 0.853310 0.180846
H25   H     H_    0.256868 0.264064 0.922724 0.244686
H26   H     H_    0.129122 0.798035 0.396334 0.346557
N1    N     N_R   0.499970 0.857200 0.499980 -0.163192
N2    N     N_R   0.499970 0.142800 0.499980 -0.163053
N3    N     N_3   0.318550 0.679362 0.894947 -0.419582
N4    N     N_3   0.288704 0.363216 0.918521 -0.388563
N5    N     N_3   0.131412 0.485961 0.345257 -0.436813
N6    N     N_3   0.141825 0.514601 0.656287 -0.471585
N7    N     N_3   0.858625 0.484487 0.345492 -0.422146
N8    N     N_3   0.868643 0.515579 0.656449 -0.464465
O1    O     O_R   0.316750 0.614620 0.499990 -0.618944
O2    O     O_R   0.189704 0.847302 0.436277 -0.757242
O3    O     O_2   0.209412 0.159389 0.428708 -0.588447
O4    O     O_R   0.344556 0.181143 0.319215 -0.739765
O5    O     O_2   0.183888 0.555378 0.017099 -0.612398
O6    O     O_R   0.219598 0.630769 0.150421 -0.741522
O7    O     O_2   0.269837 0.359391 0.149218 -0.642329
O8    O     O_R   0.268529 0.178157 0.063155 -0.797581
O9    O     O_2   0.551511 0.214726 0.146297 -0.560810
O10   O     O_R   0.600441 0.174241 0.009786 -0.789101
O11   O     O_2   0.441767 0.773953 0.163552 -0.499816
O12   O     O_R   0.316750 0.385380 0.499990 -0.612306
O13   O     O_R   0.434987 0.876799 0.035929 -0.783976
O14   O     O_2   0.700375 0.700855 0.143313 -0.576709
O15   O     O_R   0.714590 0.757181 0.004906 -0.799635
O16   O     O_2   0.744361 0.422352 0.166879 -0.620792
O17   O     O_R   0.825269 0.368663 0.039820 -0.774789
O18   O     O_2   0.660723 0.187603 0.667385 -0.607745
O19   O     O_R   0.808486 0.155144 0.566653 -0.749741
O20   O     O_2   0.788778 0.839351 0.575174 -0.585453
O21   O     O_R   0.649674 0.818750 0.682577 -0.771120
O22   O     O_R   0.499990 0.614720 0.377140 -0.579413
O23   O     O_R   0.499990 0.385280 0.377140 -0.588285
O24   O     O_R   0.683220 0.614710 0.500000 -0.606847
O25   O     O_R   0.683220 0.385290 0.500000 -0.611825
O26   O     O_R   0.499980 0.614620 0.622860 -0.594653
O27   O     O_R   0.499980 0.385380 0.622860 -0.597166
O28   O     O_2   0.335412 0.809576 0.334978 -0.537551
Zn1   Zn    Zn3+2 0.499980 0.653120 0.500000 1.039771
Zn2   Zn    Zn3+2 0.499980 0.346880 0.500000 1.035500

loop_
_geom_bond_atom_site_label_1
_geom_bond_atom_site_label_2
_ccdc_geom_bond_type
C11   O26   A    
C2    C35   A    
C26   O13   S    
H13   N6    S    
C25   O10   S    
C14   C18   S    
C22   O6    S    
C30   O20   D    
C19   C31   S    
C16   H12   S    
H5    O10   S    
C29   O19   S    
C15   C19   S    
C12   C23   S    
C8    C20   S    
C13   C18   S    
C10   O25   A    
C27   O14   D    
H14   N7    S    
C5    C6    A    
C10   O24   A    
C9    N2    A    
O26   Zn1   S    
C21   O3    D    
C35   N6    S    
C14   C24   S    
C27   O15   S    
C15   H1    S    
C29   O18   D    
N1    Zn1   S    
H25   N4    S    
C8    C9    A    
H9    N5    S    
H19   O21   S    
C23   C27   S    
H8    O17   S    
C4    C35   A    
H24   N4    S    
C7    C33   S    
C22   O5    D    
H17   N8    S    
C5    C29   S    
C7    O23   A    
C4    C34   A    
C18   C23   S    
H7    O15   S    
H18   O19   S    
O25   Zn2   S    
C1    O12   A    
C23   C28   S    
C15   N4    S    
O1    Zn1   S    
C21   O4    S    
C5    N2    A    
C6    N1    A    
H22   N3    S    
C28   O17   S    
H26   O2    S    
C1    O1    A    
H3    O6    S    
O23   Zn2   S    
C12   H20   S    
C12   H21   S    
C24   O8    S    
C6    C30   S    
C26   O11   D    
C28   O16   D    
C17   C31   T    
H4    O8    S    
C13   C26   S    
C18   C32   S    
H11   N6    S    
O27   Zn2   S    
C36   N7    S    
H2    O4    S    
C11   C17   S    
C25   O9    D    
O12   Zn2   S    
H6    O13   S    
C30   O21   S    
C34   N5    S    
C11   O27   A    
C1    C4    S    
C3    C36   A    
C32   C33   T    
C2    C3    A    
H10   N5    S    
C3    C10   S    
H23   N3    S    
C9    C21   S    
O24   Zn1   S    
C16   C19   S    
C7    O22   A    
C12   C19   S    
C13   C22   S    
C34   C36   A    
C14   C25   S    
H16   N8    S    
C8    N1    A    
C24   O7    D    
N2    Zn2   S    
C20   O28   D    
C13   C16   S    
C14   C15   S    
C20   O2    S    
C16   N3    S    
H15   N7    S    
C2    N8    S    
O22   Zn1   S    
