data_mof_unit_61696.cif
_audit_creation_date              2012-12-10T17:09:25-0500
_audit_creation_method            fapswitch 2.2
_symmetry_space_group_name_H-M    P1
_symmetry_Int_Tables_number       1
_space_group_crystal_system       triclinic
_cell_length_a                    43.97604
_cell_length_b                    30.22229
_cell_length_c                    30.240943
_cell_angle_alpha                 89.999941
_cell_angle_beta                  133.209483
_cell_angle_gamma                 90.000538
_cell_volume                      29294.098952

loop_
_atom_site_label
_atom_site_type_symbol
_atom_type_description
_atom_site_fract_x
_atom_site_fract_y
_atom_site_fract_z
_atom_type_partial_charge
C1    C     C_R   0.498354 0.500021 0.912834 0.800151
C2    C     C_R   0.501645 0.500021 0.087166 0.800171
C3    C     C_R   0.998352 0.000021 0.912831 0.799825
C4    C     C_R   0.001646 0.000021 0.087166 0.799885
C5    C     C_3   0.225287 0.487684 0.771154 0.042326
C6    C     C_3   0.774711 0.486830 0.229095 0.042314
C7    C     C_3   0.725287 0.987237 0.771027 0.042307
C8    C     C_3   0.274710 0.984783 0.229739 0.042339
C9    C     C_3   0.274070 0.490722 0.820726 0.016636
C10   C     C_3   0.725928 0.489851 0.179467 0.016613
C11   C     C_3   0.774071 0.990266 0.820629 0.016617
C12   C     C_3   0.225927 0.987756 0.179978 0.016666
C13   C     C_1   0.162236 0.499934 0.661505 0.085493
C14   C     C_1   0.837764 0.499941 0.338502 0.085531
C15   C     C_1   0.662236 0.999938 0.661503 0.085519
C16   C     C_1   0.337765 0.999964 0.338517 0.085457
C17   C     C_1   0.337750 0.499624 0.837090 0.100722
C18   C     C_1   0.662250 0.499632 0.162922 0.100739
C19   C     C_1   0.837751 0.999626 0.837086 0.100750
C20   C     C_1   0.162250 0.999649 0.162954 0.100662
C21   C     C_1   0.375371 0.499962 0.875074 -0.086362
C22   C     C_1   0.624629 0.499965 0.124930 -0.086347
C23   C     C_1   0.875372 0.999962 0.875074 -0.086318
C24   C     C_1   0.124629 0.999968 0.124941 -0.086359
C25   C     C_R   0.521771 0.467620 0.678873 0.213875
C26   C     C_R   0.478223 0.467624 0.321121 0.213859
C27   C     C_R   0.021751 0.967603 0.678851 0.213847
C28   C     C_R   0.978231 0.967618 0.321130 0.213815
C29   C     C_R   0.499927 0.500738 0.633918 -0.186471
C30   C     C_R   0.500072 0.500738 0.366082 -0.186455
C31   C     C_R   0.999926 0.000736 0.633916 -0.186502
C32   C     C_R   0.000073 0.000738 0.366082 -0.186472
C33   C     C_R   0.478120 0.534162 0.634691 0.162315
C34   C     C_R   0.521886 0.534158 0.365314 0.162324
C35   C     C_R   0.978134 0.034172 0.634704 0.162257
C36   C     C_R   0.021880 0.034163 0.365309 0.162297
C37   C     C_R   0.476010 0.533077 0.678931 0.074812
C38   C     C_R   0.523995 0.533072 0.321074 0.074769
C39   C     C_R   0.976023 0.033086 0.678942 0.074761
C40   C     C_R   0.023990 0.033076 0.321070 0.074707
C41   C     C_R   0.499839 0.501537 0.726407 -0.049852
C42   C     C_R   0.500160 0.501537 0.273592 -0.049850
C43   C     C_R   0.999833 0.001530 0.726400 -0.049931
C44   C     C_R   0.000162 0.001535 0.273594 -0.049901
C45   C     C_R   0.420115 0.500000 0.920094 0.800875
C46   C     C_R   0.579885 0.500000 0.079906 0.800692
C47   C     C_R   0.920115 1.000000 0.920095 0.800757
C48   C     C_R   0.079885 0.000000 0.079904 0.800214
C49   C     C_R   0.525287 0.470279 0.728985 -0.028663
C50   C     C_R   0.474707 0.470284 0.271008 -0.028677
C51   C     C_R   0.025264 0.970256 0.728961 -0.028575
C52   C     C_R   0.974716 0.970275 0.271018 -0.028663
C53   C     C_R   0.450748 0.563096 0.676988 -0.116835
C54   C     C_R   0.549262 0.563088 0.323022 -0.116806
C55   C     C_R   0.950778 0.063121 0.677016 -0.116806
C56   C     C_R   0.049251 0.063097 0.323011 -0.116750
C57   C     C_R   0.448143 0.561753 0.720155 -0.197086
C58   C     C_R   0.551867 0.561744 0.279855 -0.197035
C59   C     C_R   0.948171 0.061779 0.720181 -0.197089
C60   C     C_R   0.051857 0.061753 0.279845 -0.196968
C61   C     C_R   0.471401 0.530895 0.767779 0.117709
C62   C     C_R   0.528603 0.530891 0.232225 0.117697
C63   C     C_R   0.971411 0.030907 0.767787 0.117632
C64   C     C_R   0.028600 0.030894 0.232222 0.117642
C65   C     C_R   0.498184 0.501388 0.771537 0.064743
C66   C     C_R   0.501815 0.501389 0.228462 0.064730
C67   C     C_R   0.998177 0.001383 0.771528 0.064772
C68   C     C_R   0.001817 0.001386 0.228465 0.064728
C69   C     C_R   0.523216 0.471557 0.820300 0.047280
C70   C     C_R   0.476779 0.471562 0.179694 0.047260
C71   C     C_R   0.023190 0.971535 0.820274 0.047326
C72   C     C_R   0.976787 0.971554 0.179702 0.047231
C73   C     C_R   0.550602 0.443488 0.825376 -0.206989
C74   C     C_R   0.449388 0.443497 0.174614 -0.206887
C75   C     C_R   0.050559 0.943446 0.825333 -0.207507
C76   C     C_R   0.949402 0.943482 0.174628 -0.207048
C77   C     C_R   0.552713 0.443142 0.781485 0.320045
C78   C     C_R   0.447276 0.443152 0.218504 0.320037
C79   C     C_R   0.052672 0.943099 0.781444 0.320034
C80   C     C_R   0.947291 0.943136 0.218519 0.320024
C81   C     C_R   0.468604 0.528851 0.811730 0.091512
C82   C     C_R   0.531398 0.528848 0.188272 0.091317
C83   C     C_R   0.968614 0.028866 0.811738 0.091466
C84   C     C_R   0.031396 0.028851 0.188270 0.090952
C85   C     C_R   0.495791 0.500089 0.861989 -0.055600
C86   C     C_R   0.504208 0.500090 0.138010 -0.055647
C87   C     C_R   0.995786 0.000089 0.861983 -0.055571
C88   C     C_R   0.004209 0.000089 0.138011 -0.055731
C89   C     C_3   0.274699 0.545959 0.760723 0.063700
C90   C     C_3   0.725307 0.546199 0.238431 0.063800
C91   C     C_3   0.774698 0.046083 0.761166 0.063750
C92   C     C_3   0.225317 0.046736 0.236373 0.063997
C93   C     C_R   0.522184 0.471446 0.865276 -0.230204
C94   C     C_R   0.477811 0.471450 0.134719 -0.230054
C95   C     C_R   0.022159 0.971426 0.865251 -0.230755
C96   C     C_R   0.977818 0.971444 0.134726 -0.230238
C97   C     C_R   1.000000 0.585205 0.500000 0.799759
C98   C     C_R   0.499998 0.085206 0.499997 0.799776
C99   C     C_R   0.079872 0.499762 0.579758 0.789264
C100  C     C_R   0.920128 0.499761 0.420242 0.789292
C101  C     C_R   0.579872 0.999764 0.579758 0.789364
C102  C     C_R   0.420128 0.999764 0.420243 0.789453
C103  C     C_R   1.000000 0.414257 0.500000 0.802121
C104  C     C_R   0.499999 0.914259 0.499999 0.802132
C105  C     C_R   0.500000 0.414097 0.500000 0.852727
C106  C     C_R   0.000000 0.914095 0.500000 0.852842
C107  C     C_R   0.499901 0.500299 0.585591 0.899299
C108  C     C_R   0.500099 0.500298 0.414409 0.899284
C109  C     C_R   0.999901 0.000299 0.585590 0.899338
C110  C     C_R   0.000099 0.000299 0.414409 0.899296
C111  C     C_R   0.500000 0.585812 0.500000 0.833604
C112  C     C_R   0.000000 0.085811 0.500000 0.833583
C113  C     C_R   0.463077 0.342606 0.454924 -0.134773
C114  C     C_R   0.536920 0.342606 0.545073 -0.134833
C115  C     C_R   0.963012 0.842598 0.455205 -0.134770
C116  C     C_R   0.036993 0.842599 0.544788 -0.134807
C117  C     C_R   0.499999 0.365682 0.499999 -0.093334
C118  C     C_R   0.000001 0.865677 0.499998 -0.093113
C119  C     C_R   0.537440 0.296347 0.545787 0.049980
C120  C     C_R   0.462555 0.296346 0.454208 0.049872
C121  C     C_R   0.037519 0.796339 0.545491 0.050059
C122  C     C_R   0.962489 0.796338 0.454496 0.050009
C123  C     C_3   0.274224 0.462203 0.739820 0.354152
C124  C     C_3   0.725771 0.462848 0.260875 0.354230
C125  C     C_3   0.774226 0.962533 0.739460 0.354175
C126  C     C_3   0.225766 0.964442 0.262526 0.354322
C127  C     C_R   0.499998 0.272906 0.499997 0.009508
C128  C     C_R   0.000004 0.772899 0.499994 0.009576
C129  C     C_R   0.574483 0.272998 0.591207 0.258801
C130  C     C_R   0.425513 0.272997 0.408786 0.258862
C131  C     C_R   0.074637 0.772991 0.590614 0.258722
C132  C     C_R   0.925373 0.772988 0.409368 0.258754
C133  C     C_R   0.074452 0.727039 0.590254 -0.195751
C134  C     C_R   0.925557 0.727036 0.409727 -0.195685
C135  C     C_R   0.574299 0.227046 0.590843 -0.195844
C136  C     C_R   0.425696 0.227045 0.409146 -0.195648
C137  C     C_R   0.037640 0.702883 0.545451 0.059118
C138  C     C_R   0.962366 0.702882 0.454536 0.059084
C139  C     C_R   0.537564 0.202890 0.545742 0.059130
C140  C     C_R   0.462431 0.202889 0.454246 0.059065
C141  C     C_R   0.000003 0.726107 0.499994 -0.014994
C142  C     C_R   0.499997 0.226114 0.499995 -0.014947
C143  C     C_R   0.037842 0.656155 0.545220 0.098445
C144  C     C_R   0.962161 0.656154 0.454772 0.098478
C145  C     C_R   0.537775 0.156162 0.545492 0.098418
C146  C     C_R   0.462220 0.156161 0.454492 0.098453
C147  C     C_R   0.000000 0.633311 0.499999 -0.032001
C148  C     C_R   0.499997 0.133316 0.499995 -0.032090
C149  C     C_R   0.529785 0.657258 0.554450 -0.164585
C150  C     C_R   0.470212 0.657257 0.445548 -0.164515
C151  C     C_R   0.029706 0.157252 0.554478 -0.164571
C152  C     C_R   0.970294 0.157251 0.445521 -0.164540
C153  C     C_R   0.499999 0.634152 0.499999 -0.034572
C154  C     C_R   0.000000 0.134148 0.500000 -0.034473
C155  C     C_R   0.470428 0.703525 0.445049 0.062838
C156  C     C_R   0.529564 0.703526 0.554948 0.062904
C157  C     C_R   0.970516 0.203519 0.445025 0.062906
C158  C     C_R   0.029483 0.203520 0.554975 0.062949
C159  C     C_3   0.224829 0.464536 0.689848 0.054186
C160  C     C_3   0.775168 0.465188 0.310803 0.054289
C161  C     C_3   0.724830 0.964872 0.689510 0.054233
C162  C     C_3   0.275164 0.966799 0.312346 0.054524
C163  C     C_R   0.499996 0.726863 0.499999 0.063511
C164  C     C_R   0.999999 0.226857 0.500000 0.063499
C165  C     C_R   0.441608 0.726699 0.390466 -0.200830
C166  C     C_R   0.558380 0.726701 0.609532 -0.200832
C167  C     C_R   0.941785 0.226693 0.390420 -0.200735
C168  C     C_R   0.058213 0.226695 0.609580 -0.200775
C169  C     C_R   0.942018 0.272887 0.389563 0.261332
C170  C     C_R   0.057979 0.272888 0.610437 0.261259
C171  C     C_R   0.441835 0.772893 0.389605 0.261485
C172  C     C_R   0.558151 0.772895 0.610394 0.261254
C173  C     C_R   0.971115 0.296691 0.444342 0.050555
C174  C     C_R   0.028883 0.296692 0.555657 0.050640
C175  C     C_R   0.471020 0.796697 0.444361 0.050436
C176  C     C_R   0.528968 0.796697 0.555637 0.050626
C177  C     C_R   0.999999 0.273445 0.500000 -0.011881
C178  C     C_R   0.499995 0.773451 0.499999 -0.011937
C179  C     C_R   0.972112 0.343054 0.445102 -0.160682
C180  C     C_R   0.027886 0.343055 0.554897 -0.160743
C181  C     C_R   0.472018 0.843060 0.445116 -0.160697
C182  C     C_R   0.527973 0.843060 0.554882 -0.160873
C183  C     C_R   0.999999 0.365983 0.500000 -0.088052
C184  C     C_R   0.499997 0.865987 0.499998 -0.088019
C185  C     C_1   0.124613 0.499887 0.624236 -0.097307
C186  C     C_1   0.875387 0.499889 0.375766 -0.097341
C187  C     C_1   0.624613 0.999889 0.624236 -0.097356
C188  C     C_1   0.375387 0.999900 0.375771 -0.097512
C189  C     C_3   0.291595 0.498765 0.790279 -0.015655
C190  C     C_3   0.708405 0.498785 0.209751 -0.015643
C191  C     C_3   0.791596 0.998773 0.790266 -0.015660
C192  C     C_3   0.208405 0.998831 0.209822 -0.015762
C193  C     C_3   0.226030 0.546069 0.710111 -0.092150
C194  C     C_3   0.773976 0.546343 0.289048 -0.092416
C195  C     C_3   0.726028 0.046212 0.710550 -0.092303
C196  C     C_3   0.273985 0.046966 0.286994 -0.092811
C197  C     C_3   0.208444 0.499791 0.707213 -0.012348
C198  C     C_3   0.791556 0.499807 0.292799 -0.012329
C199  C     C_3   0.708444 0.999798 0.707208 -0.012330
C200  C     C_3   0.291557 0.999849 0.292827 -0.012339
Cu1   Cu    Cu3+1 0.500000 0.544470 0.000000 1.018577
Cu2   Cu    Cu3+1 0.000000 0.044470 0.000000 1.019266
Cu3   Cu    Cu3+1 0.500000 0.455530 0.000000 1.035813
Cu4   Cu    Cu3+1 0.000000 0.955530 0.000000 1.035908
Cu5   Cu    Cu3+1 0.999980 0.499850 0.455510 1.049331
Cu6   Cu    Cu3+1 0.000020 0.499850 0.544490 1.049768
Cu7   Cu    Cu3+1 0.499980 0.999850 0.455510 1.048598
Cu8   Cu    Cu3+1 0.500020 0.999850 0.544490 1.049781
Cu9   Cu    Cu3+1 0.458680 0.499970 0.458630 1.092489
Cu10  Cu    Cu3+1 0.541320 0.499970 0.541370 1.092289
Cu11  Cu    Cu3+1 0.958680 0.999970 0.458630 1.092428
Cu12  Cu    Cu3+1 0.041320 0.999970 0.541370 1.092193
H1    H     H_    0.216492 0.551918 0.665779 0.264506
H2    H     H_    0.783509 0.552828 0.333259 0.264522
H3    H     H_    0.716495 0.052390 0.666281 0.264520
H4    H     H_    0.283510 0.054992 0.330885 0.264325
H5    H     H_    0.285063 0.569318 0.797343 0.151790
H6    H     H_    0.714952 0.569059 0.201390 0.151740
H7    H     H_    0.785054 0.069182 0.798006 0.151775
H8    H     H_    0.214975 0.068378 0.198334 0.151565
H9    H     H_    0.432004 0.587594 0.641515 0.203799
H10   H     H_    0.568011 0.587581 0.358500 0.203848
H11   H     H_    0.932048 0.087631 0.641558 0.203847
H12   H     H_    0.067995 0.087595 0.358483 0.203914
H13   H     H_    0.428058 0.585739 0.716001 0.173140
H14   H     H_    0.571956 0.585727 0.284013 0.173214
H15   H     H_    0.928101 0.085779 0.716041 0.173196
H16   H     H_    0.071941 0.085740 0.283998 0.173335
H17   H     H_    0.542690 0.449434 0.903916 0.171840
H18   H     H_    0.457302 0.449441 0.096076 0.171839
H19   H     H_    0.042653 0.949402 0.903878 0.171803
H20   H     H_    0.957313 0.949431 0.096087 0.171855
H21   H     H_    0.571593 0.422464 0.864977 0.191015
H22   H     H_    0.428394 0.422476 0.135010 0.191038
H23   H     H_    0.071536 0.922407 0.864920 0.190889
H24   H     H_    0.928412 0.922457 0.135029 0.191029
H25   H     H_    0.434899 0.361115 0.420284 0.215099
H26   H     H_    0.565098 0.361115 0.579714 0.215102
H27   H     H_    0.934775 0.861102 0.420782 0.214948
H28   H     H_    0.065229 0.861104 0.579212 0.214935
H29   H     H_    0.103798 0.710698 0.625966 0.189541
H30   H     H_    0.896213 0.710695 0.374012 0.189561
H31   H     H_    0.603584 0.210704 0.626792 0.189557
H32   H     H_    0.396411 0.210703 0.373195 0.189602
H33   H     H_    0.552550 0.639146 0.596524 0.158155
H34   H     H_    0.447446 0.639144 0.403474 0.158198
H35   H     H_    0.052408 0.139138 0.596571 0.158062
H36   H     H_    0.947592 0.139137 0.403428 0.158110
H37   H     H_    0.418906 0.708850 0.348179 0.187104
H38   H     H_    0.581081 0.708852 0.651820 0.187043
H39   H     H_    0.919150 0.208844 0.348113 0.187065
H40   H     H_    0.080847 0.208846 0.651887 0.187001
H41   H     H_    0.950790 0.361868 0.403472 0.194650
H42   H     H_    0.049208 0.361869 0.596528 0.194643
H43   H     H_    0.450629 0.861875 0.403498 0.194584
H44   H     H_    0.549362 0.861876 0.596499 0.194562
H45   H     H_    0.211705 0.431977 0.686750 0.179445
H46   H     H_    0.788286 0.432454 0.314501 0.179391
H47   H     H_    0.711707 0.932221 0.686097 0.179441
H48   H     H_    0.288275 0.933668 0.317505 0.179212
H49   H     H_    0.281675 0.520492 0.848461 0.130607
H50   H     H_    0.718322 0.519233 0.151185 0.130559
H51   H     H_    0.781678 0.019834 0.848651 0.130596
H52   H     H_    0.218323 0.016184 0.150391 0.130371
H53   H     H_    0.212843 0.512086 0.782894 0.156084
H54   H     H_    0.787154 0.510777 0.216912 0.156164
H55   H     H_    0.712844 0.011403 0.782999 0.156112
H56   H     H_    0.287154 0.007611 0.216503 0.156256
O1    O     O_R   0.499980 0.537560 0.935110 -0.575897
O2    O     O_R   0.500020 0.537560 0.064890 -0.575799
O3    O     O_R   0.999980 0.037560 0.935110 -0.575925
O4    O     O_R   0.000020 0.037560 0.064890 -0.575653
O5    O     O_R   0.465080 0.499990 0.529910 -0.550373
O6    O     O_R   0.534920 0.499990 0.470090 -0.550435
O7    O     O_R   0.965080 0.999990 0.529910 -0.550389
O8    O     O_R   0.034920 0.999990 0.470090 -0.550461
O9    O     O_R   0.534860 0.499980 0.599740 -0.563789
O10   O     O_R   0.465140 0.499980 0.400260 -0.563719
O11   O     O_R   0.034860 0.999980 0.599740 -0.563832
O12   O     O_R   0.965140 0.999980 0.400260 -0.563722
O13   O     O_R   0.465120 0.564850 0.465070 -0.573591
O14   O     O_R   0.534880 0.564850 0.534930 -0.573623
O15   O     O_R   0.965120 0.064850 0.465070 -0.573563
O16   O     O_R   0.034880 0.064850 0.534930 -0.573595
O17   O     O_R   0.499970 0.462450 0.935080 -0.576579
O18   O     O_R   0.500030 0.462450 0.064920 -0.576754
O19   O     O_R   0.999970 0.962450 0.935080 -0.576476
O20   O     O_R   0.000030 0.962450 0.064920 -0.576917
O21   O     O_R   0.439720 0.537550 0.939720 -0.575511
O22   O     O_R   0.560280 0.537550 0.060280 -0.575288
O23   O     O_R   0.939720 0.037550 0.939720 -0.575371
O24   O     O_R   0.060280 0.037550 0.060280 -0.574717
O25   O     O_R   0.439710 0.462440 0.939690 -0.566435
O26   O     O_R   0.560290 0.462440 0.060310 -0.566435
O27   O     O_R   0.939710 0.962440 0.939690 -0.566419
O28   O     O_R   0.060290 0.962440 0.060310 -0.566391
O29   O     O_R   0.999990 0.564740 0.462430 -0.574433
O30   O     O_R   0.000010 0.564740 0.537570 -0.574263
O31   O     O_R   0.499990 0.064740 0.462430 -0.574535
O32   O     O_R   0.500010 0.064740 0.537570 -0.574107
O33   O     O_R   0.060270 0.499850 0.522700 -0.559855
O34   O     O_R   0.939730 0.499850 0.477300 -0.559680
O35   O     O_R   0.560270 0.999850 0.522700 -0.559732
O36   O     O_R   0.439730 0.999850 0.477300 -0.559261
O37   O     O_R   0.060290 0.499870 0.597820 -0.570437
O38   O     O_R   0.939710 0.499870 0.402180 -0.570712
O39   O     O_R   0.560290 0.999870 0.597820 -0.570653
O40   O     O_R   0.439710 0.999870 0.402180 -0.571440
O41   O     O_R   0.999980 0.434970 0.462420 -0.568769
O42   O     O_R   0.000020 0.434970 0.537580 -0.568799
O43   O     O_R   0.499980 0.934970 0.462420 -0.568825
O44   O     O_R   0.500020 0.934970 0.537580 -0.568867
O45   O     O_R   0.465090 0.435080 0.465060 -0.575996
O46   O     O_R   0.534910 0.435080 0.534940 -0.576052
O47   O     O_R   0.965090 0.935080 0.465060 -0.576030
O48   O     O_R   0.034910 0.935080 0.534940 -0.576097
C201  C     C_3   0.207959 0.585381 0.718505 -0.856868
H57   H     H_    0.216478 0.583445 0.762485 0.237255
H58   H     H_    0.220516 0.616905 0.717584 0.276607
H59   H     H_    0.173477 0.586747 0.681134 0.247305
C202  C     C_3   0.792058 0.585157 0.279958 -0.856854
H60   H     H_    0.783558 0.582564 0.236040 0.237312
H61   H     H_    0.779494 0.616918 0.280275 0.276665
H62   H     H_    0.826539 0.586584 0.317325 0.247370
C203  C     C_3   0.707951 0.085268 0.719303 -0.856790
H63   H     H_    0.716454 0.082991 0.763248 0.237289
H64   H     H_    0.720516 0.116916 0.718702 0.276625
H65   H     H_    0.673469 0.086669 0.681929 0.247281
C204  C     C_3   0.292083 0.084539 0.276222 -0.856307
H66   H     H_    0.283609 0.080358 0.232466 0.237344
H67   H     H_    0.279506 0.116847 0.275090 0.276591
H68   H     H_    0.326562 0.086106 0.313550 0.247444
Br1   Br    Br    0.202567 0.431261 0.770080 -0.382166
Br2   Br    Br    0.797426 0.430026 0.231220 -0.382306
Br3   Br    Br    0.702569 0.930614 0.769403 -0.382170
Br4   Br    Br    0.297424 0.927103 0.234413 -0.382439
Br5   Br    Br    0.536830 0.414802 0.661105 -0.402049
Br6   Br    Br    0.463157 0.414807 0.338881 -0.402275
Br7   Br    Br    0.036786 0.914781 0.661054 -0.402019
Br8   Br    Br    0.963177 0.914798 0.338903 -0.402240
Br9   Br    Br    0.452148 0.581699 0.575612 -0.489104
Br10  Br    Br    0.547865 0.581691 0.424401 -0.489017
Br11  Br    Br    0.952186 0.081721 0.575647 -0.489163
Br12  Br    Br    0.047849 0.081701 0.424385 -0.488980
C205  C     C_3   0.435370 0.555258 0.802849 -0.751669
H69   H     H_    0.404611 0.550290 0.756066 0.250955
H70   H     H_    0.430756 0.544649 0.832950 0.238529
H71   H     H_    0.443518 0.590956 0.810524 0.238246
C206  C     C_3   0.564635 0.555253 0.197155 -0.751462
H72   H     H_    0.595394 0.550276 0.243934 0.250898
H73   H     H_    0.569242 0.544652 0.167044 0.238531
H74   H     H_    0.556495 0.590952 0.189497 0.238364
C207  C     C_3   0.935392 0.055293 0.802870 -0.751474
H75   H     H_    0.904632 0.050345 0.756083 0.250906
H76   H     H_    0.930770 0.044686 0.832961 0.238559
H77   H     H_    0.943560 0.090985 0.810565 0.238308
C208  C     C_3   0.064631 0.055259 0.197151 -0.750972
H78   H     H_    0.095389 0.050287 0.243932 0.250769
H79   H     H_    0.069241 0.044655 0.167046 0.238531
H80   H     H_    0.056485 0.090957 0.189484 0.238619
Br13  Br    Br    0.299029 0.573881 0.732577 -0.404517
Br14  Br    Br    0.700977 0.575091 0.266031 -0.403546
Br15  Br    Br    0.799031 0.074512 0.733308 -0.403964
Br16  Br    Br    0.200985 0.077946 0.262628 -0.401326
Br17  Br    Br    0.599886 0.411285 0.805254 -0.332267
Br18  Br    Br    0.400097 0.411305 0.194728 -0.332014
Br19  Br    Br    0.099825 0.911207 0.805196 -0.333430
Br20  Br    Br    0.900119 0.911277 0.194752 -0.332472
Br21  Br    Br    0.626836 0.301641 0.655620 -0.410624
Br22  Br    Br    0.373160 0.301640 0.344373 -0.409901
Br23  Br    Br    0.127101 0.801634 0.654602 -0.411543
Br24  Br    Br    0.872913 0.801630 0.345374 -0.411083
C209  C     C_3   0.078554 0.631121 0.592811 -0.835069
H81   H     H_    0.091159 0.638620 0.638714 0.244707
H82   H     H_    0.075712 0.594744 0.587674 0.215862
H83   H     H_    0.101569 0.641074 0.590165 0.237355
C210  C     C_3   0.921448 0.631120 0.407180 -0.835053
H84   H     H_    0.908850 0.638609 0.361280 0.244510
H85   H     H_    0.924286 0.594744 0.412324 0.215872
H86   H     H_    0.898429 0.641081 0.409813 0.237694
C211  C     C_3   0.578439 0.131132 0.593342 -0.834857
H87   H     H_    0.590769 0.138554 0.639101 0.244835
H88   H     H_    0.575639 0.094760 0.588118 0.216013
H89   H     H_    0.601654 0.141162 0.591134 0.237224
C212  C     C_3   0.421559 0.131130 0.406624 -0.834716
H90   H     H_    0.409237 0.138562 0.360872 0.244320
H91   H     H_    0.424362 0.094756 0.411839 0.216055
H92   H     H_    0.398334 0.141148 0.408820 0.238106
Br25  Br    Br    0.901341 0.301318 0.311982 -0.403283
Br26  Br    Br    0.098652 0.301320 0.688018 -0.403993
Br27  Br    Br    0.401025 0.801325 0.312057 -0.402042
Br28  Br    Br    0.598949 0.801326 0.687945 -0.403667
C213  C     C_3   0.287569 0.414854 0.766539 -0.717975
H93   H     H_    0.321803 0.412726 0.805818 0.256374
H94   H     H_    0.271407 0.403334 0.780625 0.271617
H95   H     H_    0.279077 0.390997 0.731595 0.253633
C214  C     C_3   0.712419 0.415266 0.235035 -0.718182
H96   H     H_    0.678185 0.413046 0.195795 0.256387
H97   H     H_    0.728579 0.403183 0.221175 0.271599
H98   H     H_    0.720906 0.391911 0.270410 0.253590
C215  C     C_3   0.787573 0.915060 0.765721 -0.718011
H99   H     H_    0.821806 0.912882 0.804981 0.256382
H100  H     H_    0.771410 0.903245 0.779688 0.271613
H101  H     H_    0.779086 0.891463 0.730553 0.253612
C216  C     C_3   0.212402 0.916338 0.238824 -0.718472
H102  H     H_    0.178168 0.913896 0.199687 0.256368
H103  H     H_    0.228561 0.902910 0.225529 0.271514
H104  H     H_    0.220882 0.894210 0.275222 0.253536
Br29  Br    Br    0.299820 0.468667 0.706286 -0.349252
Br30  Br    Br    0.700180 0.470418 0.294272 -0.350266
Br31  Br    Br    0.799820 0.969574 0.705995 -0.349740
Br32  Br    Br    0.200177 0.974663 0.295542 -0.352271
Br33  Br    Br    0.199646 0.472092 0.605856 -0.375047
Br34  Br    Br    0.800357 0.473829 0.394639 -0.375222
Br35  Br    Br    0.699644 0.972992 0.605598 -0.375247
Br36  Br    Br    0.300357 0.978055 0.395756 -0.375409
Br37  Br    Br    0.303188 0.445555 0.884878 -0.413562
Br38  Br    Br    0.696805 0.444045 0.116168 -0.413250
Br39  Br    Br    0.803191 0.944764 0.884337 -0.413395
Br40  Br    Br    0.196802 0.940445 0.118759 -0.412323

loop_
_geom_bond_atom_site_label_1
_geom_bond_atom_site_label_2
_ccdc_geom_bond_type
C4    O4    A    
C133  C137  A    
C208  H78   S    
C55   C59   A    
C97   C147  S    
C136  C140  A    
C47   O23   A    
C176  C182  A    
C130  Br22  S    
C145  C211  S    
C103  C183  S    
C89   H5    S    
C193  C201  S    
C69   C93   A    
C214  H97   S    
C34   Br10  S    
C139  C142  A    
C124  C214  S    
C71   C95   A    
C173  C179  A    
C53   H9    S    
C29   C33   A    
C104  O43   A    
Cu4   O27   S    
Cu11  O12   S    
C135  H31   S    
C32   C110  S    
C149  C153  A    
C64   C84   A    
C210  H86   S    
C137  C141  A    
Cu4   O20   S    
C70   C74   A    
C74   H22   S    
C123  C213  S    
C21   C45   S    
C99   O33   A    
C161  H47   S    
C27   Br7   S    
C162  H48   S    
C106  C118  S    
Cu2   O24   S    
C9    C189  S    
C41   C49   A    
C207  H76   S    
C25   C29   A    
C12   C192  S    
C13   C185  T    
C116  C121  A    
C27   C31   A    
C151  C158  A    
C84   C88   A    
C28   C32   A    
C121  C128  A    
C16   C188  T    
C209  H83   S    
C89   Br13  S    
C30   C34   A    
C91   C191  S    
C17   C21   T    
C10   H50   S    
C201  H59   S    
C19   C23   T    
Cu2   O3    S    
C20   C192  S    
Cu10  O6    S    
C113  C120  A    
C91   C195  S    
C7    C199  S    
C156  C166  A    
C68   C72   A    
C115  C118  A    
C89   C193  S    
C163  C178  A    
C125  C191  S    
C205  H71   S    
C126  C192  S    
C174  C177  A    
C129  Br21  S    
C143  C147  A    
C208  H80   S    
C122  C132  A    
C211  H87   S    
C111  O14   A    
Cu11  O15   S    
Cu8   O32   S    
C99   C185  S    
C145  C148  A    
C6    C198  S    
C170  C174  A    
C152  C157  A    
C18   C190  S    
C146  C212  S    
C97   O30   A    
C161  Br35  S    
C140  C142  A    
C92   C196  S    
C138  C141  A    
C162  Br36  S    
C105  O46   A    
C39   C43   A    
C193  H1    S    
C124  C190  S    
C213  H93   S    
C59   C63   A    
C60   C64   A    
C81   C205  S    
C26   C50   A    
C82   C206  S    
C216  H102  S    
C115  H27   S    
C84   C208  S    
C66   C70   A    
C171  C175  A    
C155  C165  A    
C124  C160  S    
C116  C118  A    
C99   O37   A    
C107  O5    A    
C72   C96   A    
C61   C65   A    
C90   Br14  S    
C132  C134  A    
C202  H60   S    
C45   O21   A    
C75   C79   A    
C127  C142  A    
C19   C191  S    
C212  H91   S    
C165  C171  A    
C166  C172  A    
C206  H72   S    
C162  C200  S    
C12   Br40  S    
C43   C51   A    
C215  H99   S    
C120  C127  A    
C167  C169  A    
C165  H37   S    
C166  H38   S    
C13   C197  S    
C64   C68   A    
C1    O1    A    
C180  H42   S    
Cu9   O13   S    
C112  O16   A    
C203  H64   S    
Cu5   O33   S    
C129  C135  A    
C85   C93   A    
C87   C95   A    
C6    H54   S    
C211  H89   S    
C47   O27   A    
C114  C119  A    
C48   O28   A    
C175  C181  A    
C37   C53   A    
Cu3   O17   S    
C176  C178  A    
C159  H45   S    
C112  C154  S    
C171  Br27  S    
Cu1   Cu3   S    
C144  C147  A    
C98   O31   A    
C27   C51   A    
C106  O47   A    
C195  C199  S    
C213  H95   S    
Cu10  O9    S    
C23   C47   S    
C62   C66   A    
C24   C48   S    
Cu8   O39   S    
Cu3   O25   S    
C83   C207  S    
C216  H104  S    
C8    Br4   S    
C5    C197  S    
C155  C163  A    
C103  O41   A    
C125  Br31  S    
C60   H16   S    
C126  Br32  S    
C5    C9    S    
C124  Br30  S    
C8    C12   S    
C202  H62   S    
Cu9   Cu10  S    
C76   H24   S    
Cu1   O1    S    
C7    H55   S    
C111  C153  S    
C157  C164  A    
C42   C50   A    
C113  C117  A    
Cu10  O46   S    
C26   C30   A    
C206  H74   S    
C150  C155  A    
C126  C216  S    
C8    C200  S    
C174  C180  A    
C215  H101  S    
C94   H18   S    
C90   C190  S    
C150  H34   S    
C73   C77   A    
C18   C22   T    
C195  H3    S    
C76   C80   A    
C58   H14   S    
C101  O39   A    
C79   Br19  S    
C102  O40   A    
C10   Br38  S    
C138  C144  A    
C214  H96   S    
C25   Br5   S    
Cu12  O16   S    
C194  C198  S    
C161  C199  S    
C119  C129  A    
C49   C77   A    
Cu4   O28   S    
C11   C191  S    
Cu8   O44   S    
C37   C41   A    
C51   C79   A    
C90   H6    S    
C114  C117  A    
C6    Br2   S    
C6    C10   S    
C179  H41   S    
C40   C44   A    
C43   C67   A    
C169  C173  A    
C29   C107  S    
C46   O26   A    
C101  C187  S    
C132  Br24  S    
C81   C85   A    
C172  C176  A    
C119  C127  A    
C58   C62   A    
C83   C87   A    
C88   C96   A    
Cu1   O22   S    
C157  C167  A    
C1    O17   A    
C207  H75   S    
C158  C168  A    
C131  Br23  S    
C3    O19   A    
Cu2   Cu4   S    
C70   C94   A    
C95   H19   S    
C108  O6    A    
C209  H82   S    
C44   C68   A    
C151  H35   S    
C196  H4    S    
C194  C202  S    
Cu7   O31   S    
C201  H58   S    
Cu2   O4    S    
C134  H30   S    
C39   C55   A    
C156  C163  A    
C40   C56   A    
C150  C153  A    
C69   C73   A    
C205  H70   S    
C59   H15   S    
C128  C141  A    
C73   H21   S    
Cu5   O38   S    
C196  C200  S    
C168  C170  A    
C62   C82   A    
C208  H79   S    
C111  O13   A    
C105  C117  S    
C168  H40   S    
C50   C78   A    
C109  O11   A    
C175  C178  A    
C110  O12   A    
C2    O2    A    
C106  O48   A    
Cu7   Cu8   S    
C97   O29   A    
C78   Br18  S    
C214  H98   S    
C140  C146  A    
Cu6   O34   S    
C53   C57   A    
C160  C198  S    
C195  C203  S    
C82   C86   A    
C33   C37   A    
C56   C60   A    
C63   C83   A    
C7    C11   S    
C134  C138  A    
C48   O24   A    
C14   C198  S    
Cu11  Cu12  S    
C38   C54   A    
C170  Br26  S    
C160  H46   S    
C31   C109  S    
C4    O20   A    
C36   Br12  S    
C4    C88   S    
Cu5   O29   S    
C22   C46   S    
Cu2   O23   S    
C120  C130  A    
C105  O45   A    
C32   C36   A    
C207  H77   S    
C55   H11   S    
C212  H90   S    
C181  C184  A    
C33   Br9   S    
C149  H33   S    
C30   C108  S    
C35   Br11  S    
C92   Br16  S    
C125  C161  S    
C143  C209  S    
C194  H2    S    
Cu5   O41   S    
C144  C210  S    
C101  O35   A    
C135  C139  A    
Cu11  O47   S    
C98   C148  S    
C65   C69   A    
C67   C71   A    
C122  C128  A    
C203  H63   S    
C25   C49   A    
C152  H36   S    
Cu12  O11   S    
C91   Br15  S    
C159  C197  S    
C74   C78   A    
C211  H88   S    
C89   C189  S    
Cu7   O40   S    
C61   C81   A    
C52   C80   A    
C92   C192  S    
Cu4   O19   S    
C204  H66   S    
C35   C39   A    
C8    H56   S    
C98   O32   A    
C80   Br20  S    
C11   Br39  S    
C3    O3    A    
Cu5   Cu6   S    
C9    Br37  S    
C213  H94   S    
C10   C190  S    
Cu11  O7    S    
C149  C156  A    
C38   C42   A    
C216  H103  S    
C146  C148  A    
C123  Br29  S    
C14   C186  T    
C54   H10   S    
C5    Br1   S    
Cu9   O10   S    
C167  H39   S    
C7    Br3   S    
C46   O22   A    
C151  C154  A    
C57   C61   A    
C92   H8    S    
C181  H43   S    
C104  O44   A    
C20   C24   T    
Cu7   O43   S    
C202  H61   S    
C90   C194  S    
C77   Br17  S    
C75   H23   S    
C11   H51   S    
C123  C189  S    
C86   C94   A    
C180  C183  A    
C158  C164  A    
C2    O18   A    
C212  H92   S    
C133  H29   S    
C113  H25   S    
C137  C143  A    
C206  H73   S    
C115  C122  A    
C125  C215  S    
C91   H7    S    
C159  Br33  S    
C121  C131  A    
C108  O10   A    
Cu9   O45   S    
C215  H100  S    
C179  C183  A    
Cu12  O8    S    
C1    C85   S    
C63   C67   A    
C210  H85   S    
C136  H32   S    
C3    C87   S    
Cu10  O14   S    
Cu7   O35   S    
C36   C40   A    
Cu8   O36   S    
C56   H12   S    
C41   C65   A    
C17   C189  S    
C15   C187  T    
C102  C188  S    
C203  H65   S    
C9    H49   S    
C112  O15   A    
C160  Br34  S    
C100  C186  S    
C57   H13   S    
C28   Br8   S    
Cu6   O37   S    
C15   C199  S    
C173  C177  A    
C5    H53   S    
C204  H67   S    
C72   C76   A    
C210  H84   S    
C109  O7    A    
C110  O8    A    
C12   H52   S    
Cu3   O18   S    
C152  C154  A    
Cu9   O5    S    
C204  H68   S    
Cu12  O48   S    
C107  O9    A    
Cu6   O30   S    
C54   C58   A    
C93   H17   S    
C139  C145  A    
Cu1   O21   S    
C182  C184  A    
C104  C184  S    
C196  C204  S    
C34   C38   A    
C45   O25   A    
C130  C136  A    
C131  C133  A    
C16   C200  S    
C172  Br28  S    
C103  O42   A    
C116  H28   S    
C114  H26   S    
C169  Br25  S    
C100  O38   A    
C26   Br6   S    
C209  H81   S    
C71   C75   A    
C28   C52   A    
C44   C52   A    
C193  C197  S    
C2    C86   S    
Cu3   O26   S    
C31   C35   A    
Cu1   O2    S    
C96   H20   S    
C100  O34   A    
C201  H57   S    
C123  C159  S    
C102  O36   A    
C42   C66   A    
C205  H69   S    
C126  C162  S    
C182  H44   S    
C164  C177  A    
Cu6   O42   S    
