data_mof_unit_64961.cif
_audit_creation_date              2013-03-05T15:57:51-0500
_audit_creation_method            fapswitch 2.2
_symmetry_space_group_name_H-M    P1
_symmetry_Int_Tables_number       1
_space_group_crystal_system       triclinic
_cell_length_a                    21.692202
_cell_length_b                    21.693323
_cell_length_c                    29.134635
_cell_angle_alpha                 90.027563
_cell_angle_beta                  89.963677
_cell_angle_gamma                 89.981461
_cell_volume                      13710.0533243

loop_
_atom_site_label
_atom_site_type_symbol
_atom_site_description
_atom_site_fract_x
_atom_site_fract_y
_atom_site_fract_z
_atom_type_partial_charge
O1    O     O_R   0.408380 0.948270 0.000000 -0.601466
O2    O     O_R   0.051730 0.408380 0.000000 -0.600744
O3    O     O_R   0.591620 0.051730 0.000000 -0.602098
O4    O     O_R   0.948270 0.591620 0.000000 -0.596278
O5    O     O_R   0.591620 0.948270 0.000000 -0.602313
O6    O     O_R   0.948270 0.408380 0.000000 -0.602088
O7    O     O_R   0.408380 0.051730 0.000000 -0.602308
O8    O     O_R   0.051730 0.591620 0.000000 -0.611990
O9    O     O_R   0.908380 0.448270 0.500000 -0.602439
O10   O     O_R   0.551730 0.908380 0.500000 -0.602469
O11   O     O_R   0.091620 0.551730 0.500000 -0.602375
O12   O     O_R   0.448270 0.091620 0.500000 -0.602445
O13   O     O_R   0.091620 0.448270 0.500000 -0.602438
O14   O     O_R   0.448270 0.908380 0.500000 -0.602362
O15   O     O_R   0.908380 0.551730 0.500000 -0.602449
O16   O     O_R   0.551730 0.091620 0.500000 -0.602456
C1    C     C_R   0.380125 0.000006 0.000027 0.964113
C2    C     C_R   0.000008 0.380154 0.000001 0.967351
C3    C     C_R   0.619879 0.999988 0.999970 0.963830
C4    C     C_R   0.999971 0.619746 0.998898 0.923410
C5    C     C_R   0.880145 0.500008 0.500000 0.965029
C6    C     C_R   0.500008 0.880143 0.499999 0.965094
C7    C     C_R   0.119855 0.499991 0.500005 0.965108
C8    C     C_R   0.499991 0.119856 0.499996 0.965084
O17   O     O_R   0.499990 0.948270 0.063150 -0.595264
O18   O     O_R   0.051730 0.499990 0.063150 -0.591336
O19   O     O_R   0.500010 0.051730 0.063150 -0.595433
O20   O     O_R   0.948270 0.500010 0.063150 -0.593980
O21   O     O_R   0.500010 0.948270 0.936850 -0.594972
O22   O     O_R   0.948270 0.499990 0.936850 -0.593739
O23   O     O_R   0.499990 0.051730 0.936850 -0.595469
O24   O     O_R   0.051730 0.500010 0.936850 -0.601878
O25   O     O_R   0.999990 0.448270 0.563150 -0.595377
O26   O     O_R   0.551730 0.999990 0.563150 -0.595455
O27   O     O_R   0.000010 0.551730 0.563150 -0.595394
O28   O     O_R   0.448270 0.000010 0.563150 -0.595331
O29   O     O_R   0.000010 0.448270 0.436850 -0.595466
O30   O     O_R   0.448270 0.999990 0.436850 -0.595388
O31   O     O_R   0.999990 0.551730 0.436850 -0.595294
O32   O     O_R   0.551730 0.000010 0.436850 -0.595447
C9    C     C_R   0.500001 0.000013 0.085741 0.874664
C10   C     C_R   0.999983 0.500010 0.085741 0.882557
C11   C     C_R   0.499998 0.999987 0.914259 0.874832
C12   C     C_R   0.000017 0.499996 0.914258 0.853664
C13   C     C_R   0.000001 0.500014 0.585742 0.875193
C14   C     C_R   0.499983 0.999999 0.585742 0.875257
C15   C     C_R   0.999999 0.499987 0.414258 0.875199
C16   C     C_R   0.500017 0.000001 0.414258 0.875228
Zn1   Zn    Zn3+2 0.500000 0.930930 0.000000 1.026445
Zn2   Zn    Zn3+2 0.069070 0.500000 0.000000 1.025166
Zn3   Zn    Zn3+2 0.500000 0.069070 0.000000 1.025011
Zn4   Zn    Zn3+2 0.930930 0.500000 0.000000 1.023758
Zn5   Zn    Zn3+2 1.000000 0.430930 0.500000 1.025018
Zn6   Zn    Zn3+2 0.569070 0.000000 0.500000 1.024927
Zn7   Zn    Zn3+2 1.000000 0.569070 0.500000 1.025235
Zn8   Zn    Zn3+2 0.430930 0.000000 0.500000 1.025203
Zn9   Zn    Zn3+2 1.000000 0.000000 0.952410 1.206603
Zn10  Zn    Zn3+2 1.000000 0.000000 0.047590 1.207886
Zn11  Zn    Zn3+2 0.500000 0.500000 0.452410 1.206441
Zn12  Zn    Zn3+2 0.500000 0.500000 0.547590 1.206597
C17   C     C_1   0.500014 0.000037 0.136562 -0.166818
C18   C     C_1   0.999952 0.500006 0.136562 -0.168765
C19   C     C_1   0.499985 0.999964 0.863438 -0.166507
C20   C     C_1   0.000050 0.500039 0.863439 -0.170416
C21   C     C_1   0.000015 0.500042 0.636562 -0.166755
C22   C     C_1   0.499952 0.999990 0.636562 -0.166793
C23   C     C_1   0.999987 0.499965 0.363438 -0.166754
C24   C     C_1   0.500048 0.000010 0.363438 -0.166867
C25   C     C_1   0.500026 0.000041 0.178873 0.027999
C26   C     C_1   0.999946 0.499998 0.178873 0.028825
C27   C     C_1   0.499973 0.999959 0.821127 0.028284
C28   C     C_1   0.000059 0.500062 0.821129 0.028102
C29   C     C_1   0.000028 0.500059 0.678874 0.028095
C30   C     C_1   0.499945 0.999981 0.678873 0.028040
C31   C     C_1   0.999974 0.499964 0.321127 0.028095
C32   C     C_1   0.500055 0.000019 0.321126 0.027914
C33   C     C_1   0.500040 0.000038 0.228844 0.037239
C34   C     C_1   0.999951 0.499984 0.228844 0.037711
C35   C     C_1   0.499958 0.999963 0.771156 0.037466
C36   C     C_1   0.000054 0.500072 0.771158 0.037141
C37   C     C_1   0.000044 0.500070 0.728845 0.037430
C38   C     C_1   0.499949 0.999970 0.728844 0.037418
C39   C     C_1   0.999960 0.499973 0.271156 0.037428
C40   C     C_1   0.500050 0.000030 0.271156 0.037242
C41   C     C_R   0.283163 0.036067 0.967560 -0.035662
C42   C     C_R   0.965044 0.283236 0.966929 -0.036082
C43   C     C_R   0.716966 0.963513 0.967793 -0.035613
C44   C     C_R   0.029800 0.717271 0.962133 -0.016040
C45   C     C_R   0.716824 0.036172 0.032389 -0.035734
C46   C     C_R   0.034989 0.283256 0.033077 -0.036768
C47   C     C_R   0.283081 0.963768 0.032324 -0.034909
C48   C     C_R   0.969425 0.716148 0.033754 -0.016299
C49   C     C_R   0.783223 0.535378 0.467143 -0.036295
C50   C     C_R   0.464635 0.783192 0.467166 -0.036239
C51   C     C_R   0.216835 0.464571 0.467169 -0.036254
C52   C     C_R   0.535353 0.216761 0.467110 -0.036251
C53   C     C_R   0.216752 0.535342 0.532894 -0.036286
C54   C     C_R   0.535385 0.783214 0.532846 -0.036210
C55   C     C_R   0.783187 0.464633 0.532834 -0.036263
C56   C     C_R   0.464569 0.216830 0.532837 -0.036311
C57   C     C_R   0.219041 0.036514 0.967634 0.267518
C58   C     C_R   0.964560 0.219122 0.967020 0.268087
C59   C     C_R   0.781093 0.962893 0.968045 0.264613
C60   C     C_R   0.032221 0.781212 0.964230 0.299437
C61   C     C_R   0.780945 0.036628 0.032313 0.266806
C62   C     C_R   0.035441 0.219138 0.033005 0.268425
C63   C     C_R   0.218958 0.963152 0.032088 0.264944
C64   C     C_R   0.968642 0.780182 0.034166 0.268306
C65   C     C_R   0.719102 0.535843 0.467232 0.267409
C66   C     C_R   0.464125 0.719076 0.467285 0.267367
C67   C     C_R   0.280955 0.464077 0.467280 0.267482
C68   C     C_R   0.535837 0.280879 0.467209 0.267424
C69   C     C_R   0.280872 0.535824 0.532798 0.267318
C70   C     C_R   0.535853 0.719095 0.532755 0.267469
C71   C     C_R   0.719069 0.464118 0.532712 0.267391
C72   C     C_R   0.464080 0.280948 0.532730 0.267404
C73   C     C_R   0.187475 0.999907 0.999900 -0.283123
C74   C     C_R   0.999989 0.187555 0.000019 -0.281749
C75   C     C_R   0.812536 0.999868 0.000122 -0.284433
C76   C     C_R   0.000750 0.812289 0.999684 -0.301340
C77   C     C_R   0.687528 0.499975 0.499968 -0.282236
C78   C     C_R   0.499983 0.687528 0.500024 -0.282214
C79   C     C_R   0.312472 0.499957 0.500036 -0.282124
C80   C     C_R   0.499965 0.312472 0.499972 -0.282150
O33   O     O_R   0.000010 0.908280 0.964370 -0.591913
O34   O     O_R   0.091720 0.000010 0.964370 -0.590909
O35   O     O_R   0.999990 0.091720 0.964370 -0.589475
O36   O     O_R   0.908280 0.999990 0.964370 -0.589614
O37   O     O_R   0.999990 0.908280 0.035630 -0.584827
O38   O     O_R   0.908280 0.000010 0.035630 -0.591009
O39   O     O_R   0.000010 0.091720 0.035630 -0.589755
O40   O     O_R   0.091720 0.999990 0.035630 -0.590342
O41   O     O_R   0.500010 0.408280 0.464370 -0.589929
O42   O     O_R   0.591720 0.500010 0.464370 -0.589993
O43   O     O_R   0.499990 0.591720 0.464370 -0.589915
O44   O     O_R   0.408280 0.499990 0.464370 -0.589926
O45   O     O_R   0.499990 0.408280 0.535630 -0.589925
O46   O     O_R   0.408280 0.500010 0.535630 -0.589911
O47   O     O_R   0.500010 0.591720 0.535630 -0.589925
O48   O     O_R   0.591720 0.499990 0.535630 -0.589899
C81   C     C_R   0.314327 1.000000 0.000003 -0.101218
C82   C     C_R   0.000022 0.314409 1.000000 -0.100955
C83   C     C_R   0.685684 0.999943 0.000015 -0.101759
C84   C     C_R   0.999790 0.685362 0.997946 -0.133074
C85   C     C_R   0.814383 0.500019 0.499998 -0.100576
C86   C     C_R   0.500020 0.814381 0.499999 -0.100553
C87   C     C_R   0.185617 0.499968 0.500023 -0.100487
C88   C     C_R   0.499969 0.185618 0.499980 -0.100544
C89   C     C_R   0.000448 0.878401 0.999969 1.044280
C90   C     C_R   0.121514 0.000016 0.999974 1.044504
C91   C     C_R   0.999993 0.121545 0.000009 1.048795
C92   C     C_R   0.878490 0.000016 0.000030 1.046255
C93   C     C_R   0.499992 0.378465 0.499990 1.048048
C94   C     C_R   0.621534 0.499992 0.499987 1.048020
C95   C     C_R   0.499994 0.621535 0.500010 1.048012
C96   C     C_R   0.378465 0.499990 0.500013 1.048009
N1    N     N_3   0.317290 0.072267 0.935008 -0.421539
H1    H     H_    0.303086 0.118202 0.937585 0.236593
H2    H     H_    0.307595 0.056203 0.901982 0.234548
N2    N     N_3   0.929943 0.317364 0.933735 -0.422240
H3    H     H_    0.883920 0.303247 0.935503 0.236494
H4    H     H_    0.947048 0.307561 0.901005 0.234801
N3    N     N_3   0.682949 0.927081 0.935328 -0.421401
H5    H     H_    0.696996 0.881130 0.938165 0.236653
H6    H     H_    0.692897 0.942796 0.902252 0.234349
N4    N     N_3   0.058019 0.686560 0.923455 -0.379550
H7    H     H_    0.032127 0.697716 0.894380 0.225668
H8    H     H_    0.055917 0.638717 0.925559 0.184756
N5    N     N_3   0.682675 0.072528 0.064871 -0.421478
H9    H     H_    0.696851 0.118451 0.062207 0.236613
H10   H     H_    0.692375 0.056619 0.097928 0.234168
N6    N     N_3   0.070111 0.317405 0.066258 -0.423551
H11   H     H_    0.116127 0.303235 0.064489 0.237003
H12   H     H_    0.053008 0.307676 0.098992 0.234275
N7    N     N_3   0.317133 0.927525 0.064874 -0.421228
H13   H     H_    0.303115 0.881558 0.062153 0.238139
H14   H     H_    0.307181 0.943427 0.097912 0.234196
N8    N     N_3   0.938750 0.681602 0.069123 -0.421605
H15   H     H_    0.892595 0.695379 0.070572 0.235065
H16   H     H_    0.959716 0.691367 0.100572 0.233574
N9    N     N_3   0.817367 0.570876 0.434174 -0.422630
H17   H     H_    0.803199 0.616869 0.436232 0.236714
H18   H     H_    0.807635 0.554145 0.401338 0.234350
N10   N     N_3   0.429151 0.817303 0.434188 -0.422616
H19   H     H_    0.383147 0.803199 0.436260 0.236766
H20   H     H_    0.445874 0.807478 0.401353 0.234400
N11   N     N_3   0.182752 0.429068 0.434175 -0.422685
H21   H     H_    0.196897 0.383070 0.436218 0.236675
H22   H     H_    0.192562 0.445777 0.401348 0.234425
N12   N     N_3   0.570864 0.182602 0.434119 -0.422712
H23   H     H_    0.616862 0.196728 0.436155 0.236683
H24   H     H_    0.554153 0.192360 0.401292 0.234352
N13   N     N_3   0.182584 0.570846 0.565885 -0.422535
H25   H     H_    0.196712 0.616841 0.563848 0.236853
H26   H     H_    0.192334 0.554130 0.598712 0.234574
N14   N     N_3   0.570885 0.817348 0.565812 -0.422660
H27   H     H_    0.616881 0.803183 0.563748 0.236643
H28   H     H_    0.554155 0.807607 0.598651 0.234419
N15   N     N_3   0.817292 0.429154 0.565818 -0.422681
H29   H     H_    0.803192 0.383151 0.563750 0.236679
H30   H     H_    0.807457 0.445875 0.598650 0.234330
N16   N     N_3   0.429056 0.182741 0.565830 -0.422668
H31   H     H_    0.383058 0.196890 0.563789 0.236723
H32   H     H_    0.445762 0.192539 0.598657 0.234385
N17   N     N_R   0.186298 0.075924 0.936378 0.214844
O49   O     O_R   0.192071 0.068530 0.892277 -0.360019
O50   O     O_R   0.150400 0.119180 0.951992 -0.362313
N18   N     N_R   0.926182 0.186415 0.935035 0.214956
O51   O     O_R   0.935231 0.191931 0.891090 -0.360422
O52   O     O_R   0.882110 0.150933 0.949831 -0.360454
N19   N     N_R   0.813983 0.922638 0.937413 0.214549
O53   O     O_R   0.808266 0.928648 0.893201 -0.360615
O54   O     O_R   0.849984 0.879978 0.953741 -0.368790
N20   N     N_R   0.068859 0.814356 0.931345 0.236852
O55   O     O_R   0.055170 0.812514 0.887903 -0.347142
O56   O     O_R   0.115354 0.847502 0.944991 -0.350695
N21   N     N_R   0.813662 0.076170 0.063506 0.214719
O57   O     O_R   0.807876 0.068976 0.107620 -0.361012
O58   O     O_R   0.849573 0.119328 0.047826 -0.362510
N22   N     N_R   0.073826 0.186441 0.064980 0.215021
O59   O     O_R   0.064819 0.192046 0.108928 -0.360531
O60   O     O_R   0.117881 0.150898 0.050172 -0.360546
N23   N     N_R   0.186119 0.923150 0.062887 0.215090
O61   O     O_R   0.191777 0.929605 0.107072 -0.359372
O62   O     O_R   0.150242 0.880265 0.046742 -0.363247
N24   N     N_R   0.933054 0.812241 0.068258 0.216127
O63   O     O_R   0.946837 0.807223 0.111540 -0.357800
O64   O     O_R   0.886519 0.846327 0.056020 -0.357598
N25   N     N_R   0.686382 0.574658 0.435557 0.214958
O65   O     O_R   0.692055 0.566332 0.391540 -0.360439
O66   O     O_R   0.650703 0.618390 0.450710 -0.361737
N26   N     N_R   0.425276 0.686337 0.435634 0.214968
O67   O     O_R   0.433578 0.691914 0.391612 -0.360286
O68   O     O_R   0.381553 0.650715 0.450815 -0.361633
N27   N     N_R   0.313730 0.425232 0.435597 0.214950
O69   O     O_R   0.308142 0.433523 0.391581 -0.360342
O70   O     O_R   0.349397 0.381526 0.450742 -0.361772
N28   N     N_R   0.574680 0.313576 0.435516 0.214940
O71   O     O_R   0.566383 0.307922 0.391503 -0.360434
O72   O     O_R   0.618403 0.349222 0.450651 -0.361692
N29   N     N_R   0.313565 0.574659 0.564489 0.214986
O73   O     O_R   0.307902 0.566355 0.608502 -0.359719
O74   O     O_R   0.349211 0.618387 0.549353 -0.361500
N30   N     N_R   0.574672 0.686370 0.564425 0.214938
O75   O     O_R   0.566348 0.692033 0.608443 -0.360271
O76   O     O_R   0.618403 0.650694 0.549265 -0.361792
N31   N     N_R   0.686322 0.425267 0.564365 0.214947
O77   O     O_R   0.691886 0.433568 0.608387 -0.360510
O78   O     O_R   0.650702 0.381548 0.549186 -0.361750
N32   N     N_R   0.425234 0.313715 0.564418 0.214977
O79   O     O_R   0.433522 0.308113 0.608432 -0.360305
O80   O     O_R   0.381528 0.349386 0.549278 -0.361687

loop_
_geom_bond_atom_site_label_1
_geom_bond_atom_site_label_2
_geom_bond_distance
_ccdc_geom_bond_type
C50   C86   1.400951 A    
C62   N22   1.437181 S    
N12   H23   1.045592 S    
C71   C77   1.408712 A    
C26   C34   1.455887 S    
N27   O70   1.301006 A    
N5    H9    1.045596 S    
C4    C84   1.423725 S    
C70   N30   1.437228 S    
N23   O61   1.300743 A    
C56   C72   1.390970 A    
C9    C17   1.480634 S    
O22   C12   1.300895 A    
C32   C40   1.455881 S    
Zn9   O36   2.019674 S    
C27   C35   1.455884 S    
N8    H15   1.045592 S    
C11   C19   1.480634 S    
N7    H14   1.044749 S    
O21   Zn1   1.878089 S    
N9    H17   1.045591 S    
C12   C20   1.480579 S    
C42   C58   1.390895 A    
C52   C68   1.390986 A    
C18   C26   1.232718 T    
C76   C89   1.434220 S    
N1    H1    1.045597 S    
N16   H32   1.044743 S    
O4    Zn4   2.022941 S    
C62   C74   1.408929 A    
O41   C93   1.223098 A    
C66   N26   1.437245 S    
C60   C76   1.409133 A    
N3    H6    1.044758 S    
O40   C90   1.223133 A    
C14   C22   1.480628 S    
C49   C65   1.390966 A    
O18   Zn2   1.877674 S    
C55   C71   1.390909 A    
O44   C96   1.223030 A    
N20   O56   1.301180 A    
C54   C70   1.390991 A    
O2    C2    1.278343 A    
Zn10  O37   2.019827 S    
C52   N12   1.436798 S    
C22   C30   1.232721 T    
Zn11  O44   2.019674 S    
C28   C36   1.455890 S    
C21   C29   1.232730 T    
N30   O75   1.300740 A    
O13   C7    1.278453 A    
C1    C81   1.427298 S    
N29   O73   1.300744 A    
C78   C95   1.431605 S    
C53   N13   1.436800 S    
O11   C7    1.278458 A    
C64   C76   1.406996 A    
O22   Zn4   1.877674 S    
O2    Zn2   2.022943 S    
O35   C91   1.223143 A    
C13   C21   1.480646 S    
C65   N25   1.437228 S    
C34   C39   1.232745 T    
O36   C92   1.223179 A    
O31   Zn7   1.877735 S    
C6    C86   1.426611 S    
C53   C69   1.390959 A    
N10   H20   1.044742 S    
N18   O51   1.300742 A    
N13   H26   1.044743 S    
C67   N27   1.437245 S    
N27   O69   1.300742 A    
C49   C85   1.400950 A    
C73   C90   1.430832 S    
O26   C14   1.300897 A    
O10   Zn6   2.022943 S    
O29   C15   1.301013 A    
C42   N2    1.436813 S    
C43   N3    1.436770 S    
C10   C18   1.480625 S    
O30   C16   1.300899 A    
C58   C74   1.408958 A    
O34   C90   1.222520 A    
Zn12  O45   2.019827 S    
O29   Zn5   1.878089 S    
N17   O50   1.300975 A    
C55   C85   1.400939 A    
O25   C13   1.300965 A    
N15   H29   1.045593 S    
O16   C8    1.278433 A    
C80   C93   1.431614 S    
O21   C11   1.301008 A    
N4    H8    1.040716 S    
C53   C87   1.400949 A    
O5    Zn1   2.022844 S    
C74   C91   1.431970 S    
C50   N10   1.436807 S    
C30   C38   1.455881 S    
O6    C2    1.278317 A    
C57   N17   1.437294 S    
C29   C37   1.455902 S    
N22   O59   1.300741 A    
C44   C60   1.389428 A    
N6    H12   1.044744 S    
C63   N23   1.437345 S    
C79   C96   1.431542 S    
N31   O78   1.301009 A    
O25   Zn5   1.877734 S    
C52   C88   1.400955 A    
N28   O72   1.301007 A    
C63   C73   1.408118 A    
C77   C94   1.431535 S    
C67   C79   1.408721 A    
C65   C77   1.408691 A    
C47   C63   1.391063 A    
C2    C82   1.426219 S    
C51   C87   1.400921 A    
C46   C62   1.390951 A    
N14   H28   1.044743 S    
N16   H31   1.045592 S    
O43   C95   1.223050 A    
O17   C9    1.300945 A    
Zn9   O34   2.020107 S    
O3    Zn3   2.022604 S    
N20   O55   1.300825 A    
N14   H27   1.045593 S    
C54   C86   1.400957 A    
C33   C40   1.232742 T    
O7    C1    1.278729 A    
N32   O79   1.300743 A    
C45   C83   1.401439 A    
C7    C87   1.426525 S    
Zn11  O41   2.020158 S    
O27   Zn7   1.878089 S    
O10   C6    1.278454 A    
C56   C88   1.400931 A    
O32   Zn6   1.878142 S    
N29   O74   1.301008 A    
O15   Zn7   2.022846 S    
O13   Zn5   2.022844 S    
O37   C89   1.224349 A    
N25   O65   1.300741 A    
O28   Zn8   1.878141 S    
O33   C89   1.223345 A    
O19   C9    1.301007 A    
N7    H13   1.045592 S    
C69   C79   1.408687 A    
O47   C95   1.223101 A    
Zn10  O39   2.020156 S    
C47   N7    1.436783 S    
C44   N4    1.444491 S    
C60   N20   1.437561 S    
N26   O68   1.301009 A    
O24   C12   1.300981 A    
C54   N14   1.436797 S    
C15   C23   1.480637 S    
C46   C82   1.400723 A    
C64   N24   1.436727 S    
C16   C24   1.480628 S    
O3    C3    1.278771 A    
O24   Zn2   1.878142 S    
O12   Zn8   2.022941 S    
O23   C11   1.300947 A    
Zn12  O48   2.019671 S    
C43   C59   1.391136 A    
C48   N8    1.437505 S    
N18   O52   1.300981 A    
C45   C61   1.390947 A    
N19   O54   1.301161 A    
O8    C4    1.278088 A    
C19   C27   1.232722 T    
C51   N11   1.436804 S    
N32   O80   1.301004 A    
C68   N28   1.437236 S    
C8    C88   1.426601 S    
N4    H7    1.045127 S    
C50   C66   1.390943 A    
O9    Zn5   2.022607 S    
C55   N15   1.436809 S    
O9    C5    1.278440 A    
O8    Zn2   2.022702 S    
N15   H30   1.044744 S    
C69   N29   1.437235 S    
C41   C57   1.390965 A    
N6    H11   1.045589 S    
C42   C82   1.400706 A    
O31   C15   1.300944 A    
C45   N5    1.436806 S    
N5    H10   1.044741 S    
O38   C92   1.222374 A    
O46   C96   1.223085 A    
C75   C92   1.430686 S    
O32   C16   1.300977 A    
N17   O49   1.300739 A    
N28   O71   1.300742 A    
O45   C93   1.223057 A    
C3    C83   1.427461 S    
Zn10  O40   2.019671 S    
C72   C80   1.408724 A    
O1    C1    1.278603 A    
N12   H24   1.044744 S    
Zn11  O43   2.019825 S    
N2    H4    1.044743 S    
C59   C75   1.408004 A    
N24   O63   1.300755 A    
O23   Zn3   1.877735 S    
C36   C37   1.232748 T    
C43   C83   1.401586 A    
Zn9   O35   2.019825 S    
C35   C38   1.232742 T    
N8    H16   1.044826 S    
N31   O77   1.300742 A    
N23   O62   1.301126 A    
C71   N31   1.437249 S    
C68   C80   1.408700 A    
O5    C3    1.278649 A    
O4    C4    1.277311 A    
C24   C32   1.232721 T    
O30   Zn8   1.877674 S    
O14   Zn8   2.022704 S    
O12   C8    1.278436 A    
Zn11  O42   2.020107 S    
N24   O64   1.301176 A    
C25   C33   1.455884 S    
N22   O60   1.300990 A    
O11   Zn7   2.022604 S    
C17   C25   1.232722 T    
C57   C73   1.408346 A    
O14   C6    1.278420 A    
O16   Zn6   2.022702 S    
Zn12  O46   2.020109 S    
N21   O57   1.300740 A    
C56   N16   1.436800 S    
N11   H21   1.045592 S    
N25   O66   1.301007 A    
C51   C67   1.390932 A    
C66   C78   1.408714 A    
C61   N21   1.437315 S    
Zn9   O33   2.020158 S    
O28   C14   1.300975 A    
O20   Zn4   1.878141 S    
O26   Zn6   1.877674 S    
C31   C39   1.455890 S    
O42   C94   1.223088 A    
O15   C5    1.278477 A    
C72   N32   1.437244 S    
Zn10  O38   2.020109 S    
O20   C10   1.300970 A    
N26   O67   1.300742 A    
O19   Zn3   1.878089 S    
N30   O76   1.301008 A    
O39   C91   1.223244 A    
C49   N9    1.436797 S    
C20   C28   1.232710 T    
O18   C10   1.300888 A    
N21   O58   1.300964 A    
C48   C84   1.402289 A    
N2    H3    1.045593 S    
O17   Zn1   1.877734 S    
N11   H22   1.044743 S    
N3    H5    1.045599 S    
C58   N18   1.437198 S    
Zn12  O47   2.020156 S    
O7    Zn3   2.022846 S    
N19   O53   1.300740 A    
C70   C78   1.408701 A    
C41   C81   1.401359 A    
N9    H18   1.044743 S    
C23   C31   1.232722 T    
N1    H2    1.044738 S    
N13   H25   1.045593 S    
C46   N6    1.436802 S    
C41   N1    1.436800 S    
C61   C75   1.408280 A    
N10   H19   1.045594 S    
C59   N19   1.437385 S    
O6    Zn4   2.022704 S    
C48   C64   1.389263 A    
O1    Zn1   2.022607 S    
C44   C84   1.411274 A    
C5    C85   1.426531 S    
O48   C94   1.223023 A    
C47   C81   1.401477 A    
O27   C13   1.300996 A    
