data_mof_unit_64899.cif
_audit_creation_date              2012-12-10T20:04:43-0500
_audit_creation_method            fapswitch 2.2
_symmetry_space_group_name_H-M    P1
_symmetry_Int_Tables_number       1
_space_group_crystal_system       triclinic
_cell_length_a                    38.523381
_cell_length_b                    32.102356
_cell_length_c                    21.339198
_cell_angle_alpha                 90.000044
_cell_angle_beta                  123.575094
_cell_angle_gamma                 90.005836
_cell_volume                      21987.1378115

loop_
_atom_site_label
_atom_site_type_symbol
_atom_type_description
_atom_site_fract_x
_atom_site_fract_y
_atom_site_fract_z
_atom_type_partial_charge
C1    C     C_R   0.919315 0.999997 0.419332 0.908258
C2    C     C_R   0.080684 0.000005 0.580642 0.907753
C3    C     C_R   0.419315 0.499998 0.419339 0.908099
C4    C     C_R   0.580685 0.500003 0.580664 0.908164
C5    C     C_3   0.000073 0.999903 0.689240 0.010256
C6    C     C_3   0.999932 0.999904 0.310765 0.011210
C7    C     C_3   0.500076 0.499904 0.689242 0.010853
C8    C     C_3   0.499926 0.499904 0.310759 0.010763
C9    C     C_R   0.728680 0.963854 0.201525 -0.011533
C10   C     C_R   0.271354 0.982223 0.825662 -0.010720
C11   C     C_R   0.228674 0.467058 0.193563 -0.011569
C12   C     C_R   0.771314 0.465678 0.803301 -0.011458
C13   C     C_R   0.706594 0.997885 0.205214 0.067658
C14   C     C_R   0.293402 0.998922 0.796127 0.068854
C15   C     C_R   0.206595 0.498048 0.204848 0.067945
C16   C     C_R   0.793405 0.497994 0.795019 0.067713
C17   C     C_R   0.727949 0.031861 0.252187 -0.157546
C18   C     C_R   0.272009 0.015617 0.723434 -0.159078
C19   C     C_R   0.227958 0.528997 0.259374 -0.157728
C20   C     C_R   0.772054 0.530265 0.743483 -0.157439
C21   C     C_R   0.771266 0.032431 0.295818 -0.180156
C22   C     C_R   0.228691 0.015919 0.679455 -0.179611
C23   C     C_R   0.271274 0.529525 0.303098 -0.180410
C24   C     C_R   0.728738 0.530814 0.699797 -0.180169
C25   C     C_R   0.793368 0.999004 0.292588 0.113842
C26   C     C_R   0.206628 0.999521 0.708073 0.115944
C27   C     C_R   0.293369 0.499088 0.292401 0.114376
C28   C     C_R   0.706632 0.499073 0.707540 0.114093
C29   C     C_R   0.772388 0.964901 0.245900 -0.148897
C30   C     C_R   0.227646 0.982761 0.780577 -0.148638
C31   C     C_R   0.272382 0.468022 0.238136 -0.148753
C32   C     C_R   0.727606 0.466681 0.758808 -0.148803
C33   C     C_1   0.662057 0.998815 0.161381 -0.083360
C34   C     C_1   0.337939 0.999399 0.839178 -0.084585
C35   C     C_1   0.162058 0.498907 0.161229 -0.083671
C36   C     C_1   0.837942 0.498879 0.838716 -0.083413
C37   C     C_1   0.837781 0.999607 0.337391 -0.053639
C38   C     C_1   0.162215 0.999820 0.662908 -0.053489
C39   C     C_1   0.337782 0.499641 0.337306 -0.053693
C40   C     C_1   0.662218 0.499645 0.662671 -0.053578
C41   C     C_1   0.875078 0.999910 0.374924 -0.179275
C42   C     C_1   0.124920 0.999966 0.625177 -0.179198
C43   C     C_1   0.375078 0.499918 0.374895 -0.179318
C44   C     C_1   0.624922 0.499929 0.625099 -0.179224
C45   C     C_R   0.000046 0.999977 0.621866 0.881117
C46   C     C_R   0.999957 0.999977 0.378137 0.880309
C47   C     C_R   0.500048 0.499977 0.621868 0.880754
C48   C     C_R   0.499953 0.499977 0.378133 0.880842
C49   C     C_1   0.624763 0.999489 0.124510 -0.159258
C50   C     C_1   0.375235 0.999742 0.875609 -0.160059
C51   C     C_1   0.124763 0.499529 0.124478 -0.159468
C52   C     C_1   0.875237 0.499518 0.875510 -0.159280
C53   C     C_R   0.999998 0.919389 0.999998 0.891969
C54   C     C_R   0.499998 0.419388 0.999997 0.892202
C55   C     C_R   0.000022 0.999924 0.878140 0.930604
C56   C     C_R   0.999979 0.999924 0.121860 0.930261
C57   C     C_R   0.500022 0.499925 0.878140 0.930618
C58   C     C_R   0.499978 0.499924 0.121860 0.930670
C59   C     C_R   0.000002 0.080761 0.000002 1.030480
C60   C     C_R   0.500003 0.580761 0.000002 1.030647
C61   C     C_R   0.500004 0.919502 0.000004 0.895241
C62   C     C_R   0.999999 0.419502 0.999999 0.894936
C63   C     C_R   0.580530 0.000005 0.080441 0.907992
C64   C     C_R   0.419470 0.000004 0.919567 0.909421
C65   C     C_R   0.080530 0.500005 0.080439 0.908539
C66   C     C_R   0.919470 0.500006 0.919560 0.908416
C67   C     C_R   0.500000 0.080552 0.000001 0.906849
C68   C     C_R   1.000000 0.580552 0.000000 0.906985
C69   C     C_R   0.462499 0.228645 0.975250 -0.028940
C70   C     C_R   0.537502 0.228658 0.024790 -0.027516
C71   C     C_R   0.962171 0.728645 0.972511 -0.027718
C72   C     C_R   0.037817 0.728657 0.027470 -0.027727
C73   C     C_R   0.500002 0.206615 0.000020 0.084727
C74   C     C_R   0.999995 0.706614 0.999991 0.084598
C75   C     C_R   0.037083 0.772182 0.026929 -0.276653
C76   C     C_R   0.962902 0.772170 0.973051 -0.276590
C77   C     C_R   0.536772 0.272183 0.024292 -0.276406
C78   C     C_R   0.463223 0.272170 0.975729 -0.275976
C79   C     C_3   0.001241 0.960456 0.730825 -0.150274
C80   C     C_3   0.998834 0.960453 0.269249 -0.149979
C81   C     C_3   0.501446 0.460463 0.731031 -0.149729
C82   C     C_3   0.498665 0.460458 0.269081 -0.149690
C83   C     C_R   0.999992 0.793580 0.999989 0.179718
C84   C     C_R   0.499996 0.293581 0.000005 0.179826
C85   C     C_1   0.500002 0.162004 0.000011 0.121902
C86   C     C_1   0.999996 0.662004 0.999995 0.121964
C87   C     C_1   0.999991 0.837953 0.999990 -0.046593
C88   C     C_1   0.499994 0.337953 0.999998 -0.046413
C89   C     C_1   0.999993 0.875212 0.999992 -0.183370
C90   C     C_1   0.499994 0.375213 0.999995 -0.183280
C91   C     C_1   0.500001 0.124717 0.000004 -0.071965
C92   C     C_1   0.999998 0.624717 0.999998 -0.072399
C93   C     C_R   0.495552 0.771819 0.939045 -0.177842
C94   C     C_R   0.504531 0.771820 0.061028 -0.177883
C95   C     C_R   0.997030 0.271820 0.940299 -0.176936
C96   C     C_R   0.002982 0.271820 0.059711 -0.177024
C97   C     C_R   0.500041 0.793462 0.000037 0.165470
C98   C     C_R   0.000004 0.293462 0.000004 0.165231
C99   C     C_R   0.002983 0.228397 0.059713 -0.168115
C100  C     C_R   0.997033 0.228396 0.940302 -0.167921
C101  C     C_R   0.504525 0.728397 0.061023 -0.168753
C102  C     C_R   0.495549 0.728396 0.939041 -0.168790
C103  C     C_R   0.000009 0.206762 0.000008 0.153421
C104  C     C_R   0.500032 0.706762 0.000028 0.153741
C105  C     C_1   0.500031 0.837906 0.000029 -0.062585
C106  C     C_1   0.000002 0.337906 0.000002 -0.061780
C107  C     C_3   0.034932 0.981422 0.805472 -0.181016
C108  C     C_3   0.965106 0.981352 0.194566 -0.181967
C109  C     C_3   0.535029 0.481603 0.805569 -0.181982
C110  C     C_3   0.465024 0.481496 0.194483 -0.181869
C111  C     C_1   0.000009 0.162331 0.000008 -0.042911
C112  C     C_1   0.500020 0.662330 0.000017 -0.043610
C113  C     C_1   0.000007 0.125023 0.000006 -0.080564
C114  C     C_1   0.500010 0.625023 0.000008 -0.081161
C115  C     C_1   0.500019 0.875224 0.000018 -0.168439
C116  C     C_1   0.000000 0.375225 0.000000 -0.168098
C117  C     C_3   0.000059 0.000305 0.810760 0.007717
C118  C     C_3   0.999944 0.000306 0.189243 0.008662
C119  C     C_3   0.500060 0.500306 0.810761 0.008159
C120  C     C_3   0.499941 0.500306 0.189240 0.008061
C121  C     C_3   0.966374 0.979380 0.737026 -0.182931
C122  C     C_3   0.033667 0.979449 0.263014 -0.183957
C123  C     C_3   0.466483 0.479207 0.737136 -0.183140
C124  C     C_3   0.533577 0.479309 0.262924 -0.183094
C125  C     C_3   0.965136 0.018833 0.694054 -0.228192
C126  C     C_3   0.034836 0.018904 0.305917 -0.228821
C127  C     C_3   0.465041 0.518654 0.693959 -0.228431
C128  C     C_3   0.534909 0.518759 0.305991 -0.228177
C129  C     C_3   0.998905 0.039240 0.768677 0.058244
C130  C     C_3   0.001030 0.039243 0.231258 0.059127
C131  C     C_3   0.498704 0.539234 0.768476 0.058925
C132  C     C_3   0.501188 0.539238 0.231416 0.058884
C133  C     C_3   0.033833 0.020871 0.762642 -0.226567
C134  C     C_3   0.966136 0.020803 0.237326 -0.227467
C135  C     C_3   0.533726 0.521045 0.762537 -0.227504
C136  C     C_3   0.466217 0.520943 0.237406 -0.227677
H1    H     H_    0.063377 0.966084 0.852406 0.156961
H2    H     H_    0.936688 0.965956 0.147658 0.155386
H3    H     H_    0.563554 0.466411 0.852579 0.155790
H4    H     H_    0.436542 0.466218 0.147514 0.155888
H5    H     H_    0.787510 0.058879 0.332015 0.147666
H6    H     H_    0.212414 0.028912 0.623236 0.145370
H7    H     H_    0.287525 0.553616 0.345174 0.146922
H8    H     H_    0.712497 0.555935 0.660047 0.147362
H9    H     H_    0.934409 0.789614 0.952355 0.137370
H10   H     H_    0.065575 0.789634 0.047623 0.137540
H11   H     H_    0.434972 0.289613 0.957074 0.137612
H12   H     H_    0.565022 0.289635 0.042944 0.137387
H13   H     H_    0.994726 0.211730 0.893972 0.155894
H14   H     H_    0.005292 0.211731 0.106044 0.155815
H15   H     H_    0.492063 0.711730 0.891711 0.155560
H16   H     H_    0.508004 0.711730 0.108347 0.155633
H17   H     H_    0.492066 0.788478 0.891713 0.145843
H18   H     H_    0.508016 0.788479 0.108360 0.146004
H19   H     H_    0.994719 0.288478 0.893965 0.146226
H20   H     H_    0.005290 0.288480 0.106044 0.146162
H21   H     H_    0.002206 0.928044 0.713703 0.154090
H22   H     H_    0.997927 0.928040 0.286430 0.153759
H23   H     H_    0.502580 0.428057 0.714076 0.154103
H24   H     H_    0.497623 0.428049 0.286126 0.154184
H25   H     H_    0.938891 0.962386 0.728152 0.153108
H26   H     H_    0.061180 0.962509 0.271919 0.152491
H27   H     H_    0.439089 0.462072 0.728354 0.152896
H28   H     H_    0.561019 0.462256 0.271756 0.153030
H29   H     H_    0.936771 0.034208 0.646969 0.140041
H30   H     H_    0.063174 0.034335 0.352974 0.139192
H31   H     H_    0.436597 0.533881 0.646795 0.139474
H32   H     H_    0.563310 0.534073 0.353112 0.139791
H33   H     H_    0.061239 0.037905 0.771246 0.144143
H34   H     H_    0.938700 0.037783 0.228693 0.142977
H35   H     H_    0.561044 0.538222 0.771052 0.143273
H36   H     H_    0.438852 0.538036 0.228843 0.143127
H37   H     H_    0.790212 0.939268 0.244309 0.183677
H38   H     H_    0.209852 0.970182 0.801639 0.181853
H39   H     H_    0.290200 0.444679 0.230822 0.183367
H40   H     H_    0.709779 0.442338 0.763858 0.183474
H41   H     H_    0.711034 0.057973 0.255034 0.156676
H42   H     H_    0.288894 0.028438 0.700753 0.153512
H43   H     H_    0.211048 0.552779 0.268047 0.155791
H44   H     H_    0.788973 0.555064 0.737113 0.156368
O1    O     O_R   0.939010 0.034440 0.439030 -0.618482
O2    O     O_R   0.060990 0.034440 0.560970 -0.617229
O3    O     O_R   0.439010 0.534440 0.439030 -0.618422
O4    O     O_R   0.560990 0.534440 0.560970 -0.618393
O5    O     O_R   0.561000 0.000050 0.113470 -0.614035
O6    O     O_R   0.439000 0.000050 0.886530 -0.614076
O7    O     O_R   0.061000 0.500050 0.113470 -0.613875
O8    O     O_R   0.939000 0.500050 0.886530 -0.613840
O9    O     O_R   0.561000 0.999980 0.008430 -0.612219
O10   O     O_R   0.439000 0.999980 0.991570 -0.614285
O11   O     O_R   0.061000 0.499980 0.008430 -0.613013
O12   O     O_R   0.939000 0.499980 0.991570 -0.612780
O13   O     O_R   0.500000 0.061040 0.052440 -0.610519
O14   O     O_R   0.500000 0.061040 0.947560 -0.610848
O15   O     O_R   0.000000 0.561040 0.052440 -0.611109
O16   O     O_R   1.000000 0.561040 0.947560 -0.611045
O17   O     O_R   0.939030 0.965580 0.439000 -0.613021
O18   O     O_R   0.060970 0.965580 0.561000 -0.613640
O19   O     O_R   0.439030 0.465580 0.439000 -0.612933
O20   O     O_R   0.560970 0.465580 0.561000 -0.612999
O21   O     O_R   0.000010 0.034440 0.593030 -0.630445
O22   O     O_R   0.999990 0.034440 0.406970 -0.630520
O23   O     O_R   0.500010 0.534440 0.593030 -0.630699
O24   O     O_R   0.499990 0.534440 0.406970 -0.630683
O25   O     O_R   0.000020 0.965580 0.593000 -0.626372
O26   O     O_R   0.999980 0.965580 0.407000 -0.626617
O27   O     O_R   0.500020 0.465580 0.593000 -0.626279
O28   O     O_R   0.499980 0.465580 0.407000 -0.626242
O29   O     O_R   0.034440 0.939060 0.034360 -0.624643
O30   O     O_R   0.965560 0.939060 0.965640 -0.625096
O31   O     O_R   0.534440 0.439060 0.034360 -0.624915
O32   O     O_R   0.465560 0.439060 0.965640 -0.624816
O33   O     O_R   0.034440 0.000050 0.941370 -0.626113
O34   O     O_R   0.965560 0.000050 0.058630 -0.626918
O35   O     O_R   0.534440 0.500050 0.941370 -0.627088
O36   O     O_R   0.465560 0.500050 0.058630 -0.627043
O37   O     O_R   0.965570 0.000070 0.872530 -0.624693
O38   O     O_R   0.034430 0.000070 0.127470 -0.624774
O39   O     O_R   0.465570 0.500070 0.872530 -0.624416
O40   O     O_R   0.534430 0.500070 0.127470 -0.624404
O41   O     O_R   0.034450 0.061050 0.034440 -0.608591
O42   O     O_R   0.965550 0.061050 0.965560 -0.608878
O43   O     O_R   0.534450 0.561050 0.034440 -0.608764
O44   O     O_R   0.465550 0.561050 0.965560 -0.609130
O45   O     O_R   0.500030 0.939050 0.052570 -0.616047
O46   O     O_R   0.499970 0.939050 0.947430 -0.616321
O47   O     O_R   0.000030 0.439050 0.052570 -0.616173
O48   O     O_R   0.999970 0.439050 0.947430 -0.616130
Zn1   Zn    Zn3+2 0.000000 0.045990 0.500000 0.956644
Zn2   Zn    Zn3+2 0.500000 0.545990 0.500000 0.955415
Zn3   Zn    Zn3+2 0.000000 0.954030 0.500000 0.968160
Zn4   Zn    Zn3+2 0.500000 0.454030 0.500000 0.969500
Zn5   Zn    Zn3+2 0.045990 0.000050 0.045940 0.991424
Zn6   Zn    Zn3+2 0.954010 0.000050 0.954060 0.989475
Zn7   Zn    Zn3+2 0.545990 0.500050 0.045940 0.989712
Zn8   Zn    Zn3+2 0.454010 0.500050 0.954060 0.989292
Zn9   Zn    Zn3+2 0.500020 0.000060 0.070120 0.993011
Zn10  Zn    Zn3+2 0.499980 0.000060 0.929880 0.992409
Zn11  Zn    Zn3+2 0.000020 0.500060 0.070120 0.992321
Zn12  Zn    Zn3+2 0.999980 0.500060 0.929880 0.992418
C137  C     C_2   0.421734 0.208346 0.948321 0.395415
H45   H     H_    0.394580 0.227566 0.930436 0.069549
O49   O     O_2   0.417526 0.170580 0.945477 -0.574800
C138  C     C_2   0.578271 0.208372 0.051737 0.393215
H46   H     H_    0.605416 0.227601 0.069563 0.068768
O50   O     O_2   0.582494 0.170607 0.054672 -0.576805
C139  C     C_2   0.921055 0.708346 0.942627 0.393258
H47   H     H_    0.893670 0.727567 0.922807 0.068682
O51   O     O_2   0.916807 0.670581 0.939435 -0.576875
C140  C     C_2   0.078934 0.708371 0.057354 0.392852
H48   H     H_    0.106318 0.727600 0.077178 0.068712
O52   O     O_2   0.083183 0.670607 0.060539 -0.576901
C141  C     C_2   0.997595 0.083717 0.788414 0.360214
H49   H     H_    0.996865 0.108413 0.753032 0.069135
O53   O     O_2   0.997341 0.092451 0.843783 -0.596298
C142  C     C_2   0.002262 0.083722 0.211442 0.359040
H50   H     H_    0.002948 0.108420 0.246780 0.069175
O54   O     O_2   0.002501 0.092456 0.156058 -0.596497
C143  C     C_2   0.497164 0.583704 0.787985 0.358876
H51   H     H_    0.496308 0.608396 0.752477 0.068883
O55   O     O_2   0.496863 0.592437 0.843306 -0.596504
C144  C     C_2   0.502605 0.583712 0.211784 0.358896
H52   H     H_    0.503391 0.608407 0.247222 0.068901
O56   O     O_2   0.502883 0.592445 0.156439 -0.596534
C145  C     C_2   0.706677 0.927436 0.152063 0.399160
H53   H     H_    0.672912 0.926211 0.117503 0.074272
O57   O     O_2   0.726052 0.898194 0.149250 -0.561538
C146  C     C_2   0.293396 0.964330 0.902701 0.399951
H54   H     H_    0.327163 0.963706 0.938150 0.080227
O58   O     O_2   0.274051 0.949988 0.927701 -0.562592
C147  C     C_2   0.206663 0.433883 0.136007 0.399270
H55   H     H_    0.172898 0.432753 0.101202 0.075498
O59   O     O_2   0.226032 0.407261 0.126664 -0.561481
C148  C     C_2   0.793312 0.431087 0.857657 0.399105
H56   H     H_    0.827077 0.429918 0.892373 0.074931
O60   O     O_2   0.773932 0.403319 0.864409 -0.561720

loop_
_geom_bond_atom_site_label_1
_geom_bond_atom_site_label_2
_ccdc_geom_bond_type
C83   C87   S    
C65   O7    A    
C66   O12   A    
C122  C126  S    
C81   H23   S    
C66   O8    A    
C8    C136  S    
O45   Zn9   S    
C82   H24   S    
C14   C18   A    
O40   Zn7   S    
C60   C114  S    
C109  C119  S    
C71   C139  S    
C69   C137  S    
C56   O38   A    
C85   C91   T    
C95   C98   A    
C20   H44   S    
C80   C122  S    
C121  C125  S    
C1    C41   S    
C79   C121  S    
C3    C43   S    
C53   O29   A    
C10   C146  S    
C47   O27   A    
C81   C123  S    
C49   C63   S    
C82   C110  S    
O15   Zn11  S    
C118  C130  S    
C32   H40   S    
C2    C42   S    
C54   C90   S    
O17   Zn3   S    
C131  C135  S    
C2    O2    A    
C71   C76   A    
O27   Zn4   S    
C5    C125  S    
C109  C135  S    
C28   C40   S    
C140  O52   D    
C62   O47   A    
C96   C99   A    
C60   O44   A    
C137  H45   S    
O21   Zn1   S    
C50   C64   S    
C138  H46   S    
C103  C111  S    
C148  H56   S    
C51   C65   S    
C82   C124  S    
C9    C13   A    
C126  H30   S    
C117  C121  S    
C59   O41   A    
O46   Zn10  S    
C25   C37   S    
O6    Zn10  S    
C110  C136  S    
C8    C128  S    
O5    Zn9   S    
C125  H29   S    
C136  H36   S    
C94   C101  A    
O1    Zn1   S    
C53   O30   A    
C63   O5    A    
C96   C98   A    
C61   C115  S    
C3    O19   A    
C14   C34   S    
C69   C73   A    
C98   C106  S    
C107  C133  S    
C23   C27   A    
C5    C79   S    
C67   O14   A    
C117  C129  S    
C145  H53   S    
C141  H49   S    
C4    O20   A    
C56   O34   A    
C36   C52   T    
C111  C113  T    
C132  C136  S    
C102  H15   S    
C57   C119  S    
C97   C105  S    
C11   C15   A    
C54   O32   A    
C147  H55   S    
C130  C142  S    
C11   C31   A    
C120  C132  S    
C12   C32   A    
C70   C77   A    
C37   C41   T    
C46   O26   A    
C70   C138  S    
C23   H7    S    
C69   C78   A    
C130  C134  S    
O10   Zn9   S    
C58   O40   A    
C72   C75   A    
O33   Zn5   S    
O9    Zn10  S    
C128  C132  S    
C76   C83   A    
C15   C35   S    
O32   Zn8   S    
C64   O10   A    
O31   Zn7   S    
C127  C131  S    
C139  O51   D    
C75   H10   S    
C25   C29   A    
C53   C89   S    
C99   H14   S    
C7    C135  S    
C9    C29   A    
O18   Zn3   S    
C34   C50   T    
C67   C91   S    
C27   C31   A    
C12   C16   A    
C28   C32   A    
O35   Zn7   S    
C6    C126  S    
C72   C74   A    
C99   C103  A    
C10   C14   A    
C12   C148  S    
C141  O53   D    
C1    O1    A    
C95   C100  A    
C26   C38   S    
O12   Zn11  S    
C31   H39   S    
C5    C45   S    
C4    C44   S    
C77   C84   A    
C55   C117  S    
C140  H48   S    
C63   O9    A    
C9    C145  S    
C119  C131  S    
C100  C103  A    
C61   O45   A    
C133  H33   S    
C13   C33   S    
C142  O54   D    
C137  O49   D    
C7    C47   S    
C107  H1    S    
C15   C19   A    
O19   Zn4   S    
C8    C48   S    
C118  C122  S    
C108  C134  S    
O8    Zn12  S    
C59   O42   A    
C108  C118  S    
O34   Zn6   S    
O23   Zn2   S    
C123  H27   S    
C10   C30   A    
O2    Zn1   S    
C80   H22   S    
C77   H12   S    
C46   O22   A    
C124  H28   S    
C16   C20   A    
C121  H25   S    
C142  H50   S    
C48   O28   A    
C70   C73   A    
C58   C120  S    
C5    C133  S    
C79   C107  S    
C68   O16   A    
O14   Zn10  S    
C102  C104  A    
C145  O57   D    
O3    Zn2   S    
O13   Zn9   S    
O43   Zn7   S    
C78   H11   S    
O28   Zn4   S    
O22   Zn1   S    
C131  C143  S    
C112  C114  T    
O47   Zn11  S    
C45   O21   A    
C54   O31   A    
C7    C81   S    
C81   C109  S    
C76   H9    S    
C26   C30   A    
C101  C104  A    
C135  H35   S    
C87   C89   T    
C129  C141  S    
C35   C51   T    
C6    C80   S    
O36   Zn8   S    
C129  C133  S    
O25   Zn3   S    
C134  H34   S    
C110  C120  S    
C143  H51   S    
C60   O43   A    
C19   H43   S    
C123  C127  S    
C52   C66   S    
C19   C23   A    
C24   C28   A    
C104  C112  S    
O16   Zn12  S    
C17   H41   S    
O11   Zn12  S    
C147  O59   D    
C21   C25   A    
O42   Zn6   S    
C45   O25   A    
C6    C46   S    
O41   Zn5   S    
O26   Zn3   S    
C2    O18   A    
C93   C102  A    
C11   C147  S    
O39   Zn8   S    
C105  C115  T    
C1    O17   A    
C8    C82   S    
O38   Zn5   S    
C146  O58   D    
C59   C113  S    
C143  O55   D    
C122  H26   S    
O37   Zn6   S    
C79   H21   S    
C71   C74   A    
C144  O56   D    
C22   H6    S    
O48   Zn12  S    
C144  H52   S    
C18   C22   A    
C119  C123  S    
C100  H13   S    
C74   C86   S    
C57   O39   A    
C80   C108  S    
C101  H16   S    
C61   O46   A    
C94   C97   A    
C124  C128  S    
C3    O3    A    
C109  H3    S    
C7    C127  S    
C48   O24   A    
C110  H4    S    
C88   C90   T    
O44   Zn8   S    
C68   O15   A    
C21   H5    S    
C73   C85   S    
C6    C134  S    
C86   C92   T    
C16   C36   S    
C56   C118  S    
C94   H18   S    
C75   C83   A    
C96   H20   S    
C84   C88   S    
C27   C39   S    
C24   H8    S    
C62   O48   A    
C93   H17   S    
C68   C92   S    
C93   C97   A    
C138  O50   D    
C55   O33   A    
C132  C144  S    
C95   H19   S    
O30   Zn6   S    
O24   Zn2   S    
C20   C24   A    
O29   Zn5   S    
O7    Zn11  S    
C4    O4    A    
C62   C116  S    
O4    Zn2   S    
C13   C17   A    
C38   C42   T    
C78   C84   A    
C40   C44   T    
C65   O11   A    
C18   H42   S    
C127  H31   S    
C125  C129  S    
C22   C26   A    
C57   O35   A    
C106  C116  T    
C128  H32   S    
C47   O23   A    
C126  C130  S    
C55   O37   A    
C30   H38   S    
O20   Zn4   S    
C72   C140  S    
C29   H37   S    
C67   O13   A    
C33   C49   T    
C39   C43   T    
C107  C117  S    
C64   O6    A    
C120  C124  S    
C139  H47   S    
C58   O36   A    
C146  H54   S    
C108  H2    S    
C148  O60   D    
C17   C21   A    
