data_mof_unit_62568.cif
_audit_creation_date              2012-12-10T20:37:18-0500
_audit_creation_method            fapswitch 2.2
_symmetry_space_group_name_H-M    P1
_symmetry_Int_Tables_number       1
_space_group_crystal_system       triclinic
_cell_length_a                    36.084863
_cell_length_b                    39.770863
_cell_length_c                    26.857747
_cell_angle_alpha                 89.97519
_cell_angle_beta                  132.245746
_cell_angle_gamma                 90.018428
_cell_volume                      28533.0775344

loop_
_atom_site_label
_atom_site_type_symbol
_atom_type_description
_atom_site_fract_x
_atom_site_fract_y
_atom_site_fract_z
_atom_type_partial_charge
C1    C     C_R   0.400211 0.749965 0.000020 0.817303
C2    C     C_3   0.739598 0.718477 0.003818 0.192489
C3    C     C_R   0.204910 0.271593 0.362462 -0.161394
C4    C     C_R   0.704927 0.228412 0.362486 -0.164909
C5    C     C_R   0.295313 0.771787 0.637513 -0.163638
C6    C     C_R   0.295088 0.228411 0.637538 -0.161608
C7    C     C_R   0.704690 0.771768 0.362463 -0.162960
C8    C     C_R   0.198868 0.750054 0.397598 0.153452
C9    C     C_R   0.801173 0.249986 0.602399 0.157262
C10   C     C_R   0.801157 0.750036 0.602399 0.157102
C11   C     C_R   0.198821 0.249980 0.397602 0.154960
C12   C     C_R   0.698841 0.250028 0.397600 0.157188
C13   C     C_3   0.742034 0.281283 0.008638 0.191561
C14   C     C_R   0.301137 0.749934 0.602402 0.153056
C15   C     C_R   0.301160 0.250041 0.602398 0.154609
C16   C     C_R   0.698882 0.749899 0.397597 0.156983
C17   C     C_1   0.234901 0.750011 0.469750 -0.056659
C18   C     C_1   0.765120 0.250003 0.530249 -0.061824
C19   C     C_1   0.765125 0.749985 0.530247 -0.061346
C20   C     C_1   0.234875 0.250003 0.469752 -0.057388
C21   C     C_1   0.734895 0.250013 0.469751 -0.061776
C22   C     C_1   0.265106 0.749974 0.530250 -0.057501
C23   C     C_1   0.265104 0.250020 0.530249 -0.057168
C24   C     C_3   0.259596 0.718534 0.994631 0.200700
C25   C     C_1   0.734916 0.749941 0.469749 -0.061011
C26   C     C_R   0.456163 0.430955 0.972550 -0.086514
C27   C     C_R   0.465039 0.568115 0.942691 -0.044030
C28   C     C_R   0.547134 0.430800 0.040136 -0.042532
C29   C     C_R   0.536386 0.569323 0.065167 -0.099706
C30   C     C_R   0.041008 0.932091 0.050284 -0.094796
C31   C     C_R   0.042060 0.069041 0.019554 -0.082071
C32   C     C_R   0.958795 0.929973 0.934977 -0.066955
C33   C     C_R   0.953285 0.068901 0.963768 -0.040792
C34   C     C_R   0.455534 0.395416 0.969349 -0.073090
C35   C     C_3   0.760387 0.781540 0.996149 0.192576
C36   C     C_R   0.465445 0.603693 0.941029 -0.127648
C37   C     C_R   0.546474 0.395335 0.035928 -0.119655
C38   C     C_R   0.537202 0.604801 0.063320 -0.092756
C39   C     C_R   0.041465 0.896551 0.054054 -0.062074
C40   C     C_R   0.043059 0.104546 0.024196 -0.069917
C41   C     C_R   0.957885 0.894632 0.939855 -0.124895
C42   C     C_R   0.954289 0.104353 0.968923 -0.121884
C43   C     C_R   0.500631 0.377806 0.000458 -0.081048
C44   C     C_R   0.501162 0.621915 0.001408 -0.095176
C45   C     C_R   0.999410 0.877968 0.999175 -0.080618
C46   C     C_3   0.242218 0.218728 0.009069 0.195484
C47   C     C_R   0.999237 0.122058 0.999254 -0.085261
C48   C     C_R   0.501939 0.448352 0.008271 0.022007
C49   C     C_R   0.500693 0.551169 0.004785 0.029072
C50   C     C_R   0.999915 0.948519 0.990677 0.018587
C51   C     C_R   0.997173 0.051487 0.989025 0.026230
C52   C     C_1   0.501645 0.484661 0.007665 0.095752
C53   C     C_1   0.501139 0.514886 0.006503 0.136300
C54   C     C_1   0.998387 0.984873 0.988866 0.041531
C55   C     C_1   0.997509 0.015125 0.988413 0.055420
C56   C     C_R   0.500085 0.659038 0.000112 0.858087
C57   C     C_3   0.240418 0.781486 0.005402 0.199996
C58   C     C_R   0.500485 0.340862 0.000436 0.967353
C59   C     C_R   0.999281 0.159091 0.999336 0.956184
C60   C     C_R   0.000715 0.840926 0.000665 0.945462
C61   C     C_R   0.500000 0.841050 0.000001 0.786674
C62   C     C_R   0.500000 0.158950 0.999999 0.783685
C63   C     C_R   0.000000 0.341050 0.000001 0.784114
C64   C     C_R   1.000000 0.658950 0.999999 0.784229
C65   C     C_R   0.454710 0.068789 0.956790 -0.165423
C66   C     C_R   0.545289 0.931211 0.043216 -0.165486
C67   C     C_R   0.545288 0.068790 0.043208 -0.165853
C68   C     C_3   0.757963 0.218699 0.991351 0.191885
C69   C     C_R   0.454712 0.931210 0.956786 -0.165398
C70   C     C_R   0.954711 0.568789 0.956784 -0.165620
C71   C     C_R   0.045290 0.431211 0.043210 -0.165433
C72   C     C_R   0.045288 0.568790 0.043213 -0.165629
C73   C     C_R   0.954712 0.431210 0.956792 -0.165722
C74   C     C_R   0.454655 0.103909 0.956737 -0.194872
C75   C     C_R   0.545344 0.896091 0.043269 -0.195102
C76   C     C_R   0.545343 0.103910 0.043260 -0.194950
C77   C     C_R   0.454657 0.896090 0.956735 -0.194141
C78   C     C_R   0.954656 0.603909 0.956732 -0.195090
C79   C     C_3   0.708747 0.764413 0.942435 -0.257860
C80   C     C_R   0.045344 0.396091 0.043263 -0.194854
C81   C     C_R   0.045343 0.603910 0.043265 -0.194696
C82   C     C_R   0.954657 0.396090 0.956740 -0.194794
C83   C     C_R   0.499999 0.121825 0.999999 -0.007654
C84   C     C_R   0.500001 0.878175 0.000001 -0.008920
C85   C     C_R   0.999999 0.621824 0.999999 -0.007973
C86   C     C_R   0.000001 0.378175 0.000001 -0.007903
C87   C     C_R   0.499999 0.051210 0.999999 0.157903
C88   C     C_R   0.500000 0.948790 0.000001 0.157859
C89   C     C_R   0.999999 0.551210 0.999999 0.157790
C90   C     C_3   0.292346 0.238023 0.059749 -0.258921
C91   C     C_R   0.000001 0.448790 0.000001 0.157788
C92   C     C_1   0.500000 0.015126 1.000000 -0.062775
C93   C     C_1   0.500000 0.984874 0.000001 -0.062811
C94   C     C_1   1.000000 0.515126 0.999999 -0.062779
C95   C     C_1   0.000000 0.484874 0.000000 -0.062753
C96   C     C_2   0.409060 0.450634 0.937062 0.397558
C97   C     C_2   0.425210 0.548995 0.879891 0.467418
C98   C     C_2   0.595132 0.449315 0.075440 0.392923
C99   C     C_2   0.574193 0.551426 0.130545 0.442873
C100  C     C_2   0.082885 0.952718 0.108783 0.372841
C101  C     C_3   0.291608 0.763680 0.058265 -0.259590
C102  C     C_2   0.088030 0.049541 0.048121 0.343084
C103  C     C_2   0.915571 0.947472 0.872143 0.457838
C104  C     C_2   0.906471 0.050282 0.934440 0.392791
C105  C     C_2   0.408020 0.376806 0.936208 0.464224
C106  C     C_2   0.428338 0.622356 0.876517 0.392424
C107  C     C_2   0.594735 0.376831 0.073026 0.332320
C108  C     C_2   0.576006 0.623759 0.126828 0.396471
C109  C     C_2   0.088018 0.879196 0.112941 0.433867
C110  C     C_2   0.089475 0.123281 0.052481 0.475703
C111  C     C_2   0.913846 0.875174 0.881532 0.374587
C112  C     C_R   0.599796 0.250042 0.999994 0.842452
C113  C     C_3   0.707728 0.237847 0.940407 -0.259214
C114  C     C_2   0.906774 0.122640 0.937315 0.328378
C115  C     C_3   0.266896 0.316880 0.980732 -0.886583
C116  C     C_3   0.727525 0.682546 0.008077 -0.876196
C117  C     C_3   0.732718 0.316943 0.018376 -0.871542
C118  C     C_3   0.270752 0.682665 0.988605 -0.897630
C119  C     C_3   0.772462 0.817471 0.991889 -0.876013
C120  C     C_3   0.233106 0.183101 0.019283 -0.882815
C121  C     C_3   0.229261 0.817354 0.011429 -0.894948
C122  C     C_3   0.767283 0.183041 0.981614 -0.872301
C123  C     C_3   0.223258 0.208221 0.893721 -0.891661
C124  C     C_3   0.207661 0.261958 0.940267 -0.259206
C125  C     C_3   0.780014 0.787215 0.112842 -0.890479
C126  C     C_3   0.776959 0.208549 0.106820 -0.891963
C127  C     C_3   0.220980 0.788626 0.889043 -0.894705
C128  C     C_3   0.719972 0.712803 0.887125 -0.888637
C129  C     C_3   0.276748 0.291759 0.106295 -0.891257
C130  C     C_3   0.279034 0.711394 0.110990 -0.892902
C131  C     C_3   0.723037 0.291434 0.893169 -0.891416
C132  C     C_3   0.791238 0.735604 0.057533 -0.258591
C133  C     C_3   0.792268 0.262136 0.059582 -0.258933
C134  C     C_3   0.208407 0.736340 0.941768 -0.260497
C135  C     C_1   0.639375 0.750025 0.999915 -0.140383
C136  C     C_1   0.360621 0.249981 0.000076 -0.143009
C137  C     C_1   0.360638 0.750012 0.000115 -0.143528
C138  C     C_1   0.639369 0.249997 0.999901 -0.133399
C139  C     C_1   0.139383 0.250011 0.999934 -0.142628
C140  C     C_R   0.599792 0.749969 0.999992 0.837853
C141  C     C_1   0.860618 0.749984 0.000069 -0.138013
C142  C     C_1   0.860628 0.249996 0.000092 -0.132297
C143  C     C_1   0.139369 0.749996 0.999900 -0.143750
C144  C     C_3   0.764122 0.767378 0.052765 0.199282
C145  C     C_3   0.237403 0.230487 0.950294 0.199647
C146  C     C_3   0.236342 0.768038 0.948115 0.200273
C147  C     C_3   0.762699 0.230641 0.049960 0.199817
C148  C     C_3   0.262603 0.269493 0.049722 0.199606
C149  C     C_3   0.735864 0.732639 0.947203 0.198801
C150  C     C_3   0.737297 0.269342 0.950029 0.199470
C151  C     C_R   0.400204 0.250036 0.999999 0.840177
C152  C     C_3   0.263673 0.731981 0.051917 0.199807
C153  C     C_3   0.713135 0.750066 0.999789 0.089816
C154  C     C_3   0.286863 0.249936 0.000208 0.089555
C155  C     C_3   0.286874 0.750058 0.000230 0.089521
C156  C     C_3   0.713132 0.249944 0.999780 0.089883
C157  C     C_3   0.213144 0.250045 0.999808 0.089478
C158  C     C_3   0.786850 0.749951 0.000179 0.089745
C159  C     C_3   0.786864 0.250039 0.000209 0.089749
C160  C     C_3   0.213141 0.749962 0.999802 0.089618
C161  C     C_1   0.672643 0.750061 0.999820 -0.027534
C162  C     C_R   0.900204 0.249956 0.000005 0.840496
C163  C     C_1   0.327354 0.249944 0.000174 -0.028923
C164  C     C_1   0.327372 0.750047 0.000213 -0.031669
C165  C     C_1   0.672635 0.249960 0.999803 -0.027991
C166  C     C_1   0.172651 0.250042 0.999840 -0.028742
C167  C     C_1   0.827346 0.749953 0.000155 -0.028143
C168  C     C_1   0.827361 0.250028 0.000188 -0.028047
C169  C     C_1   0.172640 0.749968 0.999813 -0.030955
C170  C     C_R   0.157872 0.771888 0.362415 -0.162111
C171  C     C_R   0.842406 0.228365 0.637582 -0.164190
C172  C     C_R   0.842192 0.771840 0.637552 -0.164346
C173  C     C_R   0.099790 0.750037 0.999984 0.823752
C174  C     C_R   0.157596 0.228348 0.362447 -0.160302
C175  C     C_R   0.657615 0.271656 0.362417 -0.163976
C176  C     C_R   0.342084 0.728056 0.637591 -0.158670
C177  C     C_R   0.342373 0.271684 0.637555 -0.159454
C178  C     C_R   0.657946 0.728008 0.362434 -0.164740
C179  C     C_R   0.122726 0.771924 0.292177 -0.166779
C180  C     C_R   0.877549 0.228328 0.707818 -0.192854
C181  C     C_R   0.877333 0.771884 0.707791 -0.188322
C182  C     C_R   0.122452 0.228309 0.292209 -0.180547
C183  C     C_R   0.622468 0.271689 0.292181 -0.192291
C184  C     C_R   0.099797 0.249962 0.000003 0.842732
C185  C     C_R   0.377229 0.728025 0.707829 -0.178534
C186  C     C_R   0.377522 0.271717 0.707793 -0.178143
C187  C     C_R   0.622793 0.727983 0.292194 -0.182628
C188  C     C_R   0.128264 0.750071 0.256386 -0.013027
C189  C     C_R   0.871770 0.249966 0.743610 -0.009403
C190  C     C_R   0.871749 0.750071 0.743609 -0.011401
C191  C     C_R   0.128224 0.249956 0.256393 -0.011260
C192  C     C_R   0.628235 0.250040 0.256389 -0.009885
C193  C     C_R   0.371738 0.749926 0.743614 -0.012732
C194  C     C_R   0.371768 0.250053 0.743607 -0.011549
C195  C     C_R   0.900206 0.750034 0.000003 0.836077
C196  C     C_R   0.628267 0.749904 0.256389 -0.011858
C197  C     C_R   0.169652 0.728234 0.292239 -0.194962
C198  C     C_R   0.830164 0.271608 0.707756 -0.193066
C199  C     C_R   0.830325 0.728263 0.707784 -0.191784
C200  C     C_R   0.169824 0.271607 0.292221 -0.190178
C201  C     C_R   0.669835 0.228392 0.292244 -0.192696
C202  C     C_R   0.330399 0.771805 0.707754 -0.194166
C203  C     C_R   0.330179 0.228392 0.707778 -0.190439
C204  C     C_R   0.669598 0.771794 0.292224 -0.192992
C205  C     C_R   0.591104 0.749939 0.182156 0.814395
C206  C     C_3   0.257788 0.281253 0.990947 0.196947
C207  C     C_R   0.408907 0.250048 0.817843 0.803923
C208  C     C_R   0.408899 0.749947 0.817849 0.783234
C209  C     C_R   0.591093 0.250043 0.182152 0.792441
C210  C     C_R   0.091091 0.249953 0.182157 0.801879
C211  C     C_R   0.908900 0.750056 0.817843 0.808786
C212  C     C_R   0.908909 0.249958 0.817848 0.789949
C213  C     C_R   0.091102 0.750054 0.182150 0.803628
C214  C     C_R   0.204739 0.728248 0.362481 -0.161702
C215  C     C_R   0.795076 0.271592 0.637514 -0.165025
C216  C     C_R   0.795244 0.728270 0.637544 -0.163381
H1    H     H_    0.419464 0.055357 0.923162 0.136682
H2    H     H_    0.580842 0.882997 0.077142 0.161374
H3    H     H_    0.818599 0.796907 0.142373 0.246359
H4    H     H_    0.754065 0.808660 0.095105 0.246862
H5    H     H_    0.779067 0.770653 0.145236 0.244901
H6    H     H_    0.814752 0.197746 0.134788 0.246783
H7    H     H_    0.777238 0.223815 0.141645 0.244596
H8    H     H_    0.749378 0.187851 0.085847 0.246502
H9    H     H_    0.182647 0.798693 0.859991 0.245397
H10   H     H_    0.247478 0.809836 0.907842 0.247448
H11   H     H_    0.221515 0.772475 0.855849 0.243336
H12   H     H_    0.681387 0.703111 0.857595 0.246809
H13   H     H_    0.580841 0.117005 0.077129 0.161581
H14   H     H_    0.720919 0.729365 0.854733 0.245022
H15   H     H_    0.745921 0.691358 0.904863 0.246759
H16   H     H_    0.314478 0.302640 0.134110 0.245076
H17   H     H_    0.249051 0.312396 0.085057 0.246587
H18   H     H_    0.277121 0.276601 0.141328 0.245820
H19   H     H_    0.317367 0.701327 0.140043 0.245326
H20   H     H_    0.278499 0.727546 0.144183 0.244235
H21   H     H_    0.252536 0.690184 0.092191 0.247151
H22   H     H_    0.685244 0.302236 0.865200 0.247014
H23   H     H_    0.750618 0.312131 0.914141 0.246634
H24   H     H_    0.419160 0.882995 0.922861 0.161871
H25   H     H_    0.722758 0.276167 0.858344 0.244328
H26   H     H_    0.919158 0.617003 0.922858 0.161586
H27   H     H_    0.080842 0.382997 0.077132 0.161692
H28   H     H_    0.080840 0.617005 0.077139 0.161817
H29   H     H_    0.919159 0.382995 0.922871 0.161709
H30   H     H_    0.674927 0.776195 0.895365 0.159717
H31   H     H_    0.327063 0.228234 0.108612 0.159629
H32   H     H_    0.325719 0.774861 0.105907 0.158905
H33   H     H_    0.580535 0.944643 0.076849 0.136436
H34   H     H_    0.673069 0.227914 0.891671 0.158986
H35   H     H_    0.172943 0.271746 0.891404 0.159379
H36   H     H_    0.825058 0.723822 0.104603 0.159265
H37   H     H_    0.826927 0.272069 0.108318 0.159036
H38   H     H_    0.174296 0.725159 0.894126 0.158398
H39   H     H_    0.153071 0.788864 0.389260 0.141138
H40   H     H_    0.847389 0.211550 0.610738 0.137323
H41   H     H_    0.847026 0.788785 0.610683 0.137012
H42   H     H_    0.152620 0.211527 0.389313 0.139372
H43   H     H_    0.652641 0.288479 0.389261 0.137452
H44   H     H_    0.580534 0.055359 0.076837 0.136478
H45   H     H_    0.346848 0.711043 0.610751 0.142293
H46   H     H_    0.347336 0.288518 0.610690 0.140042
H47   H     H_    0.653195 0.710982 0.389294 0.137044
H48   H     H_    0.091273 0.789038 0.265958 0.173751
H49   H     H_    0.909190 0.211382 0.734035 0.162824
H50   H     H_    0.908819 0.788971 0.733990 0.162194
H51   H     H_    0.090816 0.211356 0.266010 0.166944
H52   H     H_    0.590833 0.288640 0.265964 0.162972
H53   H     H_    0.408642 0.710875 0.734053 0.173735
H54   H     H_    0.409148 0.288679 0.733993 0.167716
H55   H     H_    0.419466 0.944641 0.923154 0.136653
H56   H     H_    0.591388 0.710825 0.265986 0.162675
H57   H     H_    0.174913 0.711132 0.266067 0.162797
H58   H     H_    0.824716 0.288545 0.733927 0.161926
H59   H     H_    0.825028 0.711191 0.733977 0.161662
H60   H     H_    0.175266 0.288551 0.266031 0.162241
H61   H     H_    0.675274 0.211447 0.266073 0.161825
H62   H     H_    0.325175 0.788945 0.733921 0.162651
H63   H     H_    0.324751 0.211435 0.733968 0.162153
H64   H     H_    0.674809 0.788948 0.266039 0.161489
H65   H     H_    0.236406 0.711261 0.389379 0.138622
H66   H     H_    0.919465 0.555357 0.923151 0.136656
H67   H     H_    0.763227 0.288417 0.610614 0.136864
H68   H     H_    0.763548 0.711307 0.610669 0.136812
H69   H     H_    0.236753 0.288426 0.389340 0.138139
H70   H     H_    0.736770 0.211582 0.389387 0.136740
H71   H     H_    0.263684 0.788808 0.610610 0.138322
H72   H     H_    0.263255 0.211570 0.610658 0.137835
H73   H     H_    0.736309 0.788799 0.389346 0.136644
H74   H     H_    0.409787 0.474230 0.957982 0.062150
H75   H     H_    0.387755 0.559336 0.843018 0.094450
H76   H     H_    0.623113 0.439379 0.075409 0.059402
H77   H     H_    0.080536 0.444643 0.076839 0.136734
H78   H     H_    0.611999 0.561161 0.167833 0.061834
H79   H     H_    0.092658 0.976565 0.100559 0.078018
H80   H     H_    0.085009 0.026468 0.024050 0.066027
H81   H     H_    0.877750 0.938266 0.843516 0.054196
H82   H     H_    0.881304 0.060132 0.939854 0.057030
H83   H     H_    0.381396 0.386402 0.939142 0.093232
H84   H     H_    0.412648 0.645874 0.875606 0.044298
H85   H     H_    0.628881 0.386676 0.120169 0.070373
H86   H     H_    0.587635 0.615153 0.173884 0.048882
H87   H     H_    0.124304 0.889533 0.135932 0.093553
H88   H     H_    0.080534 0.555359 0.076846 0.136727
H89   H     H_    0.113134 0.114260 0.043866 0.094707
H90   H     H_    0.893691 0.883474 0.830484 0.056924
H91   H     H_    0.871413 0.113082 0.891418 0.070142
H92   H     H_    0.240561 0.334374 0.975636 0.244884
H93   H     H_    0.305930 0.324470 0.024573 0.246889
H94   H     H_    0.260884 0.317989 0.934451 0.247308
H95   H     H_    0.752403 0.664909 0.010249 0.244120
H96   H     H_    0.733367 0.679513 0.054015 0.246363
H97   H     H_    0.687938 0.676798 0.963123 0.250809
H98   H     H_    0.758957 0.334448 0.023251 0.242280
H99   H     H_    0.919466 0.444641 0.923163 0.136646
H100  H     H_    0.693643 0.324403 0.974428 0.252396
H101  H     H_    0.738713 0.318194 0.064634 0.247184
H102  H     H_    0.245417 0.665066 0.985554 0.245942
H103  H     H_    0.264850 0.680210 0.942539 0.242097
H104  H     H_    0.310182 0.676348 0.033269 0.247953
H105  H     H_    0.747583 0.835109 0.989715 0.243768
H106  H     H_    0.812048 0.823219 0.036844 0.250263
H107  H     H_    0.766622 0.820502 0.945952 0.247278
H108  H     H_    0.259438 0.165605 0.024378 0.244781
H109  H     H_    0.239117 0.181993 0.065563 0.248204
H110  H     H_    0.419158 0.117003 0.922868 0.161652
H111  H     H_    0.194071 0.175513 0.975441 0.246703
H112  H     H_    0.254596 0.834954 0.014482 0.245798
H113  H     H_    0.189831 0.823671 0.966765 0.247648
H114  H     H_    0.235162 0.819808 0.057494 0.243343
H115  H     H_    0.741046 0.165533 0.976741 0.242033
H116  H     H_    0.761288 0.181790 0.935357 0.246815
H117  H     H_    0.806359 0.175582 0.025562 0.252735
H118  H     H_    0.185528 0.197340 0.865907 0.245014
H119  H     H_    0.222885 0.223379 0.858688 0.245655
H120  H     H_    0.250956 0.187584 0.914960 0.246733
O1    O     O_3   0.500000 0.749970 0.000000 -0.478202
O2    O     O_R   0.101800 0.730420 0.039220 -0.636722
O3    O     O_R   0.101800 0.269580 0.039220 -0.636480
O4    O     O_R   0.898200 0.730420 0.960780 -0.638379
O5    O     O_R   0.553280 0.730340 0.149660 -0.631330
O6    O     O_R   0.446720 0.269660 0.850340 -0.639459
O7    O     O_R   0.446720 0.730340 0.850340 -0.644467
O8    O     O_R   0.553280 0.269660 0.149660 -0.647142
O9    O     O_R   0.053280 0.230340 0.149660 -0.640709
O10   O     O_R   0.946720 0.769660 0.850340 -0.638147
O11   O     O_R   0.946720 0.230340 0.850340 -0.648190
O12   O     O_3   0.500000 0.250030 0.000000 -0.483680
O13   O     O_R   0.053280 0.769660 0.149660 -0.626011
O14   O     O_R   0.498080 0.675140 0.039250 -0.626517
O15   O     O_R   0.501920 0.324860 0.960750 -0.575033
O16   O     O_R   0.501920 0.675140 0.960750 -0.629164
O17   O     O_R   0.498080 0.324860 0.039250 -0.659516
O18   O     O_R   0.998080 0.175140 0.039250 -0.573705
O19   O     O_R   0.001920 0.824860 0.960750 -0.651870
O20   O     O_R   0.001920 0.175140 0.960750 -0.658284
O21   O     O_R   0.998080 0.824860 0.039250 -0.574713
O22   O     O_R   0.458830 0.824790 0.960760 -0.645030
O23   O     O_3   1.000000 0.249970 0.000000 -0.483627
O24   O     O_R   0.541170 0.175210 0.039240 -0.647815
O25   O     O_R   0.541170 0.824790 0.039240 -0.647710
O26   O     O_R   0.458830 0.175210 0.960760 -0.648370
O27   O     O_R   0.958830 0.324790 0.960760 -0.647380
O28   O     O_R   0.041170 0.675210 0.039240 -0.647133
O29   O     O_R   0.041170 0.324790 0.039240 -0.648254
O30   O     O_R   0.958830 0.675210 0.960760 -0.648324
O31   O     O_R   0.596370 0.769570 0.149640 -0.645966
O32   O     O_R   0.403630 0.230430 0.850360 -0.646245
O33   O     O_R   0.403630 0.769570 0.850360 -0.646868
O34   O     O_3   0.000000 0.750030 0.000000 -0.483712
O35   O     O_R   0.596370 0.230430 0.149640 -0.644548
O36   O     O_R   0.096370 0.269570 0.149640 -0.645713
O37   O     O_R   0.903630 0.730430 0.850360 -0.644766
O38   O     O_R   0.903630 0.269570 0.850360 -0.644756
O39   O     O_R   0.096370 0.730430 0.149640 -0.650456
O40   O     O_R   0.437440 0.730340 0.039250 -0.643912
O41   O     O_R   0.562560 0.269660 0.960750 -0.619405
O42   O     O_R   0.562560 0.730340 0.960750 -0.626968
O43   O     O_R   0.437440 0.269660 0.039250 -0.635073
O44   O     O_R   0.937440 0.230340 0.039250 -0.616506
O45   O     O_R   0.398200 0.769580 0.960780 -0.637930
O46   O     O_R   0.062560 0.769660 0.960750 -0.642571
O47   O     O_R   0.062560 0.230340 0.960750 -0.633335
O48   O     O_R   0.937440 0.769660 0.039250 -0.631522
O49   O     O_2   0.369568 0.441542 0.882884 -0.544112
O50   O     O_2   0.433920 0.522007 0.867920 -0.550876
O51   O     O_2   0.604508 0.475317 0.106158 -0.532578
O52   O     O_2   0.563169 0.526271 0.144245 -0.535619
O53   O     O_2   0.105529 0.944005 0.166569 -0.537681
O54   O     O_2   0.129304 0.058167 0.100175 -0.549725
O55   O     O_2   0.921895 0.971767 0.850767 -0.523112
O56   O     O_R   0.601800 0.230420 0.039220 -0.643191
O57   O     O_2   0.894831 0.024316 0.902679 -0.526153
O58   O     O_2   0.397627 0.351077 0.904280 -0.585410
O59   O     O_2   0.416446 0.612379 0.824445 -0.550794
O60   O     O_2   0.597310 0.351017 0.050933 -0.563583
O61   O     O_2   0.596451 0.648490 0.127592 -0.565935
O62   O     O_2   0.086629 0.853987 0.137552 -0.562066
O63   O     O_2   0.102317 0.148459 0.086742 -0.586667
O64   O     O_2   0.898884 0.850176 0.889845 -0.575079
O65   O     O_2   0.906199 0.147812 0.962744 -0.556379
O66   O     O_R   0.601800 0.769580 0.039220 -0.637413
O67   O     O_R   0.398200 0.230420 0.960780 -0.636166
O68   O     O_R   0.898200 0.269580 0.960780 -0.644029
Zn1   Zn    Zn3+2 0.558810 0.777990 0.056050 0.984684
Zn2   Zn    Zn3+2 0.502750 0.278070 0.943930 1.052363
Zn3   Zn    Zn3+2 0.502750 0.721930 0.943930 1.008539
Zn4   Zn    Zn3+2 0.497250 0.278070 0.056070 1.003152
Zn5   Zn    Zn3+2 0.997250 0.221930 0.056070 1.049984
Zn6   Zn    Zn3+2 0.002750 0.778070 0.943930 1.002088
Zn7   Zn    Zn3+2 0.002750 0.221930 0.943930 1.001399
Zn8   Zn    Zn3+2 0.997250 0.778070 0.056070 1.048987
Zn9   Zn    Zn3+2 0.441190 0.222010 0.943950 0.980984
Zn10  Zn    Zn3+2 0.441190 0.777990 0.943950 0.963819
Zn11  Zn    Zn3+2 0.558810 0.222010 0.056050 0.974907
Zn12  Zn    Zn3+2 0.058810 0.277990 0.056050 0.981404
Zn13  Zn    Zn3+2 0.941190 0.722010 0.943950 0.981723
Zn14  Zn    Zn3+2 0.941190 0.277990 0.943950 0.972776
Zn15  Zn    Zn3+2 0.058810 0.722010 0.056050 0.971384
Zn16  Zn    Zn3+2 0.497250 0.721930 0.056070 0.998785

loop_
_geom_bond_atom_site_label_1
_geom_bond_atom_site_label_2
_ccdc_geom_bond_type
C132  C144  S    
C111  H90   S    
C62   C83   S    
C63   O29   A    
C18   C21   T    
C115  H92   S    
C74   C83   A    
C121  H113  S    
C138  C165  T    
C73   H99   S    
C96   H74   S    
C124  H35   S    
C8    C214  A    
O23   Zn12  S    
C209  O8    A    
O2    Zn15  S    
C101  C155  S    
C125  C144  S    
C130  H19   S    
O41   Zn2   S    
C3    H69   S    
C89   C94   S    
C80   C86   A    
C43   C58   S    
C2    C116  S    
C123  C145  S    
C114  O65   D    
O33   Zn10  S    
C4    C12   A    
C67   H44   S    
C79   C149  S    
O18   Zn5   S    
C112  O41   A    
C193  C208  S    
O7    Zn3   S    
O8    Zn4   S    
C100  H79   S    
C76   C83   A    
C158  C167  S    
C65   C87   A    
C134  C146  S    
C11   C20   S    
C150  C159  S    
C29   C99   S    
C36   C106  S    
C79   H30   S    
C112  C138  S    
C131  H25   S    
C133  H37   S    
C213  O39   A    
C40   C110  S    
C179  C188  A    
O21   Zn8   S    
C70   H66   S    
O16   Zn3   S    
C213  O13   A    
C177  C186  A    
C153  C161  S    
O12   Zn9   S    
O11   Zn7   S    
C212  O11   A    
C181  C190  A    
O9    Zn5   S    
C26   C48   A    
C119  H106  S    
C90   H31   S    
C205  O5    A    
C56   O14   A    
C143  C169  T    
C69   C88   A    
C99   O52   D    
O23   Zn7   S    
C1    O45   A    
C187  H56   S    
O12   Zn2   S    
C9    C171  A    
C143  C173  S    
O39   Zn15  S    
O14   Zn16  S    
C64   C85   S    
C104  O57   D    
C175  C183  A    
C24   C134  S    
C16   C25   S    
C103  O55   D    
C27   C97   S    
O23   Zn14  S    
C110  H89   S    
C13   C133  S    
C61   C84   S    
C126  C147  S    
O25   Zn1   S    
C8    C17   S    
C173  O46   A    
O42   Zn3   S    
C6    C203  A    
C65   H1    S    
C4    C201  A    
C120  H108  S    
C58   O17   A    
C49   C53   S    
C108  O61   D    
C51   C55   S    
C3    C11   A    
C142  C168  T    
C181  H50   S    
C39   C109  S    
C184  O3    A    
C104  H82   S    
C129  H17   S    
C41   C45   A    
C162  O44   A    
C172  H41   S    
C101  H32   S    
C10   C172  A    
C197  C214  A    
C134  C160  S    
C102  O54   D    
C33   C104  S    
C69   C77   A    
C99   H78   S    
C174  C182  A    
O34   Zn15  S    
C29   C49   A    
C9    C215  A    
C194  C207  S    
C118  H102  S    
C170  H39   S    
O12   Zn11  S    
C33   C42   A    
C188  C197  A    
C81   H28   S    
C115  H93   S    
C180  C189  A    
C66   C88   A    
C75   C84   A    
C60   O21   A    
C30   C100  S    
C100  O53   D    
C71   H77   S    
C56   O16   A    
C107  H85   S    
C111  O64   D    
O56   Zn11  S    
C151  O67   A    
C172  C181  A    
O23   Zn5   S    
C171  H40   S    
O12   Zn4   S    
C127  H10   S    
C32   C41   A    
C20   C23   T    
C133  C147  S    
C149  C158  S    
C128  H12   S    
C35   C144  S    
C39   C45   A    
C120  H109  S    
C123  H119  S    
C135  C161  T    
C73   C91   A    
C210  O9    A    
C207  O32   A    
O34   Zn8   S    
O30   Zn13  S    
C16   C178  A    
C26   C96   S    
C191  C200  A    
C123  H118  S    
C122  H116  S    
C205  O31   A    
O48   Zn8   S    
C126  H7    S    
O34   Zn13  S    
C102  H80   S    
C77   C84   A    
O37   Zn13  S    
C47   C59   S    
C65   C74   A    
C97   H75   S    
C98   H76   S    
C13   C156  S    
C79   C153  S    
C128  C149  S    
C182  H51   S    
O27   Zn14  S    
C48   C52   S    
C192  C201  A    
C3    C200  A    
C46   C120  S    
C122  H117  S    
C145  C154  S    
C78   C85   A    
C214  H65   S    
C119  H107  S    
C15   C177  A    
C70   C89   A    
C196  C204  A    
O24   Zn11  S    
O67   Zn9   S    
C116  H96   S    
C1    C137  S    
C52   C53   T    
C54   C55   T    
C28   C48   A    
C11   C174  A    
C151  O43   A    
O1    Zn10  S    
C113  C150  S    
C186  C194  A    
O13   Zn8   S    
C34   C43   A    
C72   C81   A    
C31   C51   A    
C189  C212  S    
C174  H42   S    
C121  H112  S    
C109  O62   D    
C125  H5    S    
C57   C101  S    
C80   H27   S    
C129  H18   S    
C14   C22   S    
C10   C216  A    
C28   C37   A    
O1    Zn1   S    
C130  H20   S    
O17   Zn4   S    
C30   C39   A    
C148  C157  S    
C91   C95   S    
C116  H95   S    
C9    C18   S    
C120  H111  S    
C41   C111  S    
C115  C206  S    
C57   C146  S    
O29   Zn12  S    
C162  O68   A    
O34   Zn6   S    
C81   C85   A    
C139  C184  S    
C27   C49   A    
C1    O40   A    
C130  H21   S    
C187  C196  A    
C64   O30   A    
C183  C192  A    
C152  C160  S    
C176  C185  A    
C195  O48   A    
C129  H16   S    
C50   C54   S    
C216  H68   S    
C13   C150  S    
C37   C107  S    
C72   H88   S    
C131  H22   S    
C63   O27   A    
O19   Zn6   S    
C140  O42   A    
C31   C40   A    
C212  O38   A    
C114  H91   S    
C141  C195  S    
C14   C176  A    
C24   C152  S    
C201  H61   S    
O43   Zn4   S    
C207  O6    A    
C146  C155  S    
C203  H63   S    
C119  H105  S    
C190  C199  A    
C2    C132  S    
C160  C169  S    
C90   C154  S    
C173  O2    A    
C148  C206  S    
C68   C113  S    
C185  H53   S    
C30   C50   A    
O44   Zn5   S    
C127  H11   S    
C211  O37   A    
C135  C140  S    
C198  C215  A    
O31   Zn1   S    
C8    C170  A    
C121  H114  S    
C208  O7    A    
C110  O63   D    
C141  C167  T    
C31   C102  S    
C68   C122  S    
O45   Zn10  S    
O1    Zn3   S    
C132  C158  S    
C193  C202  A    
C5    H71   S    
C37   C43   A    
C6    H72   S    
C177  H46   S    
C38   C44   A    
C7    C204  A    
C197  H57   S    
C116  H97   S    
C44   C56   S    
C10   C19   S    
C124  C157  S    
C32   C103  S    
C147  C156  S    
C5    C14   A    
C178  C187  A    
O46   Zn6   S    
O20   Zn7   S    
C7    C16   A    
C57   C160  S    
C128  H15   S    
C63   C86   S    
O1    Zn16  S    
C182  C191  A    
C113  C156  S    
O47   Zn7   S    
C73   C82   A    
C136  C151  S    
C61   O25   A    
C28   C98   S    
C107  O60   D    
C103  H81   S    
O38   Zn14  S    
C105  O58   D    
C34   C105  S    
C67   C87   A    
C98   O51   D    
C142  C162  S    
C13   C117  S    
C46   C90   S    
C27   C36   A    
C33   C51   A    
O26   Zn9   S    
C118  H103  S    
C170  C179  A    
C101  C152  S    
C17   C22   T    
O68   Zn14  S    
C209  O35   A    
C35   C158  S    
C82   C86   A    
C59   O20   A    
C7    H73   S    
C118  H104  S    
C156  C165  S    
C66   C75   A    
C92   C93   T    
C38   C108  S    
C94   C95   T    
C4    H70   S    
C192  C209  S    
C183  H52   S    
C127  C146  S    
C176  H45   S    
C71   C91   A    
C76   H13   S    
C127  H9    S    
O5    Zn16  S    
C131  C150  S    
C133  C159  S    
O4    Zn13  S    
C74   H110  S    
C136  C163  T    
C189  C198  A    
C40   C47   A    
C58   O15   A    
C109  H87   S    
C45   C60   S    
C70   C78   A    
C35   C119  S    
C190  C211  S    
O22   Zn10  S    
C180  H49   S    
C210  O36   A    
C208  O33   A    
C199  H59   S    
C78   H26   S    
O36   Zn12  S    
C178  H47   S    
O6    Zn2   S    
C126  H8    S    
C46   C145  S    
C204  H64   S    
C196  C205  S    
C159  C168  S    
C179  H48   S    
C35   C79   S    
C144  C153  S    
C129  C148  S    
C90   C148  S    
C6    C15   A    
C26   C34   A    
O3    Zn12  S    
C131  H23   S    
C62   O26   A    
O10   Zn6   S    
C68   C159  S    
C24   C155  S    
C61   O22   A    
C60   O19   A    
C2    C149  S    
C15   C23   S    
C66   H33   S    
C106  O59   D    
C71   C80   A    
C42   C114  S    
C157  C166  S    
C117  H98   S    
O28   Zn15  S    
O32   Zn9   S    
C199  C216  A    
C154  C163  S    
C115  H94   S    
C134  H38   S    
C184  O47   A    
C5    C202  A    
C59   O18   A    
C202  H62   S    
C75   H2    S    
C200  H60   S    
C46   C157  S    
C12   C21   S    
C113  H34   S    
O35   Zn11  S    
C96   O49   D    
C29   C38   A    
C139  C166  T    
C125  H4    S    
C69   H55   S    
O66   Zn1   S    
C186  H54   S    
C195  O4    A    
O15   Zn2   S    
C32   C50   A    
C154  C206  S    
C68   C147  S    
C12   C175  A    
C125  H3    S    
C123  H120  S    
C2    C153  S    
C215  H67   S    
C171  C180  A    
C87   C92   S    
C132  H36   S    
C88   C93   S    
C128  H14   S    
C82   H29   S    
C124  C206  S    
C185  C193  A    
C122  H115  S    
C97   O50   D    
C137  C164  T    
C188  C213  S    
C126  H6    S    
C198  H58   S    
C155  C164  S    
C124  C145  S    
C24   C118  S    
C77   H24   S    
C130  C152  S    
C72   C89   A    
C117  H101  S    
C112  O56   A    
C194  C203  A    
C64   O28   A    
C62   O24   A    
C42   C47   A    
C19   C25   T    
C36   C44   A    
O40   Zn16  S    
C191  C210  S    
C57   C121  S    
C140  O66   A    
C211  O10   A    
C67   C76   A    
C105  H83   S    
C106  H84   S    
C175  H43   S    
C117  H100  S    
C108  H86   S    
