data_mof_unit_36946.cif
_audit_creation_date              2013-03-05T16:47:26-0500
_audit_creation_method            fapswitch 2.2
_symmetry_space_group_name_H-M    P1
_symmetry_Int_Tables_number       1
_space_group_crystal_system       triclinic
_cell_length_a                    10.69213
_cell_length_b                    8.921955
_cell_length_c                    8.102823
_cell_angle_alpha                 90.032917
_cell_angle_beta                  89.606946
_cell_angle_gamma                 90.103518
_cell_volume                      772.94681942

loop_
_atom_site_label
_atom_site_type_symbol
_atom_site_description
_atom_site_fract_x
_atom_site_fract_y
_atom_site_fract_z
_atom_type_partial_charge
O1    O     O_R   0.500000 0.285340 0.636850 -0.620779
O2    O     O_R   0.500000 0.285340 0.363150 -0.622860
C1    C     C_R   0.499795 0.217982 0.499964 0.915069
O3    O     O_R   0.314790 0.499970 0.636880 -0.598800
O4    O     O_R   0.314790 0.499970 0.363120 -0.613165
O5    O     O_R   0.685210 0.499970 0.636880 -0.619209
O6    O     O_R   0.685210 0.499970 0.363120 -0.592571
N1    N     N_1   0.500000 0.500030 0.073640 0.006946
N2    N     N_1   0.500000 0.500030 0.926360 0.002551
C2    C     C_R   0.257193 0.501490 0.500701 0.917662
C3    C     C_R   0.743000 0.503523 0.499244 0.915500
Zn1   Zn    Zn3+2 0.500000 0.499990 0.682780 1.082105
Zn2   Zn    Zn3+2 0.500000 0.499990 0.317220 1.086360
O7    O     O_R   0.500000 0.714650 0.636900 -0.582083
O8    O     O_R   0.500000 0.714650 0.363100 -0.590531
C4    C     C_R   0.499249 0.781967 0.500011 1.014687
C5    C     C_1   0.499282 0.065176 0.499919 -0.106858
C6    C     C_3   0.069149 0.453864 0.670579 -0.381269
C7    C     C_3   0.072367 0.397447 0.369932 -0.397731
C8    C     C_3   0.927648 0.437968 0.660460 -0.397688
C9    C     C_3   0.930772 0.411651 0.354740 -0.381448
H1    H     H_    0.093835 0.529589 0.773852 0.278164
H2    H     H_    0.116785 0.411450 0.246671 0.241742
H3    H     H_    0.884388 0.485545 0.773857 0.253271
H4    H     H_    0.907141 0.456154 0.231332 0.261715
H5    H     H_    0.109780 0.342530 0.701663 0.208826
H6    H     H_    0.095767 0.280814 0.407967 0.223987
H7    H     H_    0.902565 0.316629 0.662154 0.217171
H8    H     H_    0.888401 0.297543 0.360944 0.211770
C10   C     C_1   0.499037 0.934750 0.499977 -0.046170
C11   C     C_3   0.076370 0.677851 0.464767 0.328116
C12   C     C_3   0.926816 0.681000 0.482407 0.322053
C13   C     C_3   0.121482 0.510494 0.502015 -0.097746
C14   C     C_3   0.879216 0.511302 0.497329 -0.097286
N3    N     N_R   0.130923 0.791099 0.578562 0.217928
O9    O     O_R   0.106027 0.932430 0.555718 -0.312529
O10   O     O_R   0.204370 0.756028 0.699770 -0.356278
N4    N     N_R   0.119015 0.719295 0.295165 0.224668
O11   O     O_R   0.069353 0.661085 0.163593 -0.336602
O12   O     O_R   0.214113 0.809061 0.274916 -0.323583
N5    N     N_R   0.884202 0.762326 0.633414 0.213583
O13   O     O_R   0.782118 0.841570 0.629546 -0.366628
O14   O     O_R   0.938613 0.745961 0.775523 -0.299828
N6    N     N_R   0.874564 0.763988 0.339359 0.228141
O15   O     O_R   0.815423 0.698959 0.219270 -0.338336
O16   O     O_R   0.895708 0.907391 0.327058 -0.292036

loop_
_geom_bond_atom_site_label_1
_geom_bond_atom_site_label_2
_geom_bond_distance
_ccdc_geom_bond_type
O1    C1    1.261212 A    
C7    H2    1.110001 S    
C12   N5    1.491232 S    
C11   C13   1.599489 S    
N1    Zn2   1.973686 S    
O3    Zn1   2.017419 S    
C7    H6    1.114799 S    
N5    O13   1.302107 A    
O4    Zn2   2.012404 S    
C11   C12   1.604745 S    
C6    H5    1.114535 S    
C11   N4    1.491506 S    
C8    C14   1.566866 S    
O2    C1    1.261287 A    
C12   N6    1.488353 S    
O4    C2    1.269960 A    
O6    C3    1.268317 A    
C5    C10   1.163657 T    
N5    O14   1.302066 A    
O1    Zn1   1.950714 S    
C11   N3    1.488451 S    
N4    O12   1.302738 A    
N6    O16   1.302613 A    
C1    C5    1.363329 S    
C2    C13   1.453372 S    
C6    C8    1.522091 S    
Zn2   O8    1.950725 S    
O5    Zn1   2.012403 S    
N4    O11   1.301682 A    
N2    Zn1   1.973685 S    
O7    C4    1.261743 A    
C6    C13   1.556663 S    
C4    C10   1.363125 S    
O8    C4    1.261191 A    
O6    Zn2   2.017418 S    
N6    O15   1.299918 A    
C7    C13   1.563029 S    
O5    C3    1.271641 A    
O2    Zn2   1.951134 S    
C9    H4    1.107103 S    
C9    C14   1.555976 S    
C8    H7    1.114901 S    
N3    O10   1.300388 A    
C6    H1    1.108195 S    
C9    H8    1.114587 S    
C3    C14   1.457952 S    
C8    H3    1.110328 S    
O3    C2    1.267425 A    
Zn1   O7    1.951144 S    
N1    N2    1.193383 T    
C7    C9    1.525300 S    
N3    O9    1.302798 A    
C12   C14   1.600789 S    
