data_mof_unit_66159.cif
_audit_creation_date              2012-12-10T20:22:29-0500
_audit_creation_method            fapswitch 2.2
_symmetry_space_group_name_H-M    P1
_symmetry_Int_Tables_number       1
_space_group_crystal_system       triclinic
_cell_length_a                    19.278826
_cell_length_b                    18.422385
_cell_length_c                    15.838446
_cell_angle_alpha                 90.005219
_cell_angle_beta                  89.980325
_cell_angle_gamma                 89.9995
_cell_volume                      5625.21308904

loop_
_atom_site_label
_atom_site_type_symbol
_atom_type_description
_atom_site_fract_x
_atom_site_fract_y
_atom_site_fract_z
_atom_type_partial_charge
C1    C     C_R   0.365503 0.499999 0.500024 0.900063
C2    C     C_R   0.928522 0.499854 0.499931 0.135424
C3    C     C_R   0.554431 0.726069 0.465575 -0.047330
C4    C     C_R   0.529622 0.273934 0.434615 -0.046266
C5    C     C_R   0.445569 0.726076 0.534424 -0.047286
C6    C     C_R   0.470378 0.273944 0.565384 -0.046228
C7    C     C_R   0.555897 0.802285 0.465076 0.084720
C8    C     C_R   0.529989 0.197723 0.432796 0.082828
C9    C     C_R   0.444103 0.802292 0.534921 0.084700
C10   C     C_R   0.470015 0.197733 0.567204 0.082859
C11   C     C_R   0.500000 0.841636 0.499998 0.134915
C12   C     C_R   0.634497 0.499999 0.499975 0.900066
C13   C     C_R   0.500003 0.158412 0.500000 0.141624
C14   C     C_R   0.456642 0.961702 0.444244 0.338174
C15   C     C_R   0.545632 0.038423 0.552996 0.337650
C16   C     C_R   0.543361 0.961709 0.555754 0.338204
C17   C     C_R   0.454373 0.038418 0.447003 0.337683
C18   C     C_R   0.500003 0.077180 0.499999 -0.174659
C19   C     C_R   0.500001 0.922906 0.499999 -0.177832
C20   C     C_R   0.499999 0.499995 0.339082 0.916738
C21   C     C_R   0.500000 0.500000 0.660918 0.916737
C22   C     C_R   0.499979 0.566066 0.956237 -0.170894
C23   C     C_R   0.709862 0.499980 0.499898 -0.118015
C24   C     C_R   0.500022 0.433899 0.043763 -0.165912
C25   C     C_R   0.499994 0.566060 0.043788 -0.170902
C26   C     C_R   0.500003 0.433905 0.956212 -0.165923
C27   C     C_R   0.499982 0.499988 0.913089 0.161771
C28   C     C_R   0.500017 0.499977 0.086911 0.161771
C29   C     C_1   0.499979 0.499994 0.824248 -0.057397
C30   C     C_1   0.500020 0.499973 0.175752 -0.057391
C31   C     C_1   0.500014 0.499980 0.250638 -0.166995
C32   C     C_1   0.499986 0.499998 0.749362 -0.167002
C33   C     C_R   0.746017 0.434017 0.501598 -0.212229
C34   C     C_R   0.290139 0.499981 0.500094 -0.117999
C35   C     C_R   0.253929 0.565897 0.502288 -0.211826
C36   C     C_R   0.253985 0.434028 0.497952 -0.212226
C37   C     C_R   0.746072 0.565905 0.498135 -0.211842
C38   C     C_R   0.817905 0.433653 0.501630 0.165246
C39   C     C_R   0.182033 0.566173 0.502318 0.165450
C40   C     C_R   0.182096 0.433664 0.497905 0.165277
C41   C     C_R   0.817967 0.566181 0.498105 0.165437
C42   C     C_R   0.853778 0.499896 0.499876 -0.036493
C43   C     C_R   0.146224 0.499898 0.500100 -0.036517
C44   C     C_3   0.445146 0.918943 0.310706 0.144457
C45   C     C_R   0.964010 0.499371 0.576851 -0.112256
C46   C     C_3   0.399422 0.874049 0.252526 -0.771027
C47   C     C_3   0.655391 0.080918 0.567925 0.140245
C48   C     C_3   0.702298 0.127746 0.622554 -0.748611
C49   C     C_3   0.554853 0.918955 0.689285 0.144461
C50   C     C_3   0.600591 0.874092 0.747471 -0.770957
C51   C     C_3   0.344603 0.080885 0.432074 0.140135
C52   C     C_3   0.297727 0.127814 0.377531 -0.748537
C53   C     C_R   0.035993 0.500346 0.423123 -0.112235
C54   C     C_R   0.035870 0.499350 0.576907 -0.110275
C55   C     C_R   0.964134 0.500322 0.423067 -0.110278
C56   C     C_R   0.071480 0.499856 0.500043 0.135428
H1    H     H_    0.499987 0.617148 0.077736 0.149086
H2    H     H_    0.063978 0.500740 0.363792 0.152024
H3    H     H_    0.063758 0.498969 0.636282 0.152631
H4    H     H_    0.936245 0.500696 0.363692 0.152639
H5    H     H_    0.596974 0.695927 0.438158 0.162591
H6    H     H_    0.553179 0.304088 0.383531 0.166889
H7    H     H_    0.403027 0.695940 0.561842 0.162530
H8    H     H_    0.446821 0.304105 0.616468 0.166904
H9    H     H_    0.496443 0.891428 0.315567 0.151652
H10   H     H_    0.452242 0.973593 0.281894 0.191545
H11   H     H_    0.347983 0.900487 0.245323 0.267518
H12   H     H_    0.500006 0.382818 0.922262 0.156875
H13   H     H_    0.424176 0.869355 0.189444 0.208483
H14   H     H_    0.392178 0.818794 0.279193 0.260329
H15   H     H_    0.651839 0.106741 0.504483 0.157245
H16   H     H_    0.679540 0.026277 0.561567 0.196823
H17   H     H_    0.707890 0.103059 0.686166 0.262636
H18   H     H_    0.754346 0.132162 0.592934 0.225911
H19   H     H_    0.679838 0.182998 0.629071 0.258348
H20   H     H_    0.503568 0.891416 0.684415 0.151637
H21   H     H_    0.547730 0.973607 0.718097 0.191534
H22   H     H_    0.652017 0.900556 0.754682 0.267524
H23   H     H_    0.499966 0.617158 0.922309 0.149088
H24   H     H_    0.575832 0.869395 0.810549 0.208472
H25   H     H_    0.607863 0.818837 0.720803 0.260334
H26   H     H_    0.348145 0.106615 0.495575 0.157253
H27   H     H_    0.320435 0.026245 0.438302 0.196879
H28   H     H_    0.245672 0.132202 0.407139 0.225960
H29   H     H_    0.292147 0.103227 0.313861 0.262650
H30   H     H_    0.320207 0.183068 0.371153 0.258349
H31   H     H_    0.500039 0.382808 0.077693 0.156878
H32   H     H_    0.718638 0.382692 0.502968 0.186616
H33   H     H_    0.281265 0.617240 0.504024 0.186389
H34   H     H_    0.281364 0.382710 0.496226 0.186599
H35   H     H_    0.718734 0.617256 0.496760 0.186441
H36   H     H_    0.936026 0.499009 0.636183 0.152026
I1    I     I_    0.869305 0.331669 0.504212 -0.311176
I2    I     I_    0.130504 0.668062 0.505570 -0.272928
I3    I     I_    0.130696 0.331699 0.494542 -0.311315
I4    I     I_    0.869492 0.668087 0.495627 -0.273010
I5    I     I_    0.642753 0.854107 0.409042 -0.330459
I6    I     I_    0.577677 0.145763 0.328253 -0.350933
I7    I     I_    0.357248 0.854127 0.590955 -0.330426
I8    I     I_    0.422328 0.145790 0.671746 -0.350978
N1    N     N_R   0.500000 0.689440 0.500000 -0.119807
N2    N     N_R   0.500000 0.310560 0.500000 -0.121541
O1    O     O_R   0.398180 0.560840 0.499980 -0.628502
O2    O     O_3   0.589570 0.075856 0.606471 -0.581513
O3    O     O_3   0.587083 0.924368 0.609546 -0.577107
O4    O     O_3   0.410430 0.075848 0.393537 -0.581526
O5    O     O_R   0.601820 0.439160 0.500020 -0.618179
O6    O     O_R   0.601820 0.560840 0.500020 -0.628520
O7    O     O_R   0.398180 0.439160 0.499980 -0.618181
O8    O     O_R   0.499980 0.560800 0.378020 -0.608152
O9    O     O_R   0.500020 0.439200 0.621980 -0.617889
O10   O     O_R   0.500020 0.560800 0.621980 -0.608178
O11   O     O_R   0.499980 0.439200 0.378020 -0.617908
O12   O     O_3   0.412921 0.924354 0.390449 -0.577152
Zn1   Zn    Zn3+2 0.500000 0.581210 0.500000 0.964744
Zn2   Zn    Zn3+2 0.500000 0.418790 0.500000 0.964624

loop_
_geom_bond_atom_site_label_1
_geom_bond_atom_site_label_2
_ccdc_geom_bond_type
C15   C18   A    
C8    C13   A    
C27   C29   S    
C41   C42   A    
C44   H10   S    
C48   H19   S    
C4    C8    A    
C25   C28   A    
C7    C11   A    
C12   C23   S    
C11   C19   S    
C26   C27   A    
C13   C18   S    
O6    Zn1   S    
C52   H29   S    
C33   H32   S    
C24   C26   A    
C22   H23   S    
C38   C42   A    
C29   C32   T    
C3    C7    A    
C2    C55   A    
C16   C19   A    
C30   C31   T    
C41   I4    S    
C15   C16   A    
C4    H6    S    
C5    H7    S    
C34   C35   A    
C6    H8    S    
C52   H28   S    
C45   H36   S    
C8    I6    S    
C46   H13   S    
O7    Zn2   S    
C1    O7    A    
C40   C43   A    
C23   C33   A    
C22   C25   A    
C4    N2    A    
O9    Zn2   S    
C15   O2    S    
C1    O1    A    
O11   Zn2   S    
C3    N1    A    
C3    H5    S    
C44   O12   S    
C9    I7    S    
C55   H4    S    
C14   C17   A    
C44   H9    S    
C25   H1    S    
C50   H22   S    
C21   O9    A    
C44   C46   S    
C1    C34   S    
C54   C56   A    
C54   H3    S    
C53   C55   A    
C2    C45   A    
O5    Zn2   S    
C21   C32   S    
C5    N1    A    
C37   H35   S    
C51   C52   S    
C48   H18   S    
C36   C40   A    
C12   O6    A    
C14   C19   A    
C39   C43   A    
C14   O12   S    
O1    Zn1   S    
C39   I2    S    
C5    C9    A    
C47   C48   S    
C17   C18   A    
C49   H20   S    
C10   I8    S    
C9    C11   A    
C51   H26   S    
C47   H15   S    
C16   O3    S    
C20   O8    A    
C35   H33   S    
C45   C54   A    
C22   C27   A    
N1    Zn1   S    
C40   I3    S    
C51   H27   S    
C21   O10   A    
C53   C56   A    
C36   H34   S    
C47   O2    S    
C7    I5    S    
C48   H17   S    
C24   C28   A    
C10   C13   A    
C50   H24   S    
C6    C10   A    
C12   O5    A    
C49   O3    S    
C53   H2    S    
C33   C38   A    
C26   H12   S    
C52   H30   S    
C46   H11   S    
C23   C37   A    
C17   O4    S    
C20   O11   A    
C2    C42   S    
C51   O4    S    
C35   C39   A    
C38   I1    S    
C28   C30   S    
C49   H21   S    
C34   C36   A    
C6    N2    A    
C37   C41   A    
C24   H31   S    
C47   H16   S    
C46   H14   S    
N2    Zn2   S    
C43   C56   S    
C49   C50   S    
O8    Zn1   S    
O10   Zn1   S    
C50   H25   S    
C20   C31   S    
