data_mof_unit_58080.cif
_audit_creation_date              2012-12-10T16:44:13-0500
_audit_creation_method            fapswitch 2.2
_symmetry_space_group_name_H-M    P1
_symmetry_Int_Tables_number       1
_space_group_crystal_system       triclinic
_cell_length_a                    7.452605
_cell_length_b                    8.692125
_cell_length_c                    13.425639
_cell_angle_alpha                 94.141805
_cell_angle_beta                  78.606286
_cell_angle_gamma                 103.012172
_cell_volume                      830.317470185

loop_
_atom_site_label
_atom_site_type_symbol
_atom_type_description
_atom_site_fract_x
_atom_site_fract_y
_atom_site_fract_z
_atom_type_partial_charge
C1    C     C_R   0.545129 0.800145 0.503255 0.891319
C2    C     C_R   0.424374 0.415004 0.967141 0.036564
C3    C     C_R   0.484524 0.419612 0.860238 -0.026473
C4    C     C_R   0.560980 0.468522 0.030272 0.061674
C5    C     C_R   0.750374 0.530649 0.984990 0.073823
C6    C     C_R   0.806565 0.517615 0.880470 -0.261198
C7    C     C_R   0.679903 0.438162 0.821729 0.400421
C8    C     C_R   0.516650 0.463759 0.136473 -0.226705
C9    C     C_R   0.838572 0.583461 0.150147 -0.205270
C10   C     C_R   0.348378 0.407713 0.796712 -0.132534
C11   C     C_2   0.570538 0.968005 0.504987 -0.377293
C12   C     C_R   0.400581 0.466067 0.691209 0.786624
C13   C     C_2   0.429161 0.032029 0.495664 -0.369569
C14   C     C_R   0.454780 0.199845 0.496933 0.862137
C15   C     C_R   0.599314 0.510654 0.306399 0.789098
C16   C     C_R   0.885906 0.591151 0.045012 -0.167567
C17   C     C_R   0.654352 0.518459 0.196034 -0.046283
C18   C     C_R   0.161273 0.341415 0.836254 -0.207988
C19   C     C_R   0.104501 0.311407 0.939398 -0.136887
C20   C     C_R   0.231567 0.355652 0.005287 -0.164669
Cu1   Cu    Cu3+1 0.321300 0.483160 0.488710 0.958339
Cu2   Cu    Cu3+1 0.678700 0.516840 0.511290 0.969891
H1    H     H_    0.945565 0.628030 0.195402 0.154970
H2    H     H_    0.292813 0.960791 0.486913 0.180253
H3    H     H_    0.011633 0.618455 0.579309 0.235471
H4    H     H_    0.988246 0.381357 0.420820 0.220002
H5    H     H_    0.953023 0.553024 0.845951 0.168940
H6    H     H_    0.030257 0.638921 0.010341 0.149188
H7    H     H_    0.376290 0.415051 0.174767 0.145826
H8    H     H_    0.058332 0.314902 0.787425 0.203509
H9    H     H_    0.174412 0.340151 0.084987 0.126542
H10   H     H_    0.958600 0.261604 0.969425 0.157046
H11   H     H_    0.706843 0.039262 0.513821 0.183083
N1    N     N_2   0.947230 0.542220 0.528320 -0.184879
N2    N     N_2   0.052770 0.457780 0.471680 -0.211997
O1    O     O_R   0.383920 0.714220 0.492660 -0.584084
O2    O     O_R   0.685730 0.742660 0.511730 -0.586122
O3    O     O_R   0.275440 0.478800 0.636790 -0.574887
O4    O     O_R   0.577250 0.507240 0.655860 -0.545976
O5    O     O_R   0.314270 0.257340 0.488270 -0.586472
O6    O     O_R   0.616080 0.285780 0.507340 -0.581783
O7    O     O_R   0.422750 0.492760 0.344140 -0.589899
O8    O     O_R   0.724560 0.521200 0.363210 -0.595584
O9    O     O_3   0.751437 0.359210 0.735332 -0.715137
H12   H     H_    0.649760 0.271847 0.718569 0.324533

loop_
_geom_bond_atom_site_label_1
_geom_bond_atom_site_label_2
_ccdc_geom_bond_type
C16   H6    S    
C2    C4    A    
C6    C7    A    
C18   H8    S    
C19   C20   A    
C15   O7    A    
C8    C17   A    
C1    C11   S    
C6    H5    S    
C1    O2    A    
H3    N1    S    
C4    C8    A    
C12   O4    A    
C2    C3    A    
C15   O8    A    
Cu1   O1    S    
C13   C14   S    
C11   C13   D    
Cu1   O5    S    
C10   C12   S    
C10   C18   A    
C14   O6    A    
Cu1   N2    S    
C19   H10   S    
C9    C17   A    
C9    C16   A    
C18   C19   A    
C3    C7    A    
C12   O3    A    
C5    C6    A    
Cu2   N1    S    
Cu2   O6    S    
C8    H7    S    
C14   O5    A    
Cu1   O7    S    
H4    N2    S    
C11   H11   S    
O9    H12   S    
C13   H2    S    
C15   C17   S    
N1    N2    D    
C3    C10   A    
C2    C20   A    
C9    H1    S    
C5    C16   A    
C7    O9    S    
Cu1   Cu2   S    
Cu2   O2    S    
Cu2   O4    S    
Cu1   O3    S    
Cu2   O8    S    
C1    O1    A    
C4    C5    A    
C20   H9    S    
