data_mof_unit_59526.cif
_audit_creation_date              2012-10-26T19:57:53-0400
_audit_creation_method            fapswitch 2.2
_symmetry_space_group_name_H-M    P1
_symmetry_Int_Tables_number       1
_space_group_crystal_system       triclinic
_cell_length_a                    7.447319
_cell_length_b                    8.717533
_cell_length_c                    12.969803
_cell_angle_alpha                 87.966506
_cell_angle_beta                  79.126083
_cell_angle_gamma                 101.888317
_cell_volume                      806.748298529

loop_
_atom_site_label
_atom_site_type_symbol
_atom_type_description
_atom_site_fract_x
_atom_site_fract_y
_atom_site_fract_z
_atom_type_partial_charge
Br1   Br    Br    0.264358 0.956054 0.396371 -0.472631
Br2   Br    Br    0.735623 0.043940 0.603647 -0.472630
C1    C     C_R   0.455286 0.200747 0.501012 0.596365
C2    C     C_R   0.731940 0.542991 0.119470 -0.122449
C3    C     C_R   0.607275 0.521787 0.858662 -0.107833
C4    C     C_R   0.392725 0.478213 0.141338 -0.107835
C5    C     C_R   0.590070 0.517567 0.967146 0.051029
C6    C     C_R   0.409930 0.482433 0.032854 0.051028
C7    C     C_2   0.439726 0.038678 0.484105 0.120607
C8    C     C_2   0.560271 0.961321 0.515897 0.120609
C9    C     C_R   0.544713 0.799253 0.498989 0.596364
C10   C     C_R   0.466368 0.495767 0.701412 0.553057
C11   C     C_R   0.533632 0.504233 0.298588 0.553053
C12   C     C_R   0.553180 0.508300 0.184919 0.017311
C13   C     C_R   0.446820 0.491700 0.815081 0.017313
C14   C     C_R   0.249781 0.452075 0.989103 -0.129139
C15   C     C_R   0.750219 0.547925 0.010897 -0.129138
C16   C     C_R   0.268060 0.457008 0.880529 -0.122447
Cu1   Cu    Cu3+1 0.686350 0.517570 0.488220 1.049900
Cu2   Cu    Cu3+1 0.313650 0.482430 0.511780 1.049901
H1    H     H_    0.254423 0.451154 0.191571 0.135402
H2    H     H_    0.745577 0.548846 0.808429 0.135403
H3    H     H_    0.857658 0.567202 0.152013 0.137765
H4    H     H_    0.142342 0.432798 0.847987 0.137766
H5    H     H_    0.111112 0.424305 0.038696 0.111702
H6    H     H_    0.888888 0.575695 0.961304 0.111703
H7    H     H_    0.934903 0.383279 0.586490 0.268270
H8    H     H_    0.065097 0.616720 0.413510 0.268270
N1    N     N_2   0.033570 0.455950 0.529530 -0.240958
N2    N     N_2   0.966430 0.544050 0.470470 -0.240957
O1    O     O_R   0.621060 0.286250 0.492350 -0.489115
O2    O     O_R   0.378940 0.713750 0.507650 -0.489112
O3    O     O_R   0.306310 0.256580 0.512240 -0.453597
O4    O     O_R   0.693690 0.743420 0.487760 -0.453597
O5    O     O_R   0.631800 0.512400 0.642670 -0.510232
O6    O     O_R   0.368200 0.487600 0.357330 -0.510234
O7    O     O_R   0.317060 0.482730 0.662570 -0.515456
O8    O     O_R   0.682940 0.517270 0.337430 -0.515457

loop_
_geom_bond_atom_site_label_1
_geom_bond_atom_site_label_2
_ccdc_geom_bond_type
C13   C16   A    
N1    N2    D    
C1    C7    S    
Cu1   O8    S    
C4    C12   A    
C7    C8    D    
Cu1   Cu2   S    
C10   C13   S    
Cu1   O1    S    
H8    N2    S    
C5    C6    A    
C6    C14   A    
Cu1   O5    S    
C11   C12   S    
C10   O5    A    
C1    O1    A    
Cu2   O7    S    
Cu1   N2    S    
C11   O8    A    
C16   H4    S    
C15   H6    S    
Cu2   O3    S    
C9    O2    A    
Cu2   N1    S    
C2    C12   A    
C3    C13   A    
H7    N1    S    
C8    C9    S    
C2    C15   A    
Br2   C8    S    
C10   O7    A    
Br1   C7    S    
C11   O6    A    
C14   C16   A    
Cu2   O2    S    
C14   H5    S    
C3    C5    A    
C2    H3    S    
C1    O3    A    
C4    C6    A    
C4    H1    S    
C9    O4    A    
C3    H2    S    
C5    C15   A    
Cu1   O4    S    
Cu2   O6    S    
