data_mof_unit_50101.cif
_audit_creation_date              2012-12-10T18:11:46-0500
_audit_creation_method            fapswitch 2.2
_symmetry_space_group_name_H-M    P1
_symmetry_Int_Tables_number       1
_space_group_crystal_system       triclinic
_cell_length_a                    10.491274
_cell_length_b                    12.848087
_cell_length_c                    13.044282
_cell_angle_alpha                 81.589728
_cell_angle_beta                  93.142655
_cell_angle_gamma                 102.114625
_cell_volume                      1700.10163628

loop_
_atom_site_label
_atom_site_type_symbol
_atom_type_description
_atom_site_fract_x
_atom_site_fract_y
_atom_site_fract_z
_atom_type_partial_charge
C1    C     C_R   0.486425 0.439088 0.691187 0.870538
C2    C     C_R   0.495723 0.447633 0.975523 0.093211
C3    C     C_R   0.542522 0.462153 0.874438 0.002295
C4    C     C_R   0.741649 0.500592 0.500202 0.835062
C5    C     C_R   0.543762 0.527750 0.039398 0.053746
C6    C     C_R   0.659114 0.605135 0.011777 0.106937
C7    C     C_R   0.717021 0.607670 0.917543 -0.217653
C8    C     C_R   0.657689 0.538774 0.848383 -0.175903
C9    C     C_R   0.478660 0.535439 0.128241 0.385275
C10   C     C_R   0.662180 0.671018 0.176075 -0.240301
C11   C     C_R   0.472692 0.399558 0.801813 -0.153497
C12   C     C_3   0.068258 0.596271 0.519603 -0.098884
C13   C     C_R   0.343183 0.100397 0.327365 -0.169252
C14   C     C_R   0.640956 0.791794 0.641579 -0.113410
C15   C     C_R   0.658651 0.888513 0.681962 0.373100
C16   C     C_R   0.516561 0.560566 0.309436 0.856177
C17   C     C_R   0.602844 0.970639 0.629105 -0.069113
C18   C     C_R   0.536477 0.960766 0.532202 -0.114045
C19   C     C_R   0.513388 0.858018 0.498300 0.099963
C20   C     C_R   0.482748 0.045199 0.472539 -0.083515
C21   C     C_R   0.406694 0.023979 0.381873 -0.099196
C22   C     C_R   0.392045 0.926265 0.345815 0.322646
C23   C     C_3   0.969718 0.518459 0.593465 -0.241294
C24   C     C_R   0.431578 0.840972 0.409103 0.336404
C25   C     C_R   0.503288 0.151355 0.496529 0.517602
C26   C     C_R   0.352748 0.197484 0.361537 0.462744
C27   C     C_R   0.258464 0.499414 0.499615 0.895933
C28   C     C_3   0.934865 0.406351 0.480044 0.529921
C29   C     C_3   0.027522 0.421758 0.573765 -0.233240
C30   C     C_3   0.123013 0.499355 0.499434 -0.053924
C31   C     C_3   0.031485 0.481849 0.405276 -0.265274
C32   C     C_3   0.973574 0.578218 0.425819 -0.231717
C33   C     C_3   0.877380 0.500820 0.499787 0.003387
C34   C     C_R   0.715596 0.678132 0.079447 -0.184626
C35   C     C_R   0.546391 0.596886 0.201558 -0.160179
C36   C     C_R   0.377242 0.307184 0.835388 0.455265
C37   C     C_R   0.350156 0.281480 0.941110 -0.276679
C38   C     C_R   0.406805 0.351646 0.010075 -0.129084
H1    H     H_    0.052995 0.357167 0.632573 0.175389
H2    H     H_    0.290454 0.329794 0.341278 0.389134
H3    H     H_    0.362039 0.854972 0.222070 0.353451
H4    H     H_    0.282515 0.084686 0.259073 0.230696
H5    H     H_    0.586865 0.248329 0.590097 0.382027
H6    H     H_    0.926581 0.263051 0.450976 0.337580
H7    H     H_    0.608664 0.038515 0.669600 0.227136
H8    H     H_    0.759027 0.838496 0.801658 0.325919
H9    H     H_    0.288911 0.737602 0.357836 0.324552
H10   H     H_    0.947550 0.642043 0.366380 0.157489
H11   H     H_    0.940513 0.534081 0.669417 0.150844
H12   H     H_    0.383528 0.327592 0.090861 0.239932
H13   H     H_    0.714781 0.718847 0.232725 0.175158
H14   H     H_    0.806385 0.664702 0.896159 0.137705
H15   H     H_    0.804979 0.736057 0.060181 0.161939
H16   H     H_    0.681315 0.725938 0.681870 0.137818
H17   H     H_    0.060214 0.465226 0.329574 0.162547
H18   H     H_    0.127087 0.674900 0.535881 0.164022
H19   H     H_    0.312052 0.514172 0.196634 0.327800
H20   H     H_    0.246649 0.184496 0.800817 0.334573
H21   H     H_    0.281098 0.209154 0.969684 0.164717
H22   H     H_    0.704611 0.543903 0.775422 0.141081
N1    N     N_R   0.432930 0.222190 0.444670 -0.209782
N2    N     N_R   0.566370 0.776980 0.554790 -0.108999
O1    O     O_R   0.467970 0.366730 0.627150 -0.588245
O2    O     O_3   0.310148 0.244843 0.764120 -0.752241
O3    O     O_3   0.285494 0.268121 0.304550 -0.761164
O4    O     O_3   0.332068 0.913346 0.249851 -0.781387
O5    O     O_3   0.605451 0.187084 0.561251 -0.744664
O6    O     O_3   0.861747 0.307152 0.459148 -0.697415
O7    O     O_3   0.725934 0.904210 0.774162 -0.750825
O8    O     O_3   0.378406 0.740260 0.387908 -0.723412
O9    O     O_R   0.510820 0.544830 0.662520 -0.623637
O10   O     O_R   0.664630 0.410960 0.482340 -0.565847
O11   O     O_R   0.707470 0.589060 0.517710 -0.636342
O12   O     O_R   0.489180 0.455170 0.337480 -0.607572
O13   O     O_R   0.532030 0.633270 0.372850 -0.539328
O14   O     O_R   0.292530 0.410940 0.482290 -0.650179
O15   O     O_R   0.335370 0.589040 0.517660 -0.554482
O16   O     O_3   0.349193 0.484998 0.141357 -0.763421
Zn1   Zn    Zn3+2 0.471390 0.381080 0.476380 0.992499
Zn2   Zn    Zn3+2 0.528610 0.618920 0.523620 0.975519

loop_
_geom_bond_atom_site_label_1
_geom_bond_atom_site_label_2
_ccdc_geom_bond_type
C16   O13   A    
C25   O5    S    
O14   Zn1   S    
C24   O8    S    
C7    C8    A    
O1    Zn1   S    
C12   C23   S    
C1    O9    A    
C16   O12   A    
C23   C29   S    
N2    Zn2   S    
C11   C36   A    
C28   O6    S    
C26   N1    A    
C17   H7    S    
C7    H14   S    
O10   Zn1   S    
C16   C35   S    
C30   C31   S    
C23   H11   S    
C20   C25   A    
C19   N2    A    
C14   N2    A    
C18   C19   A    
C13   H4    S    
H8    O7    S    
C22   O4    S    
C23   C33   S    
C1    C11   S    
C10   C35   A    
C29   C30   S    
O13   Zn2   S    
C37   H21   S    
C21   C22   A    
C12   C32   S    
C27   C30   S    
C32   H10   S    
C10   H13   S    
C1    O1    A    
O9    Zn2   S    
H20   O2    S    
C15   O7    S    
C3    C8    A    
H3    O4    S    
C6    C34   A    
H9    O8    S    
C5    C9    A    
C37   C38   A    
C2    C38   A    
C31   C32   S    
C29   H1    S    
C17   C18   A    
C13   C21   A    
C10   C34   A    
C25   N1    A    
C4    O11   A    
C12   H18   S    
H5    O5    S    
C14   H16   S    
C28   C33   S    
O12   Zn1   S    
C22   C24   A    
C13   C26   A    
H6    O6    S    
C2    C5    A    
C27   O14   A    
C4    O10   A    
O15   Zn2   S    
C15   C17   A    
C4    C33   S    
C28   C29   S    
C12   C30   S    
C26   O3    S    
H19   O16   S    
C28   C31   S    
C27   O15   A    
C6    C7    A    
C38   H12   S    
H2    O3    S    
C32   C33   S    
C2    C3    A    
C8    H22   S    
C5    C6    A    
N1    Zn1   S    
O11   Zn2   S    
C19   C24   A    
C18   C20   A    
C9    O16   S    
C3    C11   A    
C20   C21   A    
C34   H15   S    
C36   C37   A    
C9    C35   A    
C14   C15   A    
C31   H17   S    
C36   O2    S    
