data_mof_unit_62309.cif
_audit_creation_date              2012-12-10T17:35:44-0500
_audit_creation_method            fapswitch 2.2
_symmetry_space_group_name_H-M    P1
_symmetry_Int_Tables_number       1
_space_group_crystal_system       triclinic
_cell_length_a                    30.332049
_cell_length_b                    31.990508
_cell_length_c                    21.403127
_cell_angle_alpha                 90.195019
_cell_angle_beta                  135.079981
_cell_angle_gamma                 89.769063
_cell_volume                      14664.7398905

loop_
_atom_site_label
_atom_site_type_symbol
_atom_type_description
_atom_site_fract_x
_atom_site_fract_y
_atom_site_fract_z
_atom_type_partial_charge
C1    C     C_R   0.379621 0.499989 0.379518 0.787412
C2    C     C_R   0.879621 0.999990 0.379518 0.787232
C3    C     C_3   0.556951 0.763759 0.572093 0.368180
C4    C     C_3   0.549143 0.236081 0.519469 0.366545
C5    C     C_3   0.056930 0.263760 0.572173 0.368101
C6    C     C_3   0.051961 0.736095 0.527588 0.366397
C7    C     C_3   0.500527 0.791386 0.500164 0.105339
C8    C     C_3   0.499125 0.208588 0.499417 0.104634
C9    C     C_3   0.000532 0.291386 0.500173 0.105313
C10   C     C_3   0.999079 0.708588 0.499269 0.104644
C11   C     C_3   0.516779 0.736244 0.574737 -0.273459
C12   C     C_3   0.552167 0.263901 0.581231 -0.266583
C13   C     C_3   0.016684 0.236243 0.574672 -0.273454
C14   C     C_3   0.048830 0.763925 0.583168 -0.267320
C15   C     C_3   0.459199 0.764146 0.501344 -0.177330
C16   C     C_3   0.501135 0.236132 0.560797 -0.179248
C17   C     C_3   0.959131 0.264145 0.501207 -0.177185
C18   C     C_3   0.994873 0.736141 0.554296 -0.179235
C19   C     C_1   0.501303 0.662714 0.501741 0.001850
C20   C     C_1   0.500106 0.337259 0.500014 0.009468
C21   C     C_1   0.001307 0.162714 0.501746 0.001857
C22   C     C_1   0.000065 0.837260 0.499975 0.009355
C23   C     C_1   0.500490 0.837261 0.500227 0.002910
C24   C     C_1   0.499509 0.162721 0.499652 0.003780
C25   C     C_1   0.000492 0.337261 0.500235 0.002952
C26   C     C_1   0.999489 0.662721 0.499573 0.003736
C27   C     C_3   0.271121 0.464332 0.297236 -0.212040
C28   C     C_3   0.270839 0.533450 0.302760 -0.212694
C29   C     C_3   0.771122 0.964290 0.297109 -0.212430
C30   C     C_3   0.770839 0.033399 0.302885 -0.212447
C31   C     C_3   0.230031 0.497885 0.286859 0.457122
C32   C     C_3   0.730032 0.997792 0.286855 0.457305
C33   C     C_3   0.188946 0.499921 0.187796 -0.002606
C34   C     C_3   0.688947 0.999923 0.187799 -0.002315
C35   C     C_3   0.229595 0.466589 0.196233 -0.217981
C36   C     C_3   0.229345 0.535369 0.201787 -0.221736
C37   C     C_3   0.729596 0.966645 0.196114 -0.217912
C38   C     C_3   0.729346 0.035415 0.201921 -0.221796
C39   C     C_R   0.500293 0.580132 0.500381 0.826997
C40   C     C_R   0.500033 0.419862 0.499942 0.816884
C41   C     C_R   0.000294 0.080132 0.500382 0.827057
C42   C     C_R   0.000033 0.919862 0.499943 0.816878
C43   C     C_3   0.270851 0.502032 0.210953 -0.143558
C44   C     C_3   0.770851 0.002131 0.210964 -0.143477
C45   C     C_3   0.311217 0.499949 0.310837 -0.029960
C46   C     C_3   0.811217 0.999951 0.310840 -0.030062
C47   C     C_3   0.729246 0.537894 0.718616 0.419248
C48   C     C_3   0.730999 0.486755 0.786309 0.414322
C49   C     C_3   0.229245 0.037909 0.718765 0.419269
C50   C     C_3   0.231003 0.986651 0.786254 0.414255
C51   C     C_3   0.771089 0.526187 0.816712 -0.328742
C52   C     C_3   0.271090 0.026102 0.816813 -0.328666
C53   C     C_3   0.811276 0.500067 0.810858 -0.160957
C54   C     C_3   0.311276 0.000066 0.810851 -0.161075
C55   C     C_3   0.770268 0.513006 0.713316 -0.279815
C56   C     C_3   0.771788 0.460301 0.782615 -0.292686
C57   C     C_3   0.270266 0.013107 0.713361 -0.279780
C58   C     C_3   0.271790 0.960279 0.782450 -0.292543
C59   C     C_3   0.729956 0.474198 0.686049 0.364313
C60   C     C_3   0.229956 0.974275 0.685940 0.364508
C61   C     C_3   0.688631 0.499310 0.689193 -0.104070
C62   C     C_3   0.188632 0.999305 0.689189 -0.104196
C63   C     C_R   0.499970 0.000140 0.379476 0.777906
C64   C     C_R   0.999973 0.500141 0.379479 0.777525
C65   C     C_R   0.500084 0.919876 0.499972 0.815282
C66   C     C_R   0.499940 0.080119 0.499884 0.815159
C67   C     C_R   0.000084 0.419876 0.499974 0.815249
C68   C     C_R   0.999940 0.580119 0.499880 0.814855
C69   C     C_R   0.620311 0.499502 0.620443 0.882341
C70   C     C_R   0.120311 0.999498 0.620442 0.882570
C71   C     C_R   0.500006 0.999854 0.620340 0.778084
C72   C     C_R   0.999990 0.499894 0.620327 0.778150
C73   C     C_R   0.999907 0.500082 0.120486 0.807689
C74   C     C_R   0.499892 0.000082 0.120470 0.807597
C75   C     C_R   0.120591 0.499965 0.120191 0.840553
C76   C     C_R   0.620591 0.999965 0.120193 0.840463
C77   C     C_R   0.999821 0.499926 0.879107 0.779000
C78   C     C_R   0.499900 0.999918 0.879183 0.779040
C79   C     C_R   0.879474 0.500042 0.879090 0.845658
C80   C     C_R   0.379474 0.000042 0.879086 0.845681
C81   C     C_3   0.550262 0.020900 0.321202 -0.145236
C82   C     C_3   0.501191 0.960671 0.271712 -0.156480
C83   C     C_3   0.051086 0.519997 0.322024 -0.145407
C84   C     C_3   0.999651 0.460662 0.270168 -0.156718
C85   C     C_3   0.050975 0.480352 0.280350 -0.129037
C86   C     C_3   0.551712 0.981261 0.281090 -0.129138
C87   C     C_3   0.999742 0.500300 0.188781 0.019189
C88   C     C_3   0.499713 0.000300 0.188752 0.018876
C89   C     C_3   0.999836 0.539957 0.229418 -0.165459
C90   C     C_3   0.948400 0.480621 0.177430 -0.163839
C91   C     C_3   0.498249 0.039947 0.227826 -0.165460
C92   C     C_3   0.449168 0.979722 0.178198 -0.164408
C93   C     C_3   0.447722 0.019352 0.218341 -0.165644
C94   C     C_3   0.948515 0.520265 0.219141 -0.165266
C95   C     C_3   0.484784 0.763629 0.427071 -0.322457
C96   C     C_3   0.446811 0.236163 0.418595 -0.322164
C97   C     C_3   0.984888 0.263630 0.427152 -0.322475
C98   C     C_3   0.949999 0.736139 0.416379 -0.322015
C99   C     C_3   0.499758 0.000298 0.310761 0.020363
C100  C     C_3   0.999780 0.500299 0.310783 0.020179
C101  C     C_3   0.547699 0.976127 0.776928 -0.156514
C102  C     C_3   0.506498 0.039079 0.735844 -0.145217
C103  C     C_3   0.040911 0.471101 0.770078 -0.153308
C104  C     C_3   0.016319 0.537808 0.745727 -0.146494
C105  C     C_3   0.057298 0.509184 0.828164 -0.149244
C106  C     C_3   0.554165 0.015541 0.825018 -0.152036
C107  C     C_3   0.999777 0.499741 0.810592 0.022614
C108  C     C_3   0.499911 0.999698 0.810720 0.022325
C109  C     C_3   0.983413 0.461670 0.753620 -0.164282
C110  C     C_3   0.958755 0.528364 0.729251 -0.159660
C111  C     C_3   0.493458 0.960286 0.763700 -0.165149
C112  C     C_3   0.452221 0.023226 0.722666 -0.155389
C113  C     C_3   0.445758 0.983843 0.674623 -0.159732
C114  C     C_3   0.942384 0.490328 0.671278 -0.162093
C115  C     C_3   0.500032 0.999691 0.688870 0.023791
C116  C     C_3   0.999937 0.499760 0.688782 0.023704
C117  C     C_3   0.443679 0.735740 0.428728 -0.182645
C118  C     C_3   0.449167 0.264375 0.480324 -0.185878
C119  C     C_3   0.943710 0.235740 0.428663 -0.182648
C120  C     C_3   0.946137 0.764360 0.471790 -0.185674
C121  C     C_1   0.500906 0.625016 0.501189 -0.146453
C122  C     C_1   0.500078 0.374965 0.499847 -0.147696
C123  C     C_1   0.000909 0.125016 0.501192 -0.146450
C124  C     C_1   0.000061 0.874965 0.499831 -0.147785
C125  C     C_1   0.500301 0.874971 0.500112 -0.171241
C126  C     C_1   0.499751 0.125016 0.499781 -0.171118
C127  C     C_1   0.000302 0.374971 0.500117 -0.171330
C128  C     C_1   0.999746 0.625016 0.499748 -0.171001
C129  C     C_3   0.541920 0.736137 0.500684 0.435792
C130  C     C_3   0.498014 0.263500 0.439973 0.437045
C131  C     C_3   0.041996 0.236139 0.500834 0.435836
C132  C     C_3   0.004046 0.763492 0.446127 0.437329
C133  C     C_3   0.501354 0.708578 0.501991 0.075203
C134  C     C_3   0.500107 0.291385 0.500427 0.075092
C135  C     C_3   0.001358 0.208578 0.501998 0.075190
C136  C     C_3   0.000027 0.791386 0.500348 0.075157
Cu1   Cu    Cu3+1 0.499970 0.500000 0.437200 1.004937
Cu2   Cu    Cu3+1 0.999970 1.000000 0.437200 1.004689
Cu3   Cu    Cu3+1 0.500040 0.500000 0.562800 0.985499
Cu4   Cu    Cu3+1 0.000040 1.000000 0.562800 0.985542
Cu5   Cu    Cu3+1 0.437240 1.000000 0.437100 0.947918
Cu6   Cu    Cu3+1 0.937240 0.500000 0.437100 0.947731
Cu7   Cu    Cu3+1 0.562770 1.000000 0.562750 0.967012
Cu8   Cu    Cu3+1 0.062770 0.500000 0.562750 0.967607
Cu9   Cu    Cu3+1 1.000000 0.541440 0.999930 0.935134
Cu10  Cu    Cu3+1 1.000000 0.458560 0.999930 0.944893
Cu11  Cu    Cu3+1 0.500000 0.041440 0.999930 0.935605
Cu12  Cu    Cu3+1 0.500000 0.958560 0.999930 0.944711
H1    H     H_    0.396630 0.723560 0.369714 0.152551
H2    H     H_    0.408034 0.276678 0.464817 0.153047
H3    H     H_    0.896682 0.223559 0.369588 0.152569
H4    H     H_    0.902535 0.776652 0.449365 0.152882
H5    H     H_    0.288832 0.503769 0.180431 0.153149
H6    H     H_    0.788835 0.003949 0.180452 0.153017
H7    H     H_    0.789322 0.547646 0.871523 0.140039
H8    H     H_    0.289323 0.047494 0.871712 0.139969
H9    H     H_    0.787561 0.523450 0.684401 0.138362
H10   H     H_    0.789931 0.428243 0.808938 0.159339
H11   H     H_    0.287561 0.023634 0.684492 0.137790
H12   H     H_    0.289934 0.928205 0.808638 0.159494
H13   H     H_    0.092962 0.464042 0.304073 0.158791
H14   H     H_    0.594323 0.965697 0.305441 0.159884
H15   H     H_    0.591698 0.037806 0.380969 0.148760
H16   H     H_    0.502398 0.928208 0.291058 0.124095
H17   H     H_    0.093180 0.536169 0.382432 0.148781
H18   H     H_    0.999576 0.428192 0.288230 0.123997
H19   H     H_    0.999906 0.572512 0.211691 0.145445
H20   H     H_    0.906297 0.464548 0.116803 0.118343
H21   H     H_    0.497023 0.072494 0.208799 0.145697
H22   H     H_    0.407707 0.962916 0.118214 0.119233
H23   H     H_    0.405071 0.034982 0.193721 0.139923
H24   H     H_    0.906498 0.536640 0.195177 0.139447
H25   H     H_    0.104354 0.516879 0.893826 0.123473
H26   H     H_    0.598565 0.028499 0.888008 0.125621
H27   H     H_    0.471324 0.775166 0.366597 0.143386
H28   H     H_    0.403676 0.224482 0.352498 0.146048
H29   H     H_    0.971509 0.275168 0.366736 0.143342
H30   H     H_    0.909485 0.724438 0.348528 0.145862
H31   H     H_    0.586821 0.956810 0.797943 0.142320
H32   H     H_    0.511837 0.071344 0.723065 0.123864
H33   H     H_    0.074568 0.447640 0.785525 0.139451
H34   H     H_    0.029784 0.568989 0.741128 0.126054
H35   H     H_    0.969842 0.430441 0.757851 0.145131
H36   H     H_    0.925059 0.551798 0.713779 0.131684
H37   H     H_    0.488063 0.927943 0.776095 0.146677
H38   H     H_    0.413093 0.042488 0.701770 0.127829
H39   H     H_    0.401296 0.970803 0.611859 0.144763
H40   H     H_    0.895206 0.482557 0.605892 0.147112
H41   H     H_    0.424668 0.776213 0.501007 0.151322
H42   H     H_    0.502005 0.224313 0.610364 0.149103
H43   H     H_    0.924541 0.276211 0.500753 0.151482
H44   H     H_    0.990659 0.724330 0.598587 0.149099
H45   H     H_    0.530395 0.724900 0.635435 0.157743
H46   H     H_    0.595446 0.275400 0.647419 0.158730
H47   H     H_    0.030219 0.224898 0.635311 0.157773
H48   H     H_    0.089493 0.775443 0.651131 0.158550
H49   H     H_    0.289120 0.435593 0.338045 0.136542
H50   H     H_    0.288593 0.560427 0.348016 0.139062
H51   H     H_    0.789122 0.935514 0.337813 0.136340
H52   H     H_    0.788592 0.060331 0.348239 0.139220
H53   H     H_    0.211608 0.439448 0.151264 0.153123
H54   H     H_    0.211198 0.564247 0.161342 0.153431
H55   H     H_    0.711608 0.939547 0.151047 0.152845
H56   H     H_    0.711199 0.064330 0.161581 0.153162
O1    O     O_R   0.408400 0.500000 0.355400 -0.593364
O2    O     O_R   0.908400 1.000000 0.355400 -0.593563
O3    O     O_R   0.553010 0.939540 0.552990 -0.572293
O4    O     O_R   0.553010 0.060460 0.552990 -0.571301
O5    O     O_R   0.053010 0.439540 0.552990 -0.572277
O6    O     O_R   0.053010 0.560460 0.552990 -0.571220
O7    O     O_R   0.446960 1.000000 0.538400 -0.589281
O8    O     O_R   0.946960 0.500000 0.538400 -0.590112
O9    O     O_R   0.552960 1.000000 0.644510 -0.586476
O10   O     O_R   0.052960 0.500000 0.644510 -0.585490
O11   O     O_R   0.000050 0.534990 0.091550 -0.590831
O12   O     O_R   0.000050 0.465010 0.091550 -0.587800
O13   O     O_R   0.500050 0.034990 0.091550 -0.590694
O14   O     O_R   0.500050 0.965010 0.091550 -0.587714
O15   O     O_R   0.091570 0.534990 0.091500 -0.589180
O16   O     O_R   0.091570 0.465010 0.091500 -0.586207
O17   O     O_R   0.591570 0.034990 0.091500 -0.589408
O18   O     O_R   0.591570 0.965010 0.091500 -0.586272
O19   O     O_R   0.999950 0.535010 0.908310 -0.593834
O20   O     O_R   0.999950 0.464990 0.908310 -0.593367
O21   O     O_R   0.499950 0.035010 0.908310 -0.593339
O22   O     O_R   0.499950 0.964990 0.908310 -0.593933
O23   O     O_R   0.908430 0.535000 0.908360 -0.598210
O24   O     O_R   0.908430 0.465000 0.908360 -0.593384
O25   O     O_R   0.408430 0.035000 0.908360 -0.598115
O26   O     O_R   0.408430 0.965000 0.908360 -0.593151
O27   O     O_R   0.408460 0.500000 0.461460 -0.597465
O28   O     O_R   0.908460 1.000000 0.461460 -0.597400
O29   O     O_R   0.499970 0.560460 0.446970 -0.575833
O30   O     O_R   0.499970 0.439540 0.446970 -0.567626
O31   O     O_R   0.999970 0.060460 0.446970 -0.575912
O32   O     O_R   0.999970 0.939540 0.446970 -0.567728
O33   O     O_R   0.500030 0.560470 0.553030 -0.586382
O34   O     O_R   0.500030 0.439530 0.553030 -0.584875
O35   O     O_R   0.000030 0.060470 0.553030 -0.586335
O36   O     O_R   0.000030 0.939530 0.553030 -0.584824
O37   O     O_R   0.591550 0.500000 0.538540 -0.550989
O38   O     O_R   0.091550 1.000000 0.538540 -0.550869
O39   O     O_R   0.591610 0.500000 0.644600 -0.559400
O40   O     O_R   0.091610 1.000000 0.644600 -0.559420
O41   O     O_R   0.447050 1.000000 0.355340 -0.589719
O42   O     O_R   0.947050 0.500000 0.355340 -0.589528
O43   O     O_R   0.553050 1.000000 0.461450 -0.587000
O44   O     O_R   0.053050 0.500000 0.461450 -0.587302
O45   O     O_R   0.447010 0.939550 0.446880 -0.582708
O46   O     O_R   0.447010 0.060450 0.446880 -0.583866
O47   O     O_R   0.947010 0.439550 0.446880 -0.582395
O48   O     O_R   0.947010 0.560450 0.446880 -0.583862
O49   O     O_3   0.701467 0.577217 0.679868 -0.576844
C137  C     C_3   0.748346 0.607571 0.719062 0.073660
H57   H     H_    0.778611 0.599835 0.708689 0.142824
H58   H     H_    0.777565 0.610380 0.791198 0.145289
C138  C     C_3   0.717635 0.649713 0.676263 -0.734283
H59   H     H_    0.687400 0.658563 0.686039 0.254474
H60   H     H_    0.754024 0.674022 0.706652 0.185090
H61   H     H_    0.688678 0.648109 0.604215 0.270841
O50   O     O_3   0.706808 0.473020 0.819722 -0.551136
C139  C     C_3   0.756572 0.464497 0.910936 0.083928
H62   H     H_    0.784491 0.493157 0.948275 0.133042
H63   H     H_    0.787614 0.439591 0.922973 0.135604
C140  C     C_3   0.730318 0.449316 0.946462 -0.776060
H64   H     H_    0.702839 0.420315 0.911490 0.250660
H65   H     H_    0.769152 0.442594 0.018316 0.193034
H66   H     H_    0.699650 0.473698 0.936504 0.251540
O51   O     O_3   0.201462 0.077251 0.680174 -0.576918
C141  C     C_3   0.248337 0.107621 0.719480 0.073728
H67   H     H_    0.278603 0.099957 0.709077 0.143005
H68   H     H_    0.277556 0.110359 0.791626 0.145278
C142  C     C_3   0.217619 0.149782 0.676835 -0.734293
H69   H     H_    0.187387 0.158562 0.686649 0.254305
H70   H     H_    0.254005 0.174103 0.707305 0.185204
H71   H     H_    0.188658 0.148247 0.604779 0.271045
O52   O     O_3   0.206816 0.972818 0.819620 -0.551176
C143  C     C_3   0.256587 0.964170 0.910776 0.084121
H72   H     H_    0.284607 0.992777 0.948285 0.133068
H73   H     H_    0.287535 0.939247 0.922614 0.135686
C144  C     C_3   0.230334 0.948939 0.946275 -0.776240
H74   H     H_    0.202759 0.919988 0.911137 0.250719
H75   H     H_    0.269173 0.942117 0.018082 0.192975
H76   H     H_    0.199758 0.973335 0.936509 0.251488
O53   O     O_3   0.706544 0.447319 0.616623 -0.705491
H77   H     H_    0.743800 0.435709 0.632586 0.324601
O54   O     O_3   0.206545 0.947478 0.616407 -0.704862
H78   H     H_    0.243801 0.935909 0.632319 0.324815
O55   O     O_3   0.616158 0.779135 0.646457 -0.732084
H79   H     H_    0.642776 0.754056 0.678944 0.325480
O56   O     O_3   0.601031 0.220513 0.539302 -0.732225
H80   H     H_    0.623892 0.245506 0.547479 0.330766
O57   O     O_3   0.116111 0.279136 0.646614 -0.732118
H81   H     H_    0.142719 0.254057 0.679136 0.325481
O58   O     O_3   0.106934 0.720544 0.556117 -0.732003
H82   H     H_    0.131203 0.745544 0.568176 0.330645
O59   O     O_3   0.586637 0.719027 0.504297 -0.583168
C145  C     C_3   0.607905 0.750348 0.484666 0.074757
H83   H     H_    0.623171 0.778864 0.525775 0.170861
H84   H     H_    0.570470 0.758825 0.413382 0.140964
C146  C     C_3   0.663464 0.733771 0.503620 -0.791745
H85   H     H_    0.650156 0.704999 0.464354 0.253634
H86   H     H_    0.679269 0.757708 0.485558 0.200913
H87   H     H_    0.702570 0.726468 0.575104 0.245607
O60   O     O_3   0.498756 0.280411 0.379927 -0.574023
C147  C     C_3   0.486229 0.248592 0.323388 0.066808
H88   H     H_    0.436987 0.237969 0.278162 0.137960
H89   H     H_    0.518199 0.221390 0.361475 0.171183
C148  C     C_3   0.495613 0.265775 0.267331 -0.761524
H90   H     H_    0.544623 0.276328 0.310611 0.253134
H91   H     H_    0.485537 0.241049 0.222123 0.192933
H92   H     H_    0.463644 0.292616 0.227249 0.252968
O61   O     O_3   0.086782 0.219029 0.504590 -0.583227
C149  C     C_3   0.108134 0.250355 0.485095 0.074652
H93   H     H_    0.123384 0.278858 0.526230 0.170945
H94   H     H_    0.070757 0.258855 0.413818 0.140939
C150  C     C_3   0.163736 0.233770 0.504163 -0.791696
H95   H     H_    0.150444 0.205010 0.464875 0.253652
H96   H     H_    0.179609 0.257711 0.486207 0.200931
H97   H     H_    0.202789 0.226445 0.575647 0.245611
O62   O     O_3   0.011125 0.780395 0.392851 -0.573609
C151  C     C_3   0.003263 0.748568 0.339922 0.066878
H98   H     H_    0.953855 0.737929 0.289358 0.137702
H99   H     H_    0.034434 0.721376 0.380518 0.171278
C152  C     C_3   0.019428 0.765745 0.292012 -0.760995
H100  H     H_    0.068785 0.776313 0.340797 0.253251
H101  H     H_    0.013077 0.741012 0.249678 0.192808
H102  H     H_    0.988466 0.792575 0.249642 0.253015
O63   O     O_3   0.206456 0.495728 0.324008 -0.755044
H103  H     H_    0.243641 0.494756 0.388848 0.317935
O64   O     O_3   0.706458 0.995537 0.323995 -0.755432
H104  H     H_    0.743642 0.994514 0.388830 0.317968

loop_
_geom_bond_atom_site_label_1
_geom_bond_atom_site_label_2
_ccdc_geom_bond_type
C78   O22   A    
C151  H99   S    
C55   C59   S    
Cu3   O33   S    
Cu5   O45   S    
C104  H34   S    
O56   H80   S    
C117  C133  S    
Cu9   Cu10  S    
C55   H9    S    
C146  H85   S    
C17   H43   S    
C144  H76   S    
C50   O52   S    
C18   H44   S    
C33   C35   S    
C86   C88   S    
C151  C152  S    
C58   C60   S    
Cu4   O36   S    
C33   C36   S    
C62   C70   S    
C60   C62   S    
C89   C94   S    
C69   O37   A    
C95   H27   S    
C89   H19   S    
C137  H58   S    
C94   H24   S    
C104  C116  S    
C102  C112  S    
C77   O19   A    
C12   C16   S    
C92   H22   S    
C29   H51   S    
C50   C52   S    
C49   C62   S    
C4    C12   S    
C68   C128  S    
C5    C13   S    
C81   C86   S    
Cu1   O37   S    
C7    C15   S    
C57   H11   S    
C8    C16   S    
C38   H56   S    
Cu2   O31   S    
C130  C134  S    
C83   C89   S    
Cu8   O5    S    
C44   C46   S    
Cu11  O21   S    
C111  H37   S    
C27   C31   S    
C84   C100  S    
Cu12  O22   S    
C97   C131  S    
C6    C132  S    
C39   O29   A    
C42   O36   A    
C35   H53   S    
C4    C130  S    
C81   C99   S    
C27   C35   S    
C149  H93   S    
Cu4   O40   S    
C32   C34   S    
C21   C123  T    
C150  H97   S    
C6    C10   S    
Cu11  O13   S    
C16   C118  S    
C83   H17   S    
C1    O27   A    
Cu7   O4    S    
C75   O15   A    
C117  H1    S    
C147  H88   S    
C111  C113  S    
Cu2   Cu4   S    
C129  C133  S    
C71   O7    A    
C83   C100  S    
C87   C89   S    
C101  C115  S    
C107  C110  S    
C141  H68   S    
C101  C111  S    
C145  H83   S    
C40   C122  S    
C104  C110  S    
C146  H87   S    
Cu6   O47   S    
C3    C129  S    
C11   H45   S    
C80   O26   A    
C56   C59   S    
C98   C120  S    
Cu9   O19   S    
C63   O43   A    
C108  C111  S    
C44   H6    S    
C37   C44   S    
C103  C116  S    
C4    O56   S    
Cu8   O10   S    
Cu11  O25   S    
C82   H16   S    
C10   C18   S    
C129  O59   S    
C67   O5    A    
C3    C11   S    
C59   O53   S    
C64   O42   A    
O62   C151  S    
Cu3   O27   S    
C20   C134  S    
C21   C135  S    
C113  C115  S    
C30   H52   S    
C66   O46   A    
C102  H32   S    
C53   C55   S    
C104  C105  S    
Cu11  Cu12  S    
C68   O6    A    
C142  H71   S    
C114  H40   S    
C95   C117  S    
Cu9   O23   S    
C51   H7    S    
C78   C108  S    
O50   C139  S    
C48   O50   S    
C49   C57   S    
C150  H96   S    
C138  H59   S    
C5    C131  S    
C152  H101  S    
C40   O34   A    
C33   C75   S    
Cu5   O41   S    
C73   O12   A    
C2    O2    A    
C98   H30   S    
Cu3   O39   S    
Cu5   O7    S    
C20   C122  T    
C118  C134  S    
C2    O28   A    
Cu7   O9    S    
C15   H41   S    
C105  H25   S    
O52   C143  S    
C24   C126  T    
C13   C135  S    
C84   C90   S    
C148  H91   S    
C63   O41   A    
C59   C61   S    
C91   H21   S    
C6    O58   S    
C41   O31   A    
C137  C138  S    
Cu6   O42   S    
C66   C126  S    
C51   C53   S    
C97   C119  S    
C5    C9    S    
O57   H81   S    
C6    C14   S    
Cu10  O20   S    
C64   O44   A    
C88   C91   S    
C94   C100  S    
C132  C136  S    
C74   O14   A    
O55   H79   S    
C103  C105  S    
C43   C45   S    
C109  C114  S    
C31   O63   S    
Cu12  O26   S    
C79   O24   A    
C39   O33   A    
C53   C56   S    
C101  C106  S    
C19   C121  T    
C90   H20   S    
C30   C46   S    
C114  C116  S    
C139  H62   S    
C65   O3    A    
C76   O17   A    
C144  H75   S    
C13   C17   S    
C138  H61   S    
Cu10  O16   S    
C27   C45   S    
C106  C108  S    
C149  C150  S    
C7    C23   S    
C8    C24   S    
C98   C132  S    
C143  H72   S    
Cu1   O30   S    
Cu12  O14   S    
C34   C76   S    
C54   C57   S    
C72   O10   A    
C34   C37   S    
C85   H13   S    
C82   C99   S    
Cu2   O32   S    
C27   H49   S    
C139  C140  S    
Cu8   O6    S    
Cu2   O2    S    
C9    C25   S    
Cu1   Cu3   S    
C29   C32   S    
C3    C7    S    
Cu5   Cu7   S    
C149  H94   S    
C113  H39   S    
C82   C92   S    
O59   C145  S    
C118  H2    S    
C73   C87   S    
C14   H48   S    
C102  C115  S    
Cu7   O3    S    
C143  C144  S    
C147  H89   S    
C93   C99   S    
C68   O48   A    
C78   O21   A    
C151  H98   S    
C110  H36   S    
O51   C141  S    
Cu3   O34   S    
Cu5   O46   S    
C107  C109  S    
C141  C142  S    
C145  H84   S    
C90   C94   S    
C54   C80   S    
C146  H86   S    
C132  O62   S    
C147  C148  S    
Cu6   O48   S    
C109  H35   S    
C50   C58   S    
C84   C85   S    
C40   O30   A    
O58   H82   S    
C140  H65   S    
C69   O39   A    
C57   C60   S    
C47   C51   S    
C71   O9    A    
Cu4   O35   S    
C28   H50   S    
C108  C112  S    
C22   C136  S    
C120  C136  S    
C145  C146  S    
O64   H104  S    
C38   C44   S    
C137  H57   S    
C5    O57   S    
C91   C93   S    
C105  C107  S    
C77   O20   A    
C97   H29   S    
O54   H78   S    
C49   C52   S    
C32   O64   S    
C106  H26   S    
C16   H42   S    
C83   C85   S    
Cu4   O28   S    
C96   C130  S    
C41   O35   A    
C93   H23   S    
C9    C97   S    
C96   H28   S    
C28   C31   S    
C47   C61   S    
C130  O60   S    
C19   C133  S    
C72   C116  S    
C39   C121  S    
C60   O54   S    
C29   C46   S    
C103  C109  S    
C25   C127  T    
C58   H12   S    
C82   C86   S    
O61   C149  S    
O49   C137  S    
C14   C136  S    
C75   O16   A    
C92   C93   S    
Cu7   O43   S    
C152  H100  S    
C119  C135  S    
C17   C119  S    
C81   C91   S    
C15   C117  S    
C64   C100  S    
C28   C36   S    
O60   C147  S    
C13   H47   S    
C87   C90   S    
C29   C37   S    
C95   C129  S    
C141  H67   S    
C73   O11   A    
C36   C43   S    
C74   C88   S    
C43   H5    S    
C65   O45   A    
O63   H103  S    
C14   C18   S    
C8    C96   S    
Cu6   O8    S    
C80   O25   A    
C4    C8    S    
C1    C45   S    
C42   C124  S    
Cu1   O1    S    
C148  H90   S    
C2    C46   S    
O53   H77   S    
Cu10  O24   S    
C96   C118  S    
C53   C79   S    
C47   O49   S    
C131  C135  S    
C11   C133  S    
C112  H38   S    
C66   O4    A    
C10   C98   S    
Cu12  O18   S    
C56   H10   S    
C142  H70   S    
Cu9   O11   S    
C42   O32   A    
C48   C51   S    
C88   C92   S    
C63   C99   S    
C31   C33   S    
C86   H14   S    
C1    O1    A    
C140  H64   S    
Cu11  O17   S    
C23   C125  T    
C70   O40   A    
C10   C26   S    
C81   H15   S    
C36   H54   S    
C79   O23   A    
C112  C113  S    
C52   C54   S    
C85   C87   S    
C119  H3    S    
C28   C45   S    
C120  H4    S    
C77   C107  S    
C139  H63   S    
C76   O18   A    
C144  H74   S    
C138  H60   S    
C65   C125  S    
C152  H102  S    
C101  H31   S    
C67   C127  S    
Cu9   O15   S    
C142  H69   S    
C37   H55   S    
C71   C115  S    
C26   C128  T    
C9    C17   S    
C11   C15   S    
Cu8   O44   S    
C50   C62   S    
C143  H73   S    
C3    O55   S    
Cu1   O29   S    
C18   C120  S    
C35   C43   S    
C47   C55   S    
C54   C58   S    
C148  H92   S    
C61   C69   S    
C48   C56   S    
C110  C114  S    
C34   C38   S    
C12   H46   S    
Cu2   O38   S    
C22   C124  T    
C52   H8    S    
C7    C95   S    
C41   C123  S    
C70   O38   A    
C30   C32   S    
C48   C61   S    
C72   O8    A    
C131  O61   S    
C74   O13   A    
C102  C106  S    
Cu6   Cu8   S    
C150  H95   S    
C140  H66   S    
C84   H18   S    
C12   C134  S    
C30   C38   S    
Cu10  O12   S    
C67   O47   A    
C103  H33   S    
C49   O51   S    
