data_mof_unit_25659.cif
_audit_creation_date              2012-12-11T16:24:19-0500
_audit_creation_method            fapswitch 2.2
_symmetry_space_group_name_H-M    P1
_symmetry_Int_Tables_number       1
_space_group_crystal_system       triclinic
_cell_length_a                    14.708602
_cell_length_b                    14.717856
_cell_length_c                    33.317418
_cell_angle_alpha                 95.933309
_cell_angle_beta                  96.365038
_cell_angle_gamma                 61.281242
_cell_volume                      6275.91882405

loop_
_atom_site_label
_atom_site_type_symbol
_atom_type_description
_atom_site_fract_x
_atom_site_fract_y
_atom_site_fract_z
_atom_type_partial_charge
Br1   Br    Br    0.740845 0.177753 0.408236 -0.291345
Br2   Br    Br    0.716985 0.535602 0.816339 -0.326833
Br3   Br    Br    0.778174 0.502296 0.915481 -0.260849
Br4   Br    Br    0.501273 0.884872 0.914337 -0.328615
Br5   Br    Br    0.103339 0.882015 0.874313 -0.379098
Br6   Br    Br    0.149197 0.835207 0.683923 -0.439419
Br7   Br    Br    0.180544 0.572682 0.302754 -0.343643
Br8   Br    Br    0.829401 0.527886 0.426438 -0.310560
Br9   Br    Br    0.868368 0.494865 0.329399 -0.301063
Br10  Br    Br    0.114553 0.862854 0.072792 -0.405741
Br11  Br    Br    0.525262 0.161995 0.194103 -0.406276
Br12  Br    Br    0.556267 0.821565 0.165374 -0.293734
Br13  Br    Br    0.160774 0.520512 0.565225 -0.372184
Br14  Br    Br    0.069539 0.470638 0.904411 -0.344975
Br15  Br    Br    0.544705 0.204448 0.838996 -0.296544
Br16  Br    Br    0.847911 0.517355 0.604790 -0.350030
C1    C     C_R   0.390864 0.699596 0.445838 0.567839
C2    C     C_1   0.319091 0.342145 0.228489 0.135314
C3    C     C_1   0.323571 0.347737 0.264754 0.090618
C4    C     C_R   0.405538 0.386555 0.433939 0.579075
C5    C     C_R   0.292929 0.294591 0.101448 -0.045637
C6    C     C_R   0.758756 0.370752 0.409893 -0.058176
C7    C     C_R   0.796992 0.429784 0.393298 0.139411
C8    C     C_R   0.816299 0.414489 0.352098 0.149532
C9    C     C_R   0.799070 0.339732 0.327507 -0.038256
C10   C     C_R   0.773968 0.271975 0.345074 0.228809
C11   C     C_R   0.759725 0.283979 0.386425 0.179566
C12   C     C_R   0.331163 0.353911 0.308011 0.005736
C13   C     C_R   0.826216 0.311325 0.202973 0.350978
C14   C     C_R   0.810495 0.330306 0.283883 0.356184
C15   C     C_R   0.814746 0.390488 0.138665 -0.097965
C16   C     C_R   0.702446 0.408914 0.447680 0.573270
C17   C     C_R   0.847142 0.380576 0.099536 0.244694
C18   C     C_R   0.923811 0.192973 0.101136 -0.161016
C19   C     C_R   0.892298 0.203626 0.139875 -0.112410
C20   C     C_R   0.841619 0.302039 0.159608 0.003887
C21   C     C_R   0.906416 0.280439 0.081478 0.059644
C22   C     C_R   0.371294 0.753876 0.408249 0.025040
C23   C     C_R   0.399699 0.265209 0.328526 -0.119621
C24   C     C_R   0.276284 0.786322 0.384339 0.238352
C25   C     C_R   0.269147 0.815391 0.344325 0.256817
C26   C     C_R   0.358377 0.804813 0.328134 0.040550
C27   C     C_R   0.448653 0.781602 0.353128 -0.166240
C28   C     C_R   0.393661 0.701497 0.561344 0.565505
C29   C     C_R   0.454682 0.757539 0.392910 -0.174818
C30   C     C_R   0.363243 0.815627 0.203584 0.354205
C31   C     C_R   0.359726 0.810327 0.284483 0.379622
C32   C     C_R   0.264325 0.832992 0.137560 -0.125875
C33   C     C_R   0.238828 0.863243 0.097996 0.118686
C34   C     C_R   0.419521 0.271681 0.370730 0.254156
C35   C     C_R   0.400039 0.873083 0.099387 0.225634
C36   C     C_R   0.423286 0.845006 0.139769 0.221505
C37   C     C_R   0.352243 0.829974 0.159717 -0.044719
C38   C     C_R   0.301956 0.893023 0.079436 -0.022700
C39   C     C_R   0.374811 0.366797 0.585943 -0.029357
C40   C     C_R   0.407242 0.388312 0.549031 0.571949
C41   C     C_R   0.275067 0.428833 0.600564 0.132817
C42   C     C_R   0.258501 0.419317 0.640792 0.227144
C43   C     C_R   0.340423 0.345409 0.665082 0.085791
C44   C     C_R   0.436112 0.277290 0.648900 0.194852
C45   C     C_R   0.397638 0.252620 0.165201 0.124014
C46   C     C_R   0.451900 0.288466 0.609605 -0.162689
C47   C     C_R   0.326853 0.342392 0.789516 0.346763
C48   C     C_R   0.329388 0.343855 0.708451 0.410530
C49   C     C_R   0.224380 0.400086 0.849198 -0.120216
C50   C     C_R   0.208687 0.385370 0.887902 0.117508
C51   C     C_R   0.393326 0.261552 0.897384 0.239141
C52   C     C_R   0.702141 0.413161 0.562622 0.564133
C53   C     C_R   0.406650 0.274449 0.857745 0.227242
C54   C     C_R   0.320586 0.340224 0.832962 -0.041087
C55   C     C_R   0.291626 0.308672 0.911343 -0.029797
C56   C     C_R   0.386869 0.234118 0.123530 -0.087979
C57   C     C_R   0.753054 0.380283 0.603265 0.028046
C58   C     C_R   0.806973 0.427775 0.626672 0.168607
C59   C     C_R   0.832602 0.409921 0.667879 -0.064106
C60   C     C_R   0.806219 0.344821 0.685847 0.006373
C61   C     C_R   0.759638 0.292368 0.662404 -0.107277
C62   C     C_R   0.733734 0.309452 0.621456 -0.147140
C63   C     C_R   0.916065 0.214350 0.820701 -0.131497
C64   C     C_R   0.369555 0.369110 0.392090 0.029957
C65   C     C_R   0.944104 0.200142 0.861634 -0.141842
C66   C     C_R   0.838078 0.385391 0.876965 0.199845
C67   C     C_R   0.212504 0.379479 0.121167 -0.126556
C68   C     C_R   0.809896 0.399494 0.835310 0.206961
C69   C     C_R   0.852050 0.313716 0.807328 0.013144
C70   C     C_1   0.834980 0.326079 0.764577 0.055196
C71   C     C_1   0.822587 0.334809 0.728666 0.032459
C72   C     C_R   0.909143 0.285285 0.890012 0.000169
C73   C     C_R   0.376483 0.755686 0.602109 0.023492
C74   C     C_R   0.284303 0.780842 0.619992 -0.125089
C75   C     C_R   0.273922 0.810341 0.661050 0.162956
C76   C     C_R   0.294729 0.455862 0.371308 -0.136336
C77   C     C_R   0.355814 0.816237 0.684889 0.008487
C78   C     C_R   0.222359 0.398863 0.163189 0.237627
C79   C     C_R   0.444835 0.798843 0.667072 -0.120288
C80   C     C_R   0.456201 0.768795 0.625625 0.232333
C81   C     C_R   0.408101 0.870021 0.834146 0.280652
C82   C     C_R   0.389835 0.890866 0.875901 0.123015
C83   C     C_R   0.226215 0.884632 0.861004 0.117897
C84   C     C_R   0.247411 0.860869 0.820475 -0.131040
C85   C     C_R   0.334677 0.858040 0.806837 0.019173
C86   C     C_1   0.346449 0.844076 0.764075 0.103495
C87   C     C_1   0.352096 0.832635 0.728023 0.074112
C88   C     C_R   0.276073 0.448891 0.329528 0.171518
C89   C     C_R   0.314085 0.332767 0.185185 0.078147
C90   C     C_R   0.293487 0.907852 0.889099 -0.006131
C91   C     C_R   0.962863 0.264274 0.045341 0.576724
C92   C     C_R   0.273096 0.259498 0.059953 0.542826
C93   C     C_R   0.260444 0.957229 0.043423 0.553623
C94   C     C_R   0.960962 0.268345 0.931110 0.567874
C95   C     C_R   0.271148 0.265465 0.945657 0.540570
C96   C     C_R   0.257229 0.962878 0.929143 0.571157
Cr1   Cr    Cr6+3 0.576280 0.580550 0.506370 1.142734
Cr2   Cr    Cr6+3 0.346780 0.572400 0.496520 1.122335
Cr3   Cr    Cr6+3 0.576960 0.347070 0.497150 1.111047
Cr4   Cr    Cr6+3 0.087320 0.083240 0.984860 1.125545
Cr5   Cr    Cr6+3 0.087720 0.316210 0.996740 1.143149
Cr6   Cr    Cr6+3 0.317350 0.090340 0.995890 1.122759
H1    H     H_    0.450142 0.168736 0.108886 0.199851
H2    H     H_    0.158842 0.453995 0.830645 0.194120
H3    H     H_    0.998870 0.122843 0.870774 0.182547
H4    H     H_    0.947998 0.147950 0.799249 0.159463
H5    H     H_    0.739759 0.241100 0.676076 0.152768
H6    H     H_    0.692892 0.271376 0.604638 0.142516
H7    H     H_    0.870877 0.448805 0.686085 0.169728
H8    H     H_    0.507107 0.804885 0.685774 0.146500
H9    H     H_    0.221871 0.772284 0.602597 0.192767
H10   H     H_    0.193494 0.847132 0.799093 0.191405
H11   H     H_    0.255195 0.531329 0.387050 0.183084
H12   H     H_    0.773755 0.466967 0.153487 0.153460
H13   H     H_    0.139898 0.427089 0.104386 0.151292
H14   H     H_    0.782954 0.530347 0.096086 0.347567
H15   H     H_    0.736053 0.214683 0.294504 0.350308
H16   H     H_    0.152693 0.768556 0.377345 0.359728
H17   H     H_    0.118305 0.889248 0.338048 0.360174
H18   H     H_    0.470863 0.857470 0.051725 0.347581
H19   H     H_    0.119371 0.539230 0.640763 0.389895
H20   H     H_    0.577845 0.164359 0.657094 0.333471
H21   H     H_    0.467971 0.227163 0.949832 0.342385
H22   H     H_    0.517333 0.124075 0.371702 0.350340
H23   H     H_    0.968287 0.115341 0.087759 0.184050
H24   H     H_    0.529593 0.892196 0.838689 0.385988
H25   H     H_    0.593299 0.760023 0.628954 0.346477
H26   H     H_    0.083403 0.516977 0.163717 0.347756
H27   H     H_    0.912052 0.134241 0.155084 0.179140
H28   H     H_    0.528012 0.733830 0.410629 0.184223
H29   H     H_    0.516941 0.775767 0.341164 0.182185
H30   H     H_    0.211230 0.816740 0.151700 0.198984
H31   H     H_    0.527964 0.238882 0.598483 0.142742
H32   H     H_    0.440647 0.191833 0.311477 0.150169
N1    N     N_R   0.761667 0.403942 0.221217 -0.191173
N2    N     N_R   0.411185 0.854078 0.269837 -0.202949
N3    N     N_R   0.411795 0.857726 0.230087 -0.142873
N4    N     N_R   0.276832 0.433122 0.770779 -0.192871
N5    N     N_R   0.278915 0.433891 0.730989 -0.144055
N6    N     N_R   0.377145 0.253121 0.727187 -0.130390
N7    N     N_R   0.375485 0.252353 0.766935 -0.162027
N8    N     N_R   0.753402 0.413086 0.260958 -0.163120
N9    N     N_R   0.875032 0.237765 0.265746 -0.166247
N10   N     N_R   0.882792 0.228550 0.226010 -0.196245
N11   N     N_R   0.313399 0.770527 0.218482 -0.201226
N12   N     N_R   0.311943 0.767623 0.258091 -0.114899
O1    O     O_R   0.679450 0.499830 0.463150 -0.461097
O2    O     O_R   0.340240 0.172500 0.045430 -0.491547
O3    O     O_R   0.309670 0.000990 0.032050 -0.485486
O4    O     O_R   0.480650 0.664000 0.464630 -0.516915
O5    O     O_R   0.168330 0.982130 0.939200 -0.457791
O6    O     O_R   0.000140 0.178170 0.944610 -0.498754
O7    O     O_R   0.983010 0.336750 0.948660 -0.434868
O8    O     O_R   0.181800 0.312190 0.959860 -0.456590
O9    O     O_R   0.338500 0.175680 0.956950 -0.475637
O10   O     O_R   0.308050 0.003930 0.950020 -0.464716
O11   O     O_3   0.164130 0.163270 0.992500 -0.296527
O12   O     O_R   0.356040 0.477400 0.534170 -0.452442
O13   O     O_R   0.323930 0.675950 0.455370 -0.439155
O14   O     O_R   0.354700 0.475360 0.451930 -0.513334
O15   O     O_R   0.494470 0.320860 0.448390 -0.415717
O16   O     O_R   0.662580 0.357570 0.460050 -0.465976
O17   O     O_R   0.680900 0.502040 0.551870 -0.433256
O18   O     O_R   0.481990 0.666040 0.546870 -0.430259
O19   O     O_R   0.325370 0.678160 0.544080 -0.509647
O20   O     O_3   0.824753 0.466896 0.079180 -0.637293
O21   O     O_3   0.759731 0.194626 0.322719 -0.600220
O22   O     O_3   0.194054 0.784150 0.399820 -0.650498
O23   O     O_R   0.495910 0.323070 0.537100 -0.519773
O24   O     O_3   0.177011 0.853657 0.320385 -0.632622
O25   O     O_3   0.474477 0.881199 0.080519 -0.608481
O26   O     O_3   0.163851 0.479609 0.657403 -0.632397
O27   O     O_3   0.515801 0.204967 0.672874 -0.647891
O28   O     O_3   0.480839 0.200902 0.921304 -0.593389
O29   O     O_3   0.489162 0.185147 0.391222 -0.618144
O30   O     O_3   0.495928 0.860996 0.818869 -0.622653
O31   O     O_3   0.545690 0.748144 0.608222 -0.635728
O32   O     O_3   0.142161 0.478558 0.183531 -0.627893
O33   O     O_R   0.663920 0.359620 0.542290 -0.515194
O34   O     O_3   0.500010 0.500010 0.500010 -0.302568
O35   O     O_R   0.170070 0.978950 0.027680 -0.451303
O36   O     O_R   0.001760 0.175230 0.026640 -0.510801
O37   O     O_R   0.984760 0.333570 0.037150 -0.440708
O38   O     O_R   0.183410 0.309240 0.041890 -0.501071

loop_
_geom_bond_atom_site_label_1
_geom_bond_atom_site_label_2
_ccdc_geom_bond_type
C91   O37   A    
Cr3   O34   S    
C39   C46   A    
C18   H23   S    
C64   C76   A    
C85   C86   S    
C46   H31   S    
Br4   C82   S    
C18   C21   A    
C25   C26   A    
Br2   C68   S    
C79   C80   A    
C39   C40   S    
H21   O28   S    
C28   O18   A    
C81   C82   A    
C74   C75   A    
C51   O28   S    
C78   C89   A    
C90   C96   S    
C61   C62   A    
C92   O2    A    
C23   H32   S    
Cr6   O2    S    
C43   C48   S    
C6    C16   S    
Cr4   O11   S    
Br16  C58   S    
C65   C72   A    
N6    N7    A    
C21   C91   S    
C15   H12   S    
C1    O4    A    
C15   C20   A    
N9    N10   A    
C19   H27   S    
Cr3   O23   S    
C48   N5    A    
H26   O32   S    
C33   C38   A    
H25   O31   S    
C16   O1    A    
Br8   C7    S    
C30   C37   S    
C44   C46   A    
C2    C3    T    
C57   C58   A    
Cr1   O1    S    
C30   N3    A    
C93   O3    A    
C22   C29   A    
H14   O20   S    
C31   N12   A    
C94   O6    A    
Cr5   O8    S    
H15   O21   S    
C81   O30   S    
Br5   C83   S    
Cr6   O11   S    
C44   O27   S    
C30   N11   A    
C55   C95   S    
C93   O35   A    
C57   C62   A    
C15   C17   A    
Cr4   O5    S    
C62   H6    S    
H17   O24   S    
C95   O9    A    
Cr5   O37   S    
C1    C22   S    
H19   O26   S    
C72   C94   S    
C10   O21   S    
C52   C57   S    
Cr2   O14   S    
C49   C54   A    
C43   C44   A    
C77   C79   A    
C78   O32   S    
C16   O16   A    
C14   N9    A    
C96   O10   A    
C18   C19   A    
Br12  C36   S    
N11   N12   A    
C13   N10   A    
C32   C37   A    
Br15  C53   S    
C63   H4    S    
C58   C59   A    
C4    C64   S    
C5    C56   A    
C42   O26   S    
C29   H28   S    
C5    C92   S    
N1    N8    A    
C5    C67   A    
C68   C69   A    
C27   H29   S    
C60   C61   A    
Cr1   O4    S    
C63   C65   A    
C70   C71   T    
C12   C23   A    
C42   C43   A    
C69   C70   S    
C67   C78   A    
C17   C21   A    
C35   C36   A    
C38   C93   S    
C65   H3    S    
C59   H7    S    
C19   C20   A    
C74   H9    S    
C92   O38   A    
C59   C60   A    
C67   H13   S    
C61   H5    S    
Cr5   O7    S    
C75   C77   A    
Cr4   O36   S    
C12   C88   A    
C50   C55   A    
C13   C20   S    
C47   C54   S    
Cr6   O10   S    
C7    C8    A    
H24   O30   S    
C23   C34   A    
Br3   C66   S    
Br14  C50   S    
C8    C9    A    
C3    C12   S    
C27   C29   A    
C60   C71   S    
N4    N5    A    
Cr3   O15   S    
Cr5   O38   S    
Cr2   O34   S    
C45   C56   A    
C24   C25   A    
Cr1   O17   S    
C13   N1    A    
C66   C68   A    
Br7   C88   S    
C39   C41   A    
H18   O25   S    
C10   C11   A    
Cr1   O34   S    
H20   O27   S    
C26   C27   A    
C47   N7    A    
C63   C69   A    
C45   C89   A    
C36   C37   A    
Cr2   O13   S    
Cr5   O11   S    
C9    C14   S    
C14   N8    A    
C83   C90   A    
Cr3   O33   S    
C32   C33   A    
Cr6   O3    S    
C84   H10   S    
C47   N4    A    
H16   O22   S    
Br11  C45   S    
C34   C64   A    
C91   O36   A    
C1    O13   A    
Br9   C8    S    
C4    O15   A    
C40   O23   A    
Cr2   O19   S    
C48   N6    A    
C52   O17   A    
C82   C90   A    
C83   C84   A    
C6    C11   A    
C35   C38   A    
C34   O29   S    
C95   O8    A    
C73   C80   A    
C76   H11   S    
C9    C10   A    
C2    C89   S    
C22   C24   A    
Cr4   O35   S    
C96   O5    A    
C79   H8    S    
C41   C42   A    
C4    O14   A    
Cr6   O9    S    
C66   C72   A    
C32   H30   S    
C56   H1    S    
C84   C85   A    
C49   H2    S    
C25   O24   S    
C52   O33   A    
C51   C55   A    
C26   C31   S    
C86   C87   T    
C53   C54   A    
Cr3   O16   S    
C35   O25   S    
C76   C88   A    
C94   O7    A    
C80   O31   S    
Cr2   O12   S    
Cr1   O18   S    
Br13  C41   S    
C31   N2    A    
C49   C50   A    
C40   O12   A    
C17   O20   S    
Br1   C11   S    
H22   O29   S    
C6    C7    A    
Cr4   O6    S    
N2    N3    A    
C51   C53   A    
C73   C74   A    
Br10  C33   S    
C28   O19   A    
C81   C85   A    
C28   C73   S    
Br6   C75   S    
C77   C87   S    
C24   O22   S    
