data_mof_unit_27030.cif
_audit_creation_date              2012-12-10T19:16:19-0500
_audit_creation_method            fapswitch 2.2
_symmetry_space_group_name_H-M    P1
_symmetry_Int_Tables_number       1
_space_group_crystal_system       triclinic
_cell_length_a                    10.59971
_cell_length_b                    9.78408
_cell_length_c                    27.91829
_cell_angle_alpha                 89.110251
_cell_angle_beta                  91.245569
_cell_angle_gamma                 90.306137
_cell_volume                      2894.29203552

loop_
_atom_site_label
_atom_site_type_symbol
_atom_type_description
_atom_site_fract_x
_atom_site_fract_y
_atom_site_fract_z
_atom_type_partial_charge
C1    C     C_R   0.258104 0.499794 0.497488 0.831356
C2    C     C_R   0.453894 0.631449 0.279230 -0.085338
C3    C     C_R   0.481580 0.494968 0.252505 0.054514
C4    C     C_R   0.465221 0.428668 0.100833 -0.055390
C5    C     C_R   0.355091 0.462116 0.125341 -0.031751
C6    C     C_R   0.240459 0.473867 0.100156 -0.133939
C7    C     C_R   0.580095 0.413823 0.126635 -0.032466
C8    C     C_R   0.496279 0.501841 0.353877 -0.052723
C9    C     C_R   0.491944 0.495845 0.646106 -0.083862
C10   C     C_R   0.346759 0.441121 0.973908 0.070826
C11   C     C_R   0.569342 0.368213 0.975904 -0.026794
C12   C     C_R   0.499831 0.500869 0.406225 0.861121
C13   C     C_R   0.459171 0.408133 0.949821 0.075814
C14   C     C_R   0.240055 0.483095 0.946279 -0.218280
C15   C     C_R   0.244676 0.495243 0.896868 -0.152042
C16   C     C_R   0.355307 0.465308 0.873104 0.006144
C17   C     C_R   0.462326 0.418233 0.899208 -0.117440
C18   C     C_R   0.573205 0.384789 0.874695 -0.155861
C19   C     C_R   0.574816 0.405052 0.824760 0.570172
C20   C     C_R   0.362453 0.484491 0.823600 0.540891
C21   C     C_R   0.461882 0.358478 0.718657 -0.072569
C22   C     C_R   0.468531 0.369659 0.669416 -0.192483
C23   C     C_R   0.742137 0.500166 0.497939 0.826634
C24   C     C_R   0.506696 0.618926 0.671481 -0.188953
C25   C     C_R   0.501647 0.624462 0.721039 -0.095025
C26   C     C_R   0.478567 0.483584 0.747300 0.057538
C27   C     C_R   0.346282 0.437094 0.024668 0.042046
C28   C     C_R   0.461138 0.413451 0.050490 0.074962
C29   C     C_R   0.572758 0.378603 0.026404 0.078006
C30   C     C_R   0.235715 0.460802 0.050752 -0.215374
C31   C     C_R   0.689468 0.380005 0.102719 -0.140362
C32   C     C_R   0.674092 0.322327 0.950447 -0.318067
C33   C     C_R   0.678896 0.334555 0.900707 0.565739
C34   C     C_R   0.498506 0.498985 0.593772 0.878034
C35   C     C_R   0.686202 0.362810 0.053550 -0.213791
C36   C     C_3   0.071211 0.624153 0.466695 -0.397837
C37   C     C_3   0.076073 0.507219 0.548296 -0.392363
C38   C     C_3   0.926961 0.624953 0.467189 -0.400861
C39   C     C_3   0.931747 0.504185 0.548522 -0.402350
C40   C     C_3   0.070071 0.366832 0.472768 -0.397068
C41   C     C_3   0.121685 0.499378 0.496217 0.184476
C42   C     C_3   0.878714 0.499706 0.496469 0.181328
C43   C     C_3   0.925932 0.367968 0.472226 -0.396363
C44   C     C_3   0.380427 0.081806 0.477101 -0.370531
C45   C     C_3   0.377536 0.919077 0.479860 -0.401252
C46   C     C_3   0.600379 0.081171 0.468349 -0.306740
C47   C     C_3   0.596182 0.920312 0.466567 -0.283407
C48   C     C_3   0.506932 0.075843 0.548964 0.439775
C49   C     C_3   0.517026 0.915724 0.548544 0.475133
C50   C     C_R   0.362671 0.483260 0.174750 0.541548
C51   C     C_R   0.583305 0.436461 0.175927 0.536621
C52   C     C_R   0.515328 0.370647 0.280952 -0.067825
C53   C     C_R   0.521473 0.379052 0.330257 -0.215583
C54   C     C_R   0.464389 0.623810 0.328848 -0.216415
H1    H     H_    0.444904 0.715957 0.348284 0.162092
H2    H     H_    0.533788 0.274742 0.263640 0.156786
H3    H     H_    0.779030 0.368990 0.121812 0.191088
H4    H     H_    0.522969 0.714321 0.652491 0.213300
H5    H     H_    0.490550 0.559838 0.740447 0.215776
H6    H     H_    0.775906 0.343125 0.037687 0.139613
H7    H     H_    0.103751 0.619485 0.429106 0.166791
H8    H     H_    0.113809 0.419679 0.570093 0.165463
H9    H     H_    0.106960 0.721692 0.482036 0.173499
H10   H     H_    0.111087 0.602994 0.565189 0.168612
H11   H     H_    0.895687 0.722298 0.482989 0.160390
H12   H     H_    0.897084 0.595438 0.567281 0.162726
H13   H     H_    0.465516 0.569102 0.259638 0.218345
H14   H     H_    0.888410 0.622002 0.429800 0.168138
H15   H     H_    0.899820 0.412568 0.569086 0.152784
H16   H     H_    0.104366 0.358819 0.435506 0.167722
H17   H     H_    0.103244 0.274823 0.493249 0.171502
H18   H     H_    0.889017 0.363191 0.434641 0.168738
H19   H     H_    0.892403 0.274748 0.491493 0.161332
H20   H     H_    0.369390 0.116997 0.439131 0.189409
H21   H     H_    0.355642 0.877593 0.443715 0.192159
H22   H     H_    0.296807 0.122347 0.495430 0.157788
H23   H     H_    0.298339 0.885117 0.502744 0.149489
H24   H     H_    0.410193 0.091319 0.562965 0.042924
H25   H     H_    0.432105 0.879295 0.568050 0.049851
H26   H     H_    0.695739 0.116267 0.478170 0.132825
H27   H     H_    0.689910 0.874315 0.473183 0.153211
H28   H     H_    0.153807 0.495199 0.118464 0.190766
H29   H     H_    0.453909 0.277475 0.649149 0.203847
H30   H     H_    0.161341 0.530956 0.877399 0.177584
H31   H     H_    0.143452 0.469767 0.034136 0.137983
H32   H     H_    0.546099 0.287179 0.350419 0.149257
N1    N     N_R   0.475648 0.470803 0.198648 -0.339321
N2    N     N_R   0.471408 0.456188 0.801034 -0.347440
N3    N     N_3   0.499750 0.138610 0.498940 -0.085817
N4    N     N_3   0.499750 0.861390 0.498940 -0.088679
O1    O     O_R   0.314910 0.616040 0.499990 -0.638944
O2    O     O_R   0.314910 0.383960 0.499990 -0.635880
O3    O     O_R   0.500140 0.616020 0.428740 -0.630312
O4    O     O_R   0.500140 0.383980 0.428740 -0.628368
O5    O     O_R   0.685320 0.616040 0.499970 -0.623324
O6    O     O_R   0.685320 0.383960 0.499970 -0.641129
O7    O     O_R   0.500090 0.616050 0.571230 -0.578722
O8    O     O_R   0.500090 0.383950 0.571230 -0.578391
O9    O     O_2   0.258390 0.515618 0.198904 -0.547498
O10   O     O_2   0.262010 0.531809 0.798013 -0.552019
O11   O     O_2   0.693209 0.426440 0.200998 -0.552149
O12   O     O_2   0.678750 0.376638 0.799831 -0.489791
Zn1   Zn    Zn3+2 0.500150 0.654960 0.499980 0.939275
Zn2   Zn    Zn3+2 0.500150 0.345040 0.499980 0.931527
H33   H     H_    0.754172 0.274794 0.968176 0.160990
O13   O     O_3   0.784463 0.288677 0.877516 -0.556468
C55   C     C_3   0.884860 0.381731 0.885214 -0.215787
H34   H     H_    0.857819 0.487913 0.874468 0.162267
H35   H     H_    0.964704 0.351827 0.862640 0.207970
H36   H     H_    0.919182 0.378489 0.923130 0.122210
H37   H     H_    0.588160 0.122297 0.431151 0.169947
H38   H     H_    0.573716 0.889833 0.429053 0.166444
O14   O     O_3   0.574030 0.143486 0.586792 -0.608842
C56   C     C_3   0.700628 0.183638 0.581277 -0.142565
H39   H     H_    0.736035 0.180495 0.545211 0.123294
H40   H     H_    0.761718 0.122433 0.605925 0.143260
H41   H     H_    0.711755 0.290187 0.593555 0.171453
O15   O     O_3   0.614370 0.854131 0.577517 -0.584698
C57   C     C_3   0.740061 0.876661 0.564094 -0.246742
H42   H     H_    0.754966 0.962235 0.539126 0.103884
H43   H     H_    0.778191 0.783704 0.548689 0.179915
H44   H     H_    0.797981 0.894786 0.596931 0.165616
H45   H     H_    0.444641 0.260326 0.735807 0.156765
H46   H     H_    0.152393 0.512927 0.961712 0.134701

loop_
_geom_bond_atom_site_label_1
_geom_bond_atom_site_label_2
_ccdc_geom_bond_type
C10   C27   A    
C43   H19   S    
C21   C26   A    
C43   H18   S    
C6    H28   S    
C40   H17   S    
C49   N4    S    
O3    Zn1   S    
C56   H39   S    
C46   N3    S    
C52   C53   A    
C50   O9    S    
C23   C42   S    
C40   H16   S    
C28   C29   A    
C38   C42   S    
C5    C6    A    
C19   O12   S    
C9    C22   A    
O13   C55   S    
C15   C16   A    
C34   O7    A    
C23   O6    A    
C18   C19   A    
C48   H24   S    
C44   H22   S    
O15   C57   S    
C34   O8    A    
C54   H1    S    
C40   C43   S    
C16   C17   A    
C55   H34   S    
C53   H32   S    
C36   H9    S    
C16   C20   A    
O4    Zn2   S    
C1    O1    A    
C21   C22   A    
C27   C30   A    
C55   H35   S    
C12   O4    A    
C36   C41   S    
C44   N3    S    
C4    C7    A    
C4    C28   A    
O5    Zn1   S    
C37   H8    S    
C39   C42   S    
C57   H43   S    
C7    C31   A    
C3    N1    S    
C24   H4    S    
C14   H46   S    
C24   C25   A    
C19   N2    A    
C2    C54   A    
C8    C54   A    
C25   C26   A    
C49   H25   S    
C35   H6    S    
C21   H45   S    
C49   O15   S    
C20   O10   S    
C38   H11   S    
C8    C12   S    
C17   C18   A    
C39   H15   S    
C30   H31   S    
C44   H20   S    
C45   N4    S    
C45   H21   S    
O7    Zn1   S    
C50   N1    A    
C1    C41   S    
C48   C49   S    
C6    C30   A    
C38   H14   S    
C11   C32   A    
C2    H13   S    
C1    O2    A    
C32   H33   S    
O6    Zn2   S    
N3    Zn2   S    
C10   C14   A    
C9    C34   S    
C47   N4    S    
C31   C35   A    
C12   O3    A    
C42   C43   S    
C51   N1    A    
C36   H7    S    
C37   H10   S    
C44   C45   S    
O14   C56   S    
C57   H44   S    
C46   C47   S    
C40   C41   S    
C33   O13   S    
O1    Zn1   S    
C4    C5    A    
C10   C13   A    
C8    C53   A    
C56   H40   S    
C3    C52   A    
C9    C24   A    
C15   H30   S    
C51   O11   S    
C29   C35   A    
C13   C17   A    
C55   H36   S    
C32   C33   A    
C31   H3    S    
C36   C38   S    
C2    C3    A    
C7    C51   A    
C37   C39   S    
C22   H29   S    
C46   H26   S    
C11   C13   A    
O8    Zn2   S    
C20   N2    A    
C39   H12   S    
C23   O5    A    
C47   H27   S    
C37   C41   S    
C5    C50   A    
C18   C33   A    
N4    Zn1   S    
C56   H41   S    
O2    Zn2   S    
C52   H2    S    
C11   C29   A    
C26   N2    S    
C57   H42   S    
C27   C28   A    
C14   C15   A    
C45   H23   S    
C25   H5    S    
C46   H37   S    
C48   N3    S    
C47   H38   S    
C48   O14   S    
