data_mof_unit_34866.cif
_audit_creation_date              2012-12-10T17:02:18-0500
_audit_creation_method            fapswitch 2.2
_symmetry_space_group_name_H-M    P1
_symmetry_Int_Tables_number       1
_space_group_crystal_system       triclinic
_cell_length_a                    10.713612
_cell_length_b                    10.73956
_cell_length_c                    10.06454
_cell_angle_alpha                 91.095162
_cell_angle_beta                  87.586462
_cell_angle_gamma                 90.667878
_cell_volume                      1156.71385122

loop_
_atom_site_label
_atom_site_type_symbol
_atom_type_description
_atom_site_fract_x
_atom_site_fract_y
_atom_site_fract_z
_atom_type_partial_charge
C1    C     C_R   0.497250 0.262931 0.498994 0.934392
C2    C     C_2   0.484670 0.131560 0.497826 -0.325350
C3    C     C_2   0.422280 0.559451 0.929856 -0.165422
C4    C     C_R   0.259329 0.495212 0.503782 0.874480
C5    C     C_2   0.440909 0.577526 0.075843 -0.040445
C6    C     C_R   0.500423 0.737355 0.500732 0.931538
C7    C     C_R   0.739554 0.509366 0.497597 0.887489
C8    C     C_R   0.097601 0.561474 0.751668 -0.304559
C9    C     C_R   0.027753 0.627046 0.850227 0.225482
C10   C     C_R   0.916823 0.685943 0.817407 0.120701
C11   C     C_R   0.877918 0.675046 0.684438 0.094463
C12   C     C_R   0.054362 0.544093 0.621947 0.023956
C13   C     C_R   0.933599 0.582342 0.598707 0.075159
C14   C     C_3   0.523008 0.372174 0.103658 -0.131845
C15   C     C_3   0.401077 0.296726 0.100170 -0.836636
C16   C     C_3   0.089045 0.535617 0.055830 -0.816588
C17   C     C_3   0.842455 0.761231 0.923239 -0.415788
C18   C     C_3   0.792613 0.681232 0.038659 -0.798033
C19   C     C_3   0.802860 0.780509 0.629047 -0.441900
C20   C     C_3   0.832407 0.810683 0.482577 -0.857133
C21   C     C_R   0.124750 0.489901 0.512958 -0.078576
C22   C     C_R   0.065534 0.445068 0.400471 -0.230361
C23   C     C_R   0.938927 0.457442 0.392589 -0.229805
C24   C     C_R   0.872629 0.523745 0.492197 -0.072353
C25   C     C_2   0.504387 0.931447 0.388078 -0.154516
C26   C     C_2   0.510549 0.869380 0.501533 -0.334133
C27   C     C_2   0.512782 0.065437 0.387557 -0.178089
H1    H     H_    0.117089 0.397739 0.319841 0.162105
H2    H     H_    0.541529 0.109655 0.294826 0.165039
H3    H     H_    0.344202 0.310581 0.193873 0.274377
H4    H     H_    0.345554 0.325049 0.015468 0.242448
H5    H     H_    0.422433 0.196181 0.087436 0.214764
H6    H     H_    0.578183 0.359663 0.010362 0.122858
H7    H     H_    0.585668 0.329010 0.173465 0.193325
H8    H     H_    0.156609 0.701038 0.975980 0.210214
H9    H     H_    0.118349 0.563362 0.156593 0.257640
H10   H     H_    0.160901 0.472930 0.009798 0.231274
H11   H     H_    0.998295 0.484788 0.065247 0.250755
H12   H     H_    0.449358 0.090511 0.589680 0.148402
H13   H     H_    0.759750 0.588965 0.001978 0.239414
H14   H     H_    0.865266 0.667988 0.112119 0.278760
H15   H     H_    0.712970 0.728756 0.091666 0.235491
H16   H     H_    0.901916 0.837972 0.962122 0.206334
H17   H     H_    0.759443 0.804570 0.882026 0.192232
H18   H     H_    0.934962 0.812983 0.461118 0.263917
H19   H     H_    0.787651 0.742915 0.414812 0.256881
H20   H     H_    0.794867 0.903797 0.461003 0.254481
H21   H     H_    0.702983 0.761630 0.647782 0.229950
H22   H     H_    0.825029 0.868303 0.683799 0.202233
H23   H     H_    0.342679 0.602052 0.887570 0.149221
H24   H     H_    0.591385 0.502861 0.883476 0.180240
H25   H     H_    0.397054 0.657545 0.124835 0.127924
H26   H     H_    0.179641 0.516395 0.783095 0.196826
H27   H     H_    0.892632 0.413243 0.310077 0.160156
H28   H     H_    0.495159 0.883836 0.292690 0.166724
H29   H     H_    0.528749 0.914019 0.596330 0.144943
N1    N     N_2   0.501340 0.501330 0.852150 -0.194872
N2    N     N_2   0.501380 0.501360 0.147810 -0.080875
N3    N     N_2   0.076827 0.646408 0.978173 -0.299540
O1    O     O_R   0.499980 0.319060 0.613040 -0.609423
O2    O     O_R   0.500020 0.319100 0.386900 -0.629540
O3    O     O_R   0.316750 0.499980 0.613090 -0.629417
O4    O     O_R   0.316790 0.500020 0.386950 -0.617584
O5    O     O_R   0.499980 0.680900 0.613100 -0.630974
O6    O     O_R   0.500020 0.680940 0.386960 -0.618230
O7    O     O_R   0.683210 0.499980 0.613050 -0.617267
O8    O     O_R   0.683250 0.500020 0.386910 -0.633226
Zn1   Zn    Zn3+2 0.499970 0.499970 0.650990 0.928014
Zn2   Zn    Zn3+2 0.500030 0.500030 0.349010 0.917879

loop_
_geom_bond_atom_site_label_1
_geom_bond_atom_site_label_2
_ccdc_geom_bond_type
C8    H26   S    
C14   H7    S    
O7    Zn1   S    
C23   C24   A    
C17   H16   S    
C5    H25   S    
C15   H4    S    
C2    C27   D    
H24   N1    S    
C4    O3    A    
C25   C27   S    
C9    C10   A    
C19   H22   S    
C19   C20   S    
O3    Zn1   S    
C16   H10   S    
C8    C12   A    
C14   H6    S    
C17   C18   S    
C17   H17   S    
C15   H5    S    
N2    Zn2   S    
C22   H1    S    
C21   C22   A    
C16   H9    S    
C7    O7    A    
O8    Zn2   S    
C4    C21   S    
C11   C13   A    
C4    O4    A    
C11   C19   S    
C6    C26   S    
C26   H29   S    
C5    N2    D    
C15   H3    S    
O6    Zn2   S    
C3    N1    D    
C6    O6    A    
C3    H23   S    
C25   H28   S    
C18   H15   S    
O4    Zn2   S    
C14   N2    S    
C18   H14   S    
C20   H20   S    
C27   H2    S    
C10   C11   A    
C2    H12   S    
C10   C17   S    
C7    O8    A    
C7    C24   S    
O5    Zn1   S    
C16   H11   S    
C12   C13   A    
O1    Zn1   S    
C23   H27   S    
H8    N3    S    
C1    C2    S    
C1    O1    A    
O2    Zn2   S    
C18   H13   S    
C14   C15   S    
N1    Zn1   S    
C9    N3    S    
C25   C26   D    
C22   C23   A    
C12   C21   A    
C19   H21   S    
C20   H19   S    
C20   H18   S    
C13   C24   A    
C6    O5    A    
C8    C9    A    
C3    C5    S    
C16   N3    S    
C1    O2    A    
