data_mof_unit_5284.cif
_audit_creation_date              2012-12-11T17:03:23-0500
_audit_creation_method            fapswitch 2.2
_symmetry_space_group_name_H-M    P1
_symmetry_Int_Tables_number       1
_space_group_crystal_system       triclinic
_cell_length_a                    16.626532
_cell_length_b                    7.26399
_cell_length_c                    15.266137
_cell_angle_alpha                 89.938694
_cell_angle_beta                  94.313604
_cell_angle_gamma                 89.885054
_cell_volume                      1838.53920713

loop_
_atom_site_label
_atom_site_type_symbol
_atom_type_description
_atom_site_fract_x
_atom_site_fract_y
_atom_site_fract_z
_atom_type_partial_charge
O1    O     O_R   0.413460 0.494300 0.415980 -0.534423
O2    O     O_R   0.586540 0.994300 0.584020 -0.525176
O3    O     O_R   0.577100 0.822370 0.413730 -0.536322
O4    O     O_R   0.422900 0.322370 0.586270 -0.529491
C1    C     C_R   0.602515 0.655326 0.392689 0.710719
C2    C     C_R   0.397602 0.155336 0.607443 0.735596
O5    O     O_R   0.413490 0.823910 0.405510 -0.505998
O6    O     O_R   0.586510 0.323910 0.594490 -0.507129
O7    O     O_R   0.421770 0.995890 0.575740 -0.529499
O8    O     O_R   0.578230 0.495890 0.424260 -0.538592
C3    C     C_R   0.385954 0.654946 0.383822 0.743911
C4    C     C_R   0.614544 0.154948 0.615676 0.723757
O9    O     O_3   0.502910 0.661350 0.555860 -0.354015
O10   O     O_3   0.497090 0.161350 0.444140 -0.370426
V1    V     V_3+5 0.499460 0.935550 0.489640 1.539799
V2    V     V_3+5 0.500540 0.435550 0.510360 1.534405
C5    C     C_R   0.723059 0.978588 0.706329 -0.192191
C6    C     C_R   0.286091 0.478121 0.282038 -0.218385
C7    C     C_R   0.687408 0.143434 0.678743 -0.203135
C8    C     C_R   0.319368 0.642932 0.313169 -0.241200
C9    C     C_R   0.721609 0.295903 0.725377 0.480257
C10   C     C_R   0.273598 0.796740 0.283514 0.474770
C11   C     C_R   0.804167 0.283391 0.759097 0.498001
C12   C     C_R   0.224723 0.781576 0.202464 0.498569
C13   C     C_R   0.823285 0.120935 0.808713 -0.254320
C14   C     C_R   0.180687 0.619641 0.186018 -0.232597
C15   C     C_R   0.782118 0.967913 0.774356 -0.174909
C16   C     C_R   0.214011 0.468807 0.231031 -0.226720
C17   C     C_3   0.778730 0.764559 0.780451 0.531221
C18   C     C_3   0.220833 0.268046 0.219779 0.596188
C19   C     C_3   0.707874 0.778287 0.705798 0.577937
C20   C     C_3   0.290991 0.276773 0.294431 0.600231
C21   C     C_1   0.165883 0.120080 0.831636 -0.173569
C22   C     C_1   0.834225 0.620323 0.168502 -0.167731
C23   C     C_1   0.219021 0.128235 0.780598 0.009595
C24   C     C_1   0.781095 0.628386 0.219554 0.012367
C25   C     C_1   0.281772 0.138162 0.720742 0.011319
C26   C     C_1   0.718373 0.638146 0.279445 0.012474
C27   C     C_1   0.334839 0.146369 0.669617 -0.168012
C28   C     C_1   0.665316 0.646272 0.330582 -0.169324
O11   O     O_R   0.921840 0.772560 0.075830 -0.526945
O12   O     O_R   0.078160 0.272560 0.924170 -0.531281
O13   O     O_R   0.086520 0.441250 0.094510 -0.530925
O14   O     O_R   0.913480 0.941250 0.905490 -0.521123
C29   C     C_R   0.114084 0.609349 0.115831 0.759437
C30   C     C_R   0.887664 0.110239 0.881922 0.701951
O15   O     O_R   0.922920 0.442940 0.086290 -0.541512
O16   O     O_R   0.077080 0.942940 0.913710 -0.536472
O17   O     O_R   0.913440 0.271120 0.915960 -0.534339
O18   O     O_R   0.086560 0.771120 0.084040 -0.507304
C31   C     C_R   0.897206 0.611417 0.106617 0.717696
C32   C     C_R   0.102913 0.111306 0.893527 0.725627
O19   O     O_3   0.997130 0.604020 0.944190 -0.374430
O20   O     O_3   0.002870 0.104020 0.055810 -0.364414
V3    V     V_3+5 0.000530 0.329760 0.010360 1.489066
V4    V     V_3+5 0.999470 0.829760 0.989640 1.519803
O21   O     O_3   0.671580 0.414135 0.765972 -0.528156
C33   C     C_3   0.626580 0.320232 0.826934 -0.189728
H1    H     H_    0.576400 0.242142 0.792606 0.098349
H2    H     H_    0.598669 0.423420 0.868752 0.179967
H3    H     H_    0.665326 0.229762 0.871390 0.117720
O22   O     O_3   0.244737 0.904035 0.348108 -0.527307
C34   C     C_3   0.178289 0.817448 0.384192 -0.198955
H4    H     H_    0.126243 0.802918 0.334580 0.120227
H5    H     H_    0.157828 0.904807 0.437734 0.174251
H6    H     H_    0.195141 0.681544 0.413748 0.137226
O23   O     O_3   0.856171 0.342280 0.696784 -0.535486
C35   C     C_3   0.938930 0.307916 0.718539 -0.160113
H7    H     H_    0.952371 0.158962 0.724778 0.067419
H8    H     H_    0.961181 0.385957 0.777809 0.171089
H9    H     H_    0.973234 0.357530 0.663663 0.138649
O24   O     O_3   0.247098 0.871355 0.128926 -0.528299
C36   C     C_3   0.322797 0.805121 0.105706 -0.236205
H10   H     H_    0.324236 0.652499 0.100867 0.133157
H11   H     H_    0.372289 0.854462 0.152854 0.144321
H12   H     H_    0.334141 0.860198 0.039989 0.183432
I1    I     I_    0.753032 0.682455 0.911271 -0.412064
I2    I     I_    0.254761 0.253002 0.084324 -0.384767
O25   O     O_3   0.848330 0.668730 0.754952 -0.529486
C37   C     C_3   0.905204 0.772494 0.710553 -0.137848
H13   H     H_    0.941961 0.677231 0.673536 0.149786
H14   H     H_    0.947488 0.844107 0.758312 0.126996
H15   H     H_    0.877173 0.870098 0.661215 0.135037
O26   O     O_3   0.155205 0.151232 0.238273 -0.530764
C38   C     C_3   0.091413 0.237662 0.279133 -0.172134
H16   H     H_    0.049364 0.306584 0.229985 0.149662
H17   H     H_    0.112008 0.336458 0.331331 0.122456
H18   H     H_    0.056468 0.129646 0.310753 0.140211
O27   O     O_3   0.628844 0.724589 0.727103 -0.504889
C39   C     C_3   0.588491 0.841310 0.783762 -0.145195
H19   H     H_    0.629062 0.919136 0.830939 0.107263
H20   H     H_    0.549474 0.755082 0.822902 0.150674
H21   H     H_    0.548233 0.936856 0.744508 0.111982
O28   O     O_3   0.361125 0.175965 0.274287 -0.539201
C40   C     C_3   0.421833 0.279619 0.236714 -0.195377
H22   H     H_    0.398219 0.382131 0.187397 0.117971
H23   H     H_    0.460257 0.183027 0.202076 0.143848
H24   H     H_    0.461505 0.347536 0.288179 0.158427
I3    I     I_    0.733306 0.666795 0.580392 -0.322353
I4    I     I_    0.262747 0.255623 0.431297 -0.384586

loop_
_geom_bond_atom_site_label_1
_geom_bond_atom_site_label_2
_ccdc_geom_bond_type
C20   O28   S    
C34   H5    S    
C15   C17   S    
C36   H10   S    
C40   H22   S    
O1    C3    A    
O2    C4    A    
C2    O7    A    
O21   C33   S    
C40   H24   S    
C38   H16   S    
C21   C32   S    
O5    C3    A    
C30   O17   A    
C22   C31   S    
C23   C25   S    
C12   C14   A    
C38   H18   S    
C33   H2    S    
C11   O23   S    
C14   C29   S    
C21   C23   T    
C35   H7    S    
C19   O27   S    
O10   V2    S    
C19   I3    S    
C18   C20   S    
C22   C24   T    
C33   H3    S    
O5    V1    S    
C34   H6    S    
O6    V2    S    
C36   H11   S    
C37   H15   S    
O14   C30   A    
C38   H17   S    
C25   C27   T    
C3    C8    S    
C34   H4    S    
O23   C35   S    
C5    C15   A    
C6    C16   A    
O26   C38   S    
O4    C2    A    
C37   H13   S    
O15   C31   A    
C33   H1    S    
O17   V3    S    
O18   V4    S    
C20   I4    S    
O4    V2    S    
O11   V4    S    
C9    O21   S    
O22   C34   S    
O12   V3    S    
C10   O22   S    
O14   V4    S    
C39   H20   S    
C17   O25   S    
O6    C4    A    
O1    V2    S    
O2    V1    S    
O13   C29   A    
O13   V3    S    
C8    C10   A    
O9    V1    S    
C5    C19   S    
C36   H12   S    
C10   C12   A    
C1    C28   S    
C6    C20   S    
O3    V1    S    
C12   O24   S    
C39   H21   S    
O15   V3    S    
O19   V4    S    
O16   V4    S    
O20   V3    S    
C7    C9    A    
O10   V1    S    
O24   C36   S    
O3    C1    A    
C40   H23   S    
C13   C15   A    
C14   C16   A    
C9    C11   A    
O7    V1    S    
C1    O8    A    
C17   C19   S    
O8    V2    S    
C26   C28   T    
C39   H19   S    
C29   O18   A    
C35   H9    S    
C4    C7    S    
C24   C26   S    
C5    C7    A    
C37   H14   S    
C16   C18   S    
C6    C8    A    
C11   C13   A    
C18   O26   S    
O28   C40   S    
O25   C37   S    
C18   I2    S    
O16   C32   A    
C17   I1    S    
C35   H8    S    
O9    V2    S    
C2    C27   S    
O27   C39   S    
C13   C30   S    
O11   C31   A    
O12   C32   A    
