data_mof_unit_58784.cif
_audit_creation_date              2012-12-10T16:45:21-0500
_audit_creation_method            fapswitch 2.2
_symmetry_space_group_name_H-M    P1
_symmetry_Int_Tables_number       1
_space_group_crystal_system       triclinic
_cell_length_a                    7.543511
_cell_length_b                    8.678507
_cell_length_c                    15.727382
_cell_angle_alpha                 94.354356
_cell_angle_beta                  76.316777
_cell_angle_gamma                 103.193864
_cell_volume                      973.72434763

loop_
_atom_site_label
_atom_site_type_symbol
_atom_type_description
_atom_site_fract_x
_atom_site_fract_y
_atom_site_fract_z
_atom_type_partial_charge
C1    C     C_R   0.544948 0.799795 0.502626 0.872889
C2    C     C_R   0.455052 0.200205 0.497373 0.872881
C3    C     C_R   0.291463 0.391847 0.080251 0.487753
C4    C     C_R   0.708458 0.608250 0.919756 0.487726
C5    C     C_R   0.157738 0.357944 0.028679 -0.285282
C6    C     C_R   0.842171 0.642236 0.971331 -0.285361
C7    C     C_2   0.569760 0.968059 0.503931 -0.330940
C8    C     C_2   0.430240 0.031942 0.496068 -0.330938
C9    C     C_R   0.385919 0.484390 0.666110 0.826560
C10   C     C_R   0.614082 0.515611 0.333889 0.826522
C11   C     C_R   0.319537 0.462302 0.761759 -0.274193
C12   C     C_R   0.680459 0.537735 0.238238 -0.274314
C13   C     C_R   0.072981 0.388464 0.891512 -0.154703
C14   C     C_R   0.926963 0.611780 0.108487 -0.154583
C15   C     C_R   0.129280 0.441762 0.805291 0.368637
C16   C     C_R   0.870714 0.558456 0.194702 0.368621
C17   C     C_R   0.447168 0.446479 0.810771 0.331012
C18   C     C_R   0.552789 0.553531 0.189241 0.331104
C19   C     C_R   0.396415 0.458514 0.902004 0.016485
C20   C     C_R   0.603538 0.541538 0.098003 0.016485
C21   C     C_R   0.207305 0.401322 0.941371 -0.056144
C22   C     C_R   0.792629 0.598836 0.058635 -0.056153
C23   C     C_R   0.527946 0.514518 0.954405 -0.025787
C24   C     C_R   0.472003 0.485529 0.045601 -0.025738
Cu1   Cu    Cu3+1 0.322120 0.483240 0.490330 1.023129
Cu2   Cu    Cu3+1 0.677880 0.516760 0.509670 1.023121
H1    H     H_    0.015208 0.298361 0.056849 0.150285
H2    H     H_    0.984678 0.701881 0.943163 0.150298
H3    H     H_    0.925546 0.351490 0.921428 0.185766
H4    H     H_    0.074386 0.648836 0.078566 0.185757
H5    H     H_    0.703964 0.039669 0.511393 0.188917
H6    H     H_    0.296037 0.960331 0.488607 0.188918
H7    H     H_    0.003816 0.616945 0.568951 0.228275
H8    H     H_    0.996185 0.383055 0.431048 0.228245
N1    N     N_2   0.945180 0.542040 0.524240 -0.187196
N2    N     N_2   0.054820 0.457960 0.475760 -0.187222
O1    O     O_R   0.384450 0.714270 0.493720 -0.580482
O2    O     O_R   0.615550 0.285730 0.506280 -0.580475
O3    O     O_R   0.684880 0.742590 0.510050 -0.578937
O4    O     O_R   0.315120 0.257410 0.489950 -0.578940
O5    O     O_R   0.265540 0.477900 0.617090 -0.580102
O6    O     O_R   0.734460 0.522100 0.382910 -0.580204
O7    O     O_R   0.565970 0.506210 0.633420 -0.524399
O8    O     O_R   0.434030 0.493790 0.366580 -0.524404
Br1   Br    Br    0.383773 0.690718 0.235546 -0.412959
Br2   Br    Br    0.616319 0.309375 0.764448 -0.412943
O9    O     O_3   0.003647 0.533006 0.234694 -0.640401
H9    H     H_    0.950374 0.434510 0.268172 0.330306
O10   O     O_3   0.996415 0.467265 0.765264 -0.640308
H10   H     H_    0.049689 0.565824 0.731843 0.330263
O11   O     O_3   0.250426 0.330258 0.162876 -0.701152
H11   H     H_    0.125876 0.257056 0.173279 0.322720
O12   O     O_3   0.749478 0.669827 0.837129 -0.701090
H12   H     H_    0.873902 0.743258 0.826776 0.322674

loop_
_geom_bond_atom_site_label_1
_geom_bond_atom_site_label_2
_ccdc_geom_bond_type
C19   C23   A    
C23   C24   A    
C2    O4    A    
C4    O12   S    
C10   O6    A    
C2    O2    A    
C9    O5    A    
O9    H9    S    
C10   O8    A    
C1    O1    A    
Cu1   O1    S    
C14   C22   A    
C13   C15   A    
C13   C21   A    
C7    C8    D    
Cu1   O5    S    
O12   H12   S    
C9    C11   S    
Cu2   O6    S    
C3    C24   A    
C10   C12   S    
C14   H4    S    
C6    H2    S    
C1    C7    S    
C16   O9    S    
C13   H3    S    
C19   C21   A    
C20   C22   A    
Cu2   O7    S    
H8    N2    S    
C15   O10   S    
Cu1   O4    S    
C14   C16   A    
Cu2   O3    S    
C9    O7    A    
C7    H5    S    
C1    O3    A    
Cu1   N2    S    
C17   C19   A    
O11   H11   S    
C8    H6    S    
C18   Br1   S    
C12   C16   A    
Cu2   N1    S    
C5    C21   A    
C17   Br2   S    
Cu1   O8    S    
C18   C20   A    
C4    C6    A    
O10   H10   S    
C12   C18   A    
C4    C23   A    
C3    O11   S    
Cu2   O2    S    
C2    C8    S    
H7    N1    S    
Cu1   Cu2   S    
C5    H1    S    
C11   C15   A    
C20   C24   A    
C11   C17   A    
N1    N2    D    
C3    C5    A    
C6    C22   A    
