data_mof_unit_11980.cif
_audit_creation_date              2013-03-05T16:10:28-0500
_audit_creation_method            fapswitch 2.2
_symmetry_space_group_name_H-M    P1
_symmetry_Int_Tables_number       1
_space_group_crystal_system       triclinic
_cell_length_a                    10.726597
_cell_length_b                    9.962575
_cell_length_c                    14.962294
_cell_angle_alpha                 91.244096
_cell_angle_beta                  91.601532
_cell_angle_gamma                 92.045754
_cell_volume                      1596.88239076

loop_
_atom_site_label
_atom_site_type_symbol
_atom_site_description
_atom_site_fract_x
_atom_site_fract_y
_atom_site_fract_z
_atom_type_partial_charge
O1    O     O_R   0.316770 0.614620 0.499990 -0.565466
O2    O     O_R   0.683230 0.385380 0.500010 -0.569827
O3    O     O_R   0.683230 0.614620 0.500010 -0.582540
O4    O     O_R   0.316770 0.385380 0.499990 -0.594609
C1    C     C_R   0.260455 0.497933 0.501131 0.998253
C2    C     C_R   0.739514 0.502125 0.498605 0.993776
O5    O     O_R   0.499980 0.614680 0.367850 -0.603452
O6    O     O_R   0.500020 0.385320 0.632150 -0.605609
O7    O     O_R   0.500020 0.614680 0.632150 -0.572487
O8    O     O_R   0.499980 0.385320 0.367850 -0.571256
C3    C     C_R   0.504540 0.499024 0.327477 0.918471
C4    C     C_R   0.495515 0.500940 0.672570 0.924092
Zn1   Zn    Zn3+2 0.500000 0.653120 0.500000 1.124457
Zn2   Zn    Zn3+2 0.500000 0.346880 0.500000 1.116257
C5    C     C_R   0.579477 0.579874 0.814808 -0.123439
C6    C     C_R   0.421572 0.420293 0.185172 -0.125341
C7    C     C_R   0.487984 0.503769 0.768074 -0.087522
C8    C     C_R   0.512960 0.496123 0.232082 -0.088598
C9    C     C_R   0.397435 0.426460 0.811936 -0.061606
C10   C     C_R   0.604207 0.573162 0.188552 -0.044842
C11   C     C_R   0.393167 0.437921 0.906068 0.001344
C12   C     C_R   0.608136 0.562924 0.094283 0.009712
C13   C     C_R   0.496125 0.503349 0.953487 0.086927
C14   C     C_R   0.504968 0.497917 0.046778 0.083134
C15   C     C_R   0.590172 0.574423 0.907308 0.039548
C16   C     C_R   0.410910 0.426541 0.092814 0.039355
C17   C     C_R   0.291092 0.384091 0.954117 -0.114623
C18   C     C_R   0.710110 0.616975 0.046166 -0.102763
C19   C     C_R   0.304253 0.369804 0.046897 -0.117370
C20   C     C_R   0.696850 0.631349 0.953236 -0.123115
H1    H     H_    0.648657 0.634163 0.776969 0.200401
H2    H     H_    0.352309 0.365565 0.222734 0.199366
C21   C     C_R   0.058350 0.397987 0.452050 0.178761
C22   C     C_R   0.941571 0.602488 0.547344 0.190454
C23   C     C_R   0.930021 0.405055 0.445879 0.239451
C24   C     C_R   0.069889 0.595489 0.553478 0.243005
C25   C     C_R   0.872215 0.506052 0.495062 -0.318322
C26   C     C_R   0.127712 0.494284 0.504443 -0.338336
C27   C     C_R   0.542928 0.075992 0.573148 0.240650
C28   C     C_R   0.457274 0.924027 0.426810 0.235123
C29   C     C_R   0.461885 0.066998 0.425631 0.247242
C30   C     C_R   0.538285 0.933000 0.574352 0.248274
N1    N     N_R   0.500000 0.857200 0.500000 -0.219438
N2    N     N_R   0.500000 0.142800 0.500000 -0.220512
C31   C     C_2   0.317953 0.324649 0.760271 0.968883
O9    O     O_2   0.315739 0.207297 0.782744 -0.514765
O10   O     O_R   0.244785 0.363076 0.687235 -0.766072
H3    H     H_    0.194338 0.284903 0.658381 0.370753
C32   C     C_2   0.684558 0.673755 0.240739 0.954049
O11   O     O_2   0.746014 0.639700 0.305871 -0.586397
O12   O     O_R   0.690041 0.807588 0.214376 -0.708841
H4    H     H_    0.747275 0.866573 0.254907 0.389217
C33   C     C_2   0.166004 0.356539 0.910312 0.971110
O13   O     O_2   0.118509 0.442735 0.864918 -0.536633
O14   O     O_R   0.103194 0.232677 0.920762 -0.710815
H5    H     H_    0.019374 0.226662 0.887618 0.387805
C34   C     C_2   0.835167 0.643769 0.090290 0.969142
O15   O     O_2   0.891487 0.751251 0.080848 -0.537627
O16   O     O_R   0.887501 0.545299 0.143310 -0.701942
H6    H     H_    0.971315 0.575611 0.171211 0.388740
C35   C     C_2   0.203023 0.301168 0.096148 1.005780
O17   O     O_2   0.104635 0.356601 0.107298 -0.542220
O18   O     O_R   0.220657 0.172600 0.128590 -0.667867
H7    H     H_    0.144698 0.135133 0.159758 0.408678
C36   C     C_2   0.798829 0.698577 0.903827 0.999584
O19   O     O_2   0.783094 0.808760 0.871748 -0.476018
O20   O     O_R   0.912811 0.636380 0.895473 -0.716696
H8    H     H_    0.975608 0.692926 0.861884 0.409720
N3    N     N_R   0.118054 0.297589 0.400612 0.250926
O21   O     O_R   0.141296 0.183242 0.436799 -0.271972
O22   O     O_R   0.122251 0.308501 0.314300 -0.332122
N4    N     N_R   0.881879 0.703102 0.598624 0.251213
O23   O     O_R   0.858490 0.817289 0.562267 -0.257736
O24   O     O_R   0.877270 0.692331 0.684918 -0.330617
N5    N     N_R   0.859217 0.311307 0.388177 0.262530
O25   O     O_R   0.786185 0.354477 0.325029 -0.306341
O26   O     O_R   0.869580 0.182587 0.397409 -0.266947
N6    N     N_R   0.140636 0.689784 0.610828 0.260801
O27   O     O_R   0.213310 0.647314 0.674423 -0.305795
O28   O     O_R   0.130469 0.818381 0.600851 -0.256519
N7    N     N_R   0.601228 0.149564 0.647116 0.256099
O29   O     O_R   0.559634 0.135665 0.727330 -0.281158
O30   O     O_R   0.708787 0.210859 0.637072 -0.315857
N8    N     N_R   0.399373 0.850481 0.352693 0.255899
O31   O     O_R   0.441884 0.863784 0.272688 -0.286277
O32   O     O_R   0.291653 0.789335 0.362361 -0.316857
N9    N     N_R   0.434255 0.130340 0.343310 0.251983
O33   O     O_R   0.319770 0.127127 0.312549 -0.269425
O34   O     O_R   0.523902 0.147281 0.287354 -0.281520
N10   N     N_R   0.565980 0.869664 0.656695 0.247491
O35   O     O_R   0.680393 0.873380 0.687672 -0.247462
O36   O     O_R   0.476225 0.852410 0.712526 -0.274890

loop_
_geom_bond_atom_site_label_1
_geom_bond_atom_site_label_2
_geom_bond_distance
_ccdc_geom_bond_type
N9    O33   1.298422 A    
C3    C8    1.432439 S    
C17   C19   1.402266 A    
C22   C25   1.404366 A    
C28   N8    1.430423 S    
O14   H5    1.013832 S    
O3    C2    1.291895 A    
N7    O29   1.300551 A    
N10   O35   1.298685 A    
C18   C34   1.491255 S    
O5    C3    1.292432 A    
C23   N5    1.439511 S    
O1    C1    1.291477 A    
C23   C25   1.405814 A    
C14   C16   1.416653 A    
N3    O21   1.300993 A    
N6    O28   1.301119 A    
C34   O16   1.398244 S    
C35   O18   1.396853 S    
N3    O22   1.300244 A    
O7    Zn1   2.022153 S    
C21   C23   1.381457 A    
C28   N1    1.370367 A    
C36   O20   1.397748 S    
C4    C7    1.433224 S    
C13   C14   1.398766 A    
C8    C10   1.405344 A    
O3    Zn1   2.015900 S    
C21   N3    1.429256 S    
C31   O10   1.395848 S    
C11   C17   1.422010 A    
O16   H6    1.013857 S    
C12   C18   1.422527 A    
C1    C26   1.425322 S    
O2    C2    1.292030 A    
N7    O30   1.299986 A    
C27   C30   1.424180 A    
C33   O14   1.398571 S    
C6    C16   1.386366 A    
C29   N9    1.424740 S    
C19   C35   1.484348 S    
O12   H4    1.013881 S    
N8    O31   1.300588 A    
C27   N7    1.430579 S    
N4    O24   1.300093 A    
O8    Zn2   2.022154 S    
N6    O27   1.300650 A    
O4    C1    1.292529 A    
C32   O12   1.398330 S    
C33   O13   1.222913 D    
O20   H8    1.013808 S    
C30   N10   1.425132 S    
N5    O25   1.300662 A    
C10   C32   1.491188 S    
N10   O36   1.301411 A    
O10   H3    1.013900 S    
O6    C4    1.292382 A    
C17   C33   1.490637 S    
C2    C25   1.425067 S    
N5    O26   1.301130 A    
C28   C29   1.423965 A    
C10   C12   1.413863 A    
C36   O19   1.222860 D    
C11   C13   1.425726 A    
C29   N2    1.375373 A    
C12   C14   1.426242 A    
O1    Zn1   1.989023 S    
C30   N1    1.375628 A    
C22   N4    1.429443 S    
Zn1   N1    2.033162 S    
Zn2   N2    2.033162 S    
C15   C20   1.412820 A    
C5    C7    1.382919 A    
O6    Zn2   2.005824 S    
C9    C11   1.412727 A    
N8    O32   1.300022 A    
N4    O23   1.300995 A    
C9    C31   1.490178 S    
C5    H1    1.082515 S    
C27   N2    1.370482 A    
C6    H2    1.082975 S    
C21   C26   1.404367 A    
C24   C26   1.406260 A    
C24   N6    1.439585 S    
C34   O15   1.223391 D    
C18   C20   1.404678 A    
C7    C9    1.404083 A    
C22   C24   1.381258 A    
C13   C15   1.416217 A    
O4    Zn2   2.015902 S    
C35   O17   1.222324 D    
O2    Zn2   1.989021 S    
O7    C4    1.295991 A    
C20   C36   1.485285 S    
C5    C15   1.387967 A    
O8    C3    1.295337 A    
O18   H7    1.013787 S    
C31   O9    1.223117 D    
O5    Zn1   2.005825 S    
C16   C19   1.411888 A    
C6    C8    1.382007 A    
C32   O11   1.222200 D    
N9    O34   1.301413 A    
