data_mof_unit_68429.cif
_audit_creation_date              2012-12-10T19:48:35-0500
_audit_creation_method            fapswitch 2.2
_symmetry_space_group_name_H-M    P1
_symmetry_Int_Tables_number       1
_space_group_crystal_system       triclinic
_cell_length_a                    10.993248
_cell_length_b                    10.60423
_cell_length_c                    9.511314
_cell_angle_alpha                 90.974617
_cell_angle_beta                  92.820098
_cell_angle_gamma                 88.32366
_cell_volume                      1106.82938139

loop_
_atom_site_label
_atom_site_type_symbol
_atom_type_description
_atom_site_fract_x
_atom_site_fract_y
_atom_site_fract_z
_atom_type_partial_charge
C1    C     C_R   0.498990 0.259746 0.498936 0.774585
C2    C     C_R   0.501006 0.740254 0.501064 0.774582
C3    C     C_R   0.871982 0.494005 0.506836 -0.078753
C4    C     C_R   0.128020 0.505990 0.493164 -0.078748
C5    C     C_R   0.949876 0.436283 0.611400 0.056750
C6    C     C_R   0.050127 0.563711 0.388600 0.056723
C7    C     C_3   0.425962 0.046096 0.597826 -0.187966
C8    C     C_3   0.574028 0.953903 0.402172 -0.187986
C9    C     C_3   0.540992 0.961590 0.628145 -0.129360
C10   C     C_3   0.458999 0.038410 0.371854 -0.129343
C11   C     C_3   0.501405 0.877396 0.502522 0.043541
C12   C     C_3   0.498586 0.122603 0.497477 0.043530
C13   C     C_3   0.386573 0.959608 0.472193 -0.195846
C14   C     C_3   0.613419 0.040391 0.527805 -0.195848
C15   C     C_3   0.589361 0.561445 0.054794 0.313433
C16   C     C_3   0.410639 0.438555 0.945206 0.313442
C17   C     C_3   0.490375 0.612211 0.953463 0.316378
C18   C     C_3   0.509625 0.387790 0.046537 0.316366
C19   C     C_3   0.600672 0.447963 0.952205 -0.190500
C20   C     C_3   0.399327 0.552038 0.047794 -0.190481
C21   C     C_R   0.262340 0.505760 0.496839 0.774093
C22   C     C_R   0.737660 0.494237 0.503161 0.774099
C23   C     C_R   0.085747 0.819657 0.123136 -0.217925
C24   C     C_R   0.914345 0.180316 0.876855 -0.217938
C25   C     C_R   0.075703 0.762545 0.254317 0.497256
C26   C     C_R   0.924366 0.237440 0.745673 0.497255
C27   C     C_R   0.089804 0.629793 0.264351 0.012700
C28   C     C_R   0.910203 0.370186 0.735641 0.012720
C29   C     C_R   0.103546 0.557527 0.141485 -0.216376
C30   C     C_R   0.896424 0.442443 0.858505 -0.216402
C31   C     C_R   0.105686 0.614975 0.010597 -0.164684
C32   C     C_R   0.894294 0.384988 0.989391 -0.164736
C33   C     C_R   0.095763 0.745664 0.001493 -0.266088
C34   C     C_R   0.904271 0.254302 0.998495 -0.266038
C35   C     C_R   0.924428 0.554182 0.396108 -0.253523
C36   C     C_R   0.075575 0.445805 0.603886 -0.253431
Cu1   Cu    Cu3+1 0.500030 0.499990 0.643150 0.951460
Cu2   Cu    Cu3+1 0.499970 0.500010 0.356850 0.951465
H1    H     H_    0.097098 0.789519 0.899942 0.169558
H2    H     H_    0.902942 0.210443 0.100045 0.169552
H3    H     H_    0.673865 0.393078 0.903125 0.180670
H4    H     H_    0.326124 0.606910 0.096871 0.180674
H5    H     H_    0.081809 0.921213 0.114304 0.151780
H6    H     H_    0.918349 0.078761 0.885692 0.151787
H7    H     H_    0.105837 0.455959 0.147196 0.165146
H8    H     H_    0.894096 0.544010 0.852796 0.165148
H9    H     H_    0.116609 0.558298 0.916265 0.188988
H10   H     H_    0.883338 0.441660 0.083721 0.188994
H11   H     H_    0.866434 0.595303 0.313011 0.167861
H12   H     H_    0.133571 0.404667 0.686972 0.167842
H13   H     H_    0.576257 0.928342 0.732760 0.148562
H14   H     H_    0.423735 0.071658 0.267239 0.148565
H15   H     H_    0.365369 0.087097 0.677760 0.121776
H16   H     H_    0.634615 0.912894 0.322238 0.121769
H17   H     H_    0.294022 0.923230 0.448676 0.161705
H18   H     H_    0.705971 0.076768 0.551319 0.161705
N1    N     N_3   0.500090 0.499970 0.858290 -0.223513
N2    N     N_3   0.499910 0.500030 0.141710 -0.223516
O1    O     O_R   0.500060 0.316850 0.620870 -0.605519
O2    O     O_R   0.499940 0.683150 0.379130 -0.605519
O3    O     O_R   0.500000 0.316860 0.379090 -0.540104
O4    O     O_R   0.500000 0.683140 0.620910 -0.540106
O5    O     O_R   0.319670 0.500010 0.620890 -0.582153
O6    O     O_R   0.680330 0.499990 0.379110 -0.582153
O7    O     O_R   0.319620 0.500010 0.379110 -0.578724
O8    O     O_R   0.680380 0.499990 0.620890 -0.578727
N3    N     N_2   0.482619 0.739362 0.899900 -0.400213
H19   H     H_    0.532506 0.802823 0.960109 0.238099
C37   C     C_3   0.360749 0.787584 0.866854 -0.690982
H20   H     H_    0.317811 0.816605 0.965717 0.215546
H21   H     H_    0.305731 0.715922 0.808037 0.259937
H22   H     H_    0.364294 0.872148 0.800974 0.222458
N4    N     N_2   0.517382 0.260638 0.100096 -0.400218
H23   H     H_    0.467495 0.197178 0.039883 0.238097
C38   C     C_3   0.639252 0.212415 0.133139 -0.690952
H24   H     H_    0.682197 0.183414 0.034274 0.215553
H25   H     H_    0.635702 0.127839 0.198999 0.222430
H26   H     H_    0.694266 0.284069 0.191975 0.259942
N5    N     N_2   0.687020 0.634088 0.120000 -0.428263
H27   H     H_    0.662564 0.685809 0.207123 0.275453
C39   C     C_3   0.759001 0.704903 0.027340 -0.810473
H28   H     H_    0.856488 0.687598 0.056517 0.261704
H29   H     H_    0.738714 0.807626 0.039955 0.214221
H30   H     H_    0.741019 0.677878 0.915096 0.255462
N6    N     N_2   0.312980 0.365911 0.880003 -0.428264
H31   H     H_    0.337438 0.314185 0.792884 0.275436
C40   C     C_3   0.240998 0.295105 0.972668 -0.810459
H32   H     H_    0.143513 0.312403 0.943482 0.261700
H33   H     H_    0.258973 0.322144 0.084909 0.255480
H34   H     H_    0.261290 0.192380 0.960069 0.214190
O9    O     O_3   0.051439 0.835765 0.372204 -0.618585
C41   C     C_3   0.927263 0.877229 0.366487 0.091023
H35   H     H_    0.897564 0.885523 0.476059 0.177950
H36   H     H_    0.864652 0.809515 0.312077 0.116303
C42   C     C_3   0.909550 0.006362 0.298399 -0.841703
H37   H     H_    0.890559 0.994573 0.183352 0.207283
H38   H     H_    0.830415 0.057932 0.342176 0.225820
H39   H     H_    0.991533 0.063838 0.317217 0.263786
O10   O     O_3   0.948668 0.164244 0.627780 -0.618565
C43   C     C_3   0.072825 0.122716 0.633577 0.091056
H40   H     H_    0.135443 0.190417 0.688006 0.116265
H41   H     H_    0.102578 0.114402 0.524026 0.177843
C44   C     C_3   0.090439 0.993575 0.701686 -0.841592
H42   H     H_    0.008231 0.936300 0.683276 0.263577
H43   H     H_    0.169312 0.941756 0.657570 0.226045
H44   H     H_    0.109821 0.005407 0.816695 0.207159

loop_
_geom_bond_atom_site_label_1
_geom_bond_atom_site_label_2
_ccdc_geom_bond_type
C14   H18   S    
C40   H32   S    
C4    C36   A    
C27   C29   A    
N4    C38   S    
N4    H23   S    
C42   H37   S    
C9    H13   S    
C9    C14   S    
C10   H14   S    
Cu1   O4    S    
C42   H39   S    
N6    H31   S    
C19   N1    S    
C15   C19   S    
C33   H1    S    
C34   H2    S    
C24   C26   A    
C1    O1    A    
C2    O2    A    
C5    C36   A    
C17   C20   S    
C23   H5    S    
C6    C35   A    
C15   C17   S    
C18   C19   S    
C37   H21   S    
C22   O8    A    
C39   H29   S    
Cu2   N2    S    
C18   N2    S    
C15   N5    S    
C6    C27   S    
C23   C33   A    
C35   H11   S    
C31   C33   A    
C26   O10   S    
Cu2   O3    S    
C23   C25   A    
C31   H9    S    
C32   H10   S    
C1    C12   S    
C2    C11   S    
C43   H41   S    
Cu1   O5    S    
C39   H28   S    
Cu2   O6    S    
N6    C40   S    
C7    C12   S    
C25   O9    S    
C17   N3    S    
N3    H19   S    
C4    C6    A    
C8    H16   S    
O9    C41   S    
N5    C39   S    
C43   C44   S    
C24   C34   A    
C29   H7    S    
N3    C37   S    
C32   C34   A    
C37   H22   S    
C38   H24   S    
Cu1   Cu2   S    
C5    C28   S    
C38   H25   S    
O10   C43   S    
Cu2   O7    S    
C3    C35   A    
C16   C20   S    
Cu1   O8    S    
C41   H36   S    
C44   H43   S    
C9    C11   S    
Cu1   O1    S    
C10   C12   S    
Cu2   O2    S    
C16   C18   S    
C12   C14   S    
C18   N4    S    
C40   H33   S    
C16   N6    S    
C24   H6    S    
C15   N2    S    
C7    H15   S    
C20   N2    S    
C39   H30   S    
C36   H12   S    
C7    C9    S    
C8    C14   S    
C21   O7    A    
C30   H8    S    
C3    C5    A    
C10   C13   S    
C1    O3    A    
C20   H4    S    
C42   H38   S    
C25   C27   A    
C26   C28   A    
C28   C30   A    
C29   C31   A    
C30   C32   A    
C4    C21   S    
C11   C13   S    
C8    C11   S    
C41   H35   S    
C44   H44   S    
C16   N1    S    
C41   C42   S    
C37   H20   S    
C38   H26   S    
C21   O5    A    
C22   O6    A    
N5    H27   S    
C19   H3    S    
C7    C13   S    
C8    C10   S    
C40   H34   S    
C44   H42   S    
C3    C22   S    
C43   H40   S    
Cu1   N1    S    
C2    O4    A    
C17   N1    S    
C13   H17   S    
