data_mof_unit_16751.cif
_audit_creation_date              2012-12-10T18:58:12-0500
_audit_creation_method            fapswitch 2.2
_symmetry_space_group_name_H-M    P1
_symmetry_Int_Tables_number       1
_space_group_crystal_system       triclinic
_cell_length_a                    10.544284
_cell_length_b                    9.896601
_cell_length_c                    15.84333
_cell_angle_alpha                 89.938385
_cell_angle_beta                  91.066698
_cell_angle_gamma                 89.98573
_cell_volume                      1653.0046989

loop_
_atom_site_label
_atom_site_type_symbol
_atom_type_description
_atom_site_fract_x
_atom_site_fract_y
_atom_site_fract_z
_atom_type_partial_charge
C1    C     C_R   0.875385 0.500020 0.473709 -0.008241
C2    C     C_R   0.452600 0.385032 0.955131 -0.037387
C3    C     C_R   0.497703 0.500246 0.912756 -0.048209
C4    C     C_R   0.495295 0.501092 0.087210 -0.046530
C5    C     C_1   0.499148 0.499805 0.823330 -0.098775
C6    C     C_1   0.496313 0.500722 0.176660 -0.101064
C7    C     C_1   0.497679 0.500337 0.251414 -0.142101
C8    C     C_1   0.500046 0.499754 0.748591 -0.139516
C9    C     C_R   0.549189 0.072015 0.567492 0.173779
C10   C     C_R   0.450855 0.927991 0.432487 0.172332
C11   C     C_R   0.450874 0.072226 0.432472 0.178088
C12   C     C_R   0.124623 0.499951 0.526312 -0.007529
C13   C     C_R   0.549186 0.927781 0.567504 0.176323
C14   C     C_R   0.059568 0.375805 0.519775 -0.143578
C15   C     C_R   0.940453 0.624158 0.480234 -0.142516
C16   C     C_R   0.940515 0.375864 0.480240 -0.144194
C17   C     C_R   0.059482 0.624096 0.519799 -0.144223
C18   C     C_3   0.733883 0.170151 0.639495 -0.678450
C19   C     C_3   0.266259 0.829608 0.360513 -0.677933
C20   C     C_3   0.266674 0.171089 0.360011 -0.694737
C21   C     C_3   0.733434 0.828813 0.639839 -0.680267
C22   C     C_2   0.562981 0.744033 0.093885 0.513829
C23   C     C_R   0.260473 0.499987 0.511914 0.908017
C24   C     C_2   0.398639 0.269832 0.905426 0.542650
C25   C     C_2   0.596553 0.730825 0.907949 0.513261
C26   C     C_2   0.425357 0.258930 0.092699 0.519926
C27   C     C_2   0.111012 0.250903 0.560952 0.442350
C28   C     C_2   0.889091 0.749032 0.438974 0.437034
C29   C     C_2   0.889185 0.251115 0.439024 0.438101
C30   C     C_2   0.110750 0.748816 0.561085 0.441312
C31   C     C_R   0.739530 0.500009 0.488093 0.909270
C32   C     C_R   0.499270 0.500078 0.339560 0.913858
C33   C     C_R   0.500579 0.499925 0.660449 0.914124
C34   C     C_R   0.541042 0.616112 0.956175 -0.016584
C35   C     C_R   0.456835 0.383257 0.043911 -0.029493
C36   C     C_R   0.534043 0.618827 0.044713 -0.032996
H1    H     H_    0.563347 0.115431 0.696006 0.213499
H2    H     H_    0.220557 0.120065 0.305177 0.218189
H3    H     H_    0.250632 0.281291 0.352837 0.243192
H4    H     H_    0.220784 0.135710 0.418527 0.213692
H5    H     H_    0.563052 0.884548 0.696071 0.212839
H6    H     H_    0.779225 0.864023 0.581250 0.210613
H7    H     H_    0.749408 0.718613 0.647089 0.244077
H8    H     H_    0.779715 0.879908 0.694587 0.222945
H9    H     H_    0.605971 0.737428 0.156519 0.073092
H10   H     H_    0.437847 0.243325 0.844790 0.056950
H11   H     H_    0.559686 0.756297 0.845540 0.053406
H12   H     H_    0.750306 0.280254 0.646680 0.244432
H13   H     H_    0.380283 0.266818 0.153530 0.043975
H14   H     H_    0.080145 0.151123 0.542084 0.009234
H15   H     H_    0.920178 0.848810 0.457688 0.011008
H16   H     H_    0.920295 0.151280 0.457771 0.009818
H17   H     H_    0.079461 0.848649 0.542470 0.009269
H18   H     H_    0.779357 0.134871 0.580853 0.210188
H19   H     H_    0.780142 0.118644 0.694173 0.220541
H20   H     H_    0.436627 0.884750 0.303939 0.223220
H21   H     H_    0.219805 0.881338 0.305990 0.219711
H22   H     H_    0.220843 0.864454 0.419276 0.209807
H23   H     H_    0.250014 0.719512 0.353097 0.243440
H24   H     H_    0.437274 0.115708 0.303887 0.222807
N1    N     N_R   0.500000 0.857200 0.500000 -0.106457
N2    N     N_R   0.500000 0.142800 0.500000 -0.106600
N3    N     N_2   0.598773 0.143637 0.638403 -0.253081
N4    N     N_2   0.401321 0.856390 0.361549 -0.252326
N5    N     N_2   0.401699 0.144025 0.361393 -0.251963
N6    N     N_2   0.598428 0.855995 0.638562 -0.253557
O1    O     O_R   0.316770 0.614620 0.499990 -0.597454
O2    O     O_2   0.306340 0.207540 0.929862 -0.512029
O3    O     O_2   0.687646 0.793836 0.935773 -0.522377
O4    O     O_2   0.454716 0.147025 0.067290 -0.479285
O5    O     O_2   0.186196 0.258881 0.620343 -0.533032
O6    O     O_2   0.813765 0.741026 0.379666 -0.539780
O7    O     O_2   0.813846 0.259295 0.379721 -0.532411
O8    O     O_2   0.186212 0.740606 0.620318 -0.532000
O9    O     O_R   0.683230 0.385380 0.500010 -0.597175
O10   O     O_R   0.683230 0.614620 0.500010 -0.597376
O11   O     O_R   0.316770 0.385380 0.499990 -0.597754
O12   O     O_R   0.499980 0.614630 0.378020 -0.583584
O13   O     O_R   0.500020 0.385370 0.621980 -0.583271
O14   O     O_R   0.500020 0.614630 0.621980 -0.581654
O15   O     O_R   0.499980 0.385370 0.378020 -0.580295
O16   O     O_2   0.533704 0.855327 0.066544 -0.477170
Zn1   Zn    Zn3+2 0.500000 0.653120 0.500000 1.024971
Zn2   Zn    Zn3+2 0.500000 0.346880 0.500000 1.025781

loop_
_geom_bond_atom_site_label_1
_geom_bond_atom_site_label_2
_ccdc_geom_bond_type
C2    C35   A    
C4    C36   A    
O1    Zn1   S    
C21   N6    S    
C11   N2    A    
C31   O10   A    
C19   H21   S    
C32   O15   A    
C12   C23   S    
C22   O16   D    
O13   Zn2   S    
C30   O8    D    
C28   H15   S    
O9    Zn2   S    
C29   O7    D    
C1    C31   S    
C23   O1    A    
C9    C13   A    
C21   H7    S    
O12   Zn1   S    
C12   C17   A    
H20   N4    S    
C1    C15   A    
C14   C27   S    
C25   H11   S    
C27   H14   S    
C25   C34   S    
C4    C35   A    
C17   C30   S    
C28   O6    D    
O14   Zn1   S    
O10   Zn1   S    
H1    N3    S    
C13   N6    S    
C19   H22   S    
C30   H17   S    
C9    N2    A    
C20   N5    S    
C4    C6    S    
N1    Zn1   S    
C26   H13   S    
C20   H3    S    
C24   O2    D    
C33   O13   A    
C3    C34   A    
C19   H23   S    
C16   C29   S    
C21   H8    S    
C20   H2    S    
C31   O9    A    
C19   N4    S    
C1    C16   A    
C23   O11   A    
H5    N6    S    
C18   H19   S    
C12   C14   A    
H24   N5    S    
C2    C24   S    
C26   O4    D    
C14   C16   A    
C10   N1    A    
C25   O3    D    
O15   Zn2   S    
C27   O5    D    
C15   C17   A    
N2    Zn2   S    
C7    C32   S    
C9    N3    S    
C10   N4    S    
C3    C5    S    
C18   H12   S    
C5    C8    T    
C33   O14   A    
C6    C7    T    
C22   C36   S    
O11   Zn2   S    
C24   H10   S    
C2    C3    A    
C15   C28   S    
C20   H4    S    
C34   C36   A    
C8    C33   S    
C18   N3    S    
C10   C11   A    
C18   H18   S    
C32   O12   A    
C21   H6    S    
C26   C35   S    
C22   H9    S    
C13   N1    A    
C11   N5    S    
C29   H16   S    
