data_mof_unit_67173.cif
_audit_creation_date              2013-03-05T15:58:59-0500
_audit_creation_method            fapswitch 2.2
_symmetry_space_group_name_H-M    P1
_symmetry_Int_Tables_number       1
_space_group_crystal_system       triclinic
_cell_length_a                    8.214605
_cell_length_b                    12.71107
_cell_length_c                    15.11406
_cell_angle_alpha                 95.629212
_cell_angle_beta                  98.062075
_cell_angle_gamma                 99.794563
_cell_volume                      1527.70837822

loop_
_atom_site_label
_atom_site_type_symbol
_atom_site_description
_atom_site_fract_x
_atom_site_fract_y
_atom_site_fract_z
_atom_type_partial_charge
P1    P     P_3+3 0.998730 0.403530 0.291970 0.497896
O1    O     O_2   0.827880 0.435260 0.277750 -0.346495
O2    O     O_3   0.100280 0.438960 0.391170 -0.421961
O3    O     O_3   0.625580 0.634130 0.333250 -0.340119
O4    O     O_2   0.696718 0.555091 0.180313 -0.425630
O5    O     O_3   0.971929 0.264425 0.264708 -0.520710
O6    O     O_3   0.681473 0.756839 0.192429 -0.529391
H1    H     H_    0.639602 0.888406 0.269759 0.092342
C1    C     C_3   0.571614 0.898975 0.127167 0.216620
H2    H     H_    0.673790 0.970616 0.138361 0.108771
H3    H     H_    0.594240 0.850864 0.066456 0.157536
P2    P     P_3+3 0.687380 0.751030 0.571310 0.457059
P3    P     P_3+3 0.103875 0.827174 0.372794 0.451085
O7    O     O_2   0.857130 0.766340 0.543890 -0.387997
O8    O     O_3   0.056550 0.691050 0.379010 -0.386548
O9    O     O_2   0.990843 0.879045 0.430172 -0.383387
O10   O     O_3   0.730396 0.785097 0.688453 -0.549395
O11   O     O_3   0.038265 0.851647 0.262375 -0.518621
C2    C     C_3   0.060069 0.765334 0.202236 0.510263
H4    H     H_    0.975899 0.690009 0.210107 0.154815
H5    H     H_    0.190200 0.752278 0.214355 -0.002902
C3    C     C_3   0.020075 0.789243 0.105439 -0.880072
H6    H     H_    0.884117 0.786475 0.085920 0.257343
H7    H     H_    0.087021 0.870193 0.097559 0.286622
C4    C     C_3   0.275131 0.779670 0.650023 0.419357
H8    H     H_    0.373298 0.743077 0.622899 0.086854
H9    H     H_    0.160508 0.764909 0.598755 0.123131
C5    C     C_3   0.336417 0.900550 0.672451 -0.905219
H10   H     H_    0.457243 0.917143 0.719311 0.281424
H11   H     H_    0.355068 0.937538 0.610412 0.217171
H12   H     H_    0.242776 0.937838 0.704469 0.283640
Ba1   Ba    Ba6+2 0.843750 0.550210 0.455600 1.565357
C6    C     C_3   0.928048 0.209939 0.334736 0.385722
H13   H     H_    0.795953 0.214082 0.338286 0.105153
H14   H     H_    0.013677 0.243107 0.398524 0.117822
C7    C     C_3   0.943631 0.093255 0.312040 -0.869404
H15   H     H_    0.880864 0.062792 0.242455 0.265542
H16   H     H_    0.884899 0.042246 0.358441 0.231815
H17   H     H_    0.077488 0.087122 0.316642 0.256598
C8    C     C_3   0.775539 0.697824 0.729381 0.442408
H18   H     H_    0.891322 0.678752 0.707571 0.080526
H19   H     H_    0.674063 0.625863 0.712603 0.132942
C9    C     C_3   0.807213 0.728499 0.831100 -0.922709
H20   H     H_    0.913163 0.797674 0.850389 0.280267
H21   H     H_    0.838291 0.659816 0.865631 0.208423
H22   H     H_    0.693469 0.751044 0.853785 0.272954
P4    P     P_3+3 0.190990 0.596560 0.708040 0.465038
O12   O     O_2   0.361830 0.564780 0.722310 -0.357460
O13   O     O_3   0.089430 0.561130 0.608830 -0.414968
O14   O     O_3   0.564130 0.365960 0.666760 -0.367401
O15   O     O_3   0.241392 0.737252 0.728799 -0.545252
P5    P     P_3+3 0.093733 0.168627 0.613836 0.483310
O16   O     O_3   0.601940 0.368240 0.453770 -0.384267
O17   O     O_3   0.133170 0.309040 0.621000 -0.372003
O18   O     O_2   0.247849 0.129308 0.583421 -0.370951
O19   O     O_3   0.098901 0.135753 0.724943 -0.564045
Ba2   Ba    Ba6+2 0.346090 0.449880 0.544410 1.562714
P6    P     P_3+3 0.587452 0.631282 0.216663 0.432424
C10   C     C_3   0.581141 0.833739 0.207333 0.131446
H23   H     H_    0.453188 0.798893 0.216775 0.073091
O20   O     O_3   0.587780 0.631850 0.546230 -0.407264
C11   C     C_3   0.401728 0.302442 0.268898 0.457471
H24   H     H_    0.316363 0.336373 0.309568 0.100526
H25   H     H_    0.513828 0.364805 0.268684 0.139196
C12   C     C_3   0.310564 0.268919 0.172697 -0.990008
H26   H     H_    0.192968 0.211594 0.172701 0.305757
H27   H     H_    0.282597 0.339167 0.140425 0.216105
H28   H     H_    0.387703 0.229344 0.130708 0.271691
P7    P     P_3+3 0.503331 0.234666 0.419344 0.420071
O21   O     O_2   0.332590 0.233690 0.456160 -0.367982
O22   O     O_3   0.449633 0.211447 0.302176 -0.604089
H29   H     H_    0.058516 0.728677 0.058677 0.225646
C13   C     C_3   0.993954 0.191413 0.771119 1.125421
H30   H     H_    0.004007 0.275969 0.756244 -0.050073
C14   C     C_3   0.053383 0.202168 0.872143 -0.914524
H31   H     H_    0.181520 0.250422 0.890112 0.221459
H32   H     H_    0.969961 0.243952 0.908486 0.221150
H33   H     H_    0.047450 0.121456 0.895003 0.273385
P8    P     P_3+3 0.595320 0.373173 0.785630 0.485450
C15   C     C_3   0.520112 0.178115 0.842685 0.285541
H34   H     H_    0.658084 0.197922 0.862256 0.142903
O23   O     O_2   0.520210 0.470647 0.815644 -0.370723
O24   O     O_3   0.451578 0.269719 0.821699 -0.492631
H35   H     H_    0.480727 0.114247 0.784496 0.095893
C16   C     C_3   0.445481 0.124136 0.917745 -0.103475
H36   H     H_    0.309450 0.097738 0.896086 0.133519
H37   H     H_    0.466189 0.179255 0.981291 0.177262
C17   C     C_R   0.820965 0.427981 0.833017 0.238461
C18   C     C_R   0.888325 0.444748 0.926419 -0.222641
C19   C     C_R   0.037224 0.458005 0.110992 -0.264744
C20   C     C_R   0.883068 0.390385 0.075607 0.299374
C21   C     C_R   0.799239 0.401742 0.991842 0.418006
C22   C     C_R   0.105834 0.472188 0.204894 0.293336
C23   C     C_R   0.265507 0.534219 0.232800 -0.510367
C24   C     C_R   0.080868 0.533225 0.798139 0.236870
C25   C     C_R   0.147705 0.551077 0.892358 0.008885
C26   C     C_R   0.054254 0.502595 0.955642 -0.030947
C27   C     C_R   0.304589 0.616337 0.925960 -0.066975
C28   C     C_R   0.372350 0.628285 0.017530 -0.228618
C29   C     C_R   0.288006 0.575034 0.079866 0.000650
C30   C     C_R   0.125203 0.513932 0.049350 -0.007008
C31   C     C_R   0.361692 0.579391 0.171481 0.145082
C32   C     C_R   0.920327 0.470494 0.771196 -0.521748
H38   H     H_    0.496454 0.675017 0.038061 0.153427
H39   H     H_    0.378671 0.657804 0.881854 0.182546
H40   H     H_    0.320323 0.541021 0.302961 0.175415
H41   H     H_    0.868147 0.459402 0.700415 0.173160
C33   C     C_R   0.794518 0.173047 0.500516 -0.570960
C34   C     C_R   0.420665 0.806600 0.458698 -0.486899
C35   C     C_R   0.393765 0.983239 0.419957 -0.259695
C36   C     C_R   0.325149 0.875908 0.419070 0.210521
C37   C     C_R   0.584016 0.845058 0.504305 0.301968
C38   C     C_R   0.658984 0.954308 0.500998 -0.075722
C39   C     C_R   0.559824 0.024261 0.459711 -0.057421
C40   C     C_R   0.626410 0.135094 0.463674 0.245957
C41   C     C_R   0.895648 0.105764 0.538921 0.218634
C42   C     C_R   0.826369 0.997881 0.541330 -0.128515
H42   H     H_    0.314835 0.033800 0.389559 0.171034
H43   H     H_    0.901409 0.952687 0.581264 0.187118
H44   H     H_    0.843500 0.258532 0.506420 0.172462
H45   H     H_    0.363764 0.723360 0.458779 0.167831
O25   O     O_3   0.411834 0.925549 0.106434 -0.589148
C43   C     C_3   0.396481 0.012799 0.167514 -0.115900
H46   H     H_    0.499129 0.082568 0.169123 0.196934
H47   H     H_    0.393365 0.988928 0.235971 0.117074
H48   H     H_    0.276207 0.037925 0.145345 0.178330
O26   O     O_3   0.828465 0.131798 0.755804 -0.656291
C44   C     C_3   0.727974 0.165649 0.684847 -0.282306
H49   H     H_    0.664086 0.094742 0.638433 0.180807
H50   H     H_    0.788031 0.236275 0.656164 0.108544
H51   H     H_    0.620220 0.192236 0.702765 0.170323
N1    N     N_R   0.518404 0.029297 0.933620 0.257838
O27   O     O_R   0.677051 0.039498 0.964314 -0.353368
O28   O     O_R   0.426904 0.933552 0.912474 -0.365421
N2    N     N_R   0.833029 0.290050 0.107927 0.273817
O29   O     O_R   0.903245 0.209898 0.083629 -0.381598
O30   O     O_R   0.691412 0.269745 0.137465 -0.417014
O31   O     O_3   0.634609 0.353057 0.970922 -0.629678
C45   C     C_3   0.535631 0.420027 0.007955 -0.038775
H52   H     H_    0.584030 0.506313 0.004146 0.126977
H53   H     H_    0.526014 0.405471 0.078015 0.163090
H54   H     H_    0.407124 0.399016 0.969252 0.161036

loop_
_geom_bond_atom_site_label_1
_geom_bond_atom_site_label_2
_geom_bond_distance
_ccdc_geom_bond_type
C14   H31   1.106977 S    
C22   C23   1.395612 A    
C13   H30   1.111289 S    
C33   H44   1.082914 S    
C24   C25   1.433780 A    
C15   H35   1.108131 S    
C21   O31   1.367028 S    
C44   H49   1.091622 S    
C35   H42   1.077351 S    
C39   C40   1.414063 A    
O12   Ba2   2.906410 S    
P4    O13   1.592493 S    
C16   H36   1.103042 S    
C4    C5    1.521846 S    
C11   H24   1.107872 S    
C27   H39   1.079883 S    
P3    O11   1.754721 S    
C33   C40   1.398124 A    
C7    H15   1.105437 S    
C2    H5    1.102363 S    
Ba1   O20   2.940398 S    
O11   C2    1.406707 S    
C42   H43   1.076297 S    
C16   N1    1.460059 S    
C45   H54   1.108187 S    
C43   H47   1.108880 S    
C44   H50   1.105838 S    
C6    C7    1.520180 S    
O13   Ba2   2.951767 S    
C41   C42   1.398491 A    
O1    Ba1   2.905826 S    
P1    O1    1.517749 D    
C3    H29   1.109268 S    
P7    O22   1.746934 S    
C35   C36   1.382682 A    
C37   C38   1.428798 A    
C11   H25   1.108753 S    
C8    C9    1.522815 S    
P7    C40   1.866750 S    
C2    H4    1.108659 S    
C24   C32   1.403113 A    
N1    O27   1.300596 A    
C12   H27   1.100824 S    
C25   C27   1.406027 A    
P2    O10   1.751890 S    
P6    C31   1.865718 S    
Ba2   O21   2.911814 S    
N2    O29   1.300571 A    
C1    H2    1.110074 S    
C35   C39   1.400113 A    
O6    P6    1.747121 S    
P5    O18   1.548321 D    
C16   H37   1.106281 S    
C28   H38   1.075887 S    
O16   P7    1.746478 S    
C10   H23   1.103363 S    
P2    Ba1   3.477690 S    
C13   C14   1.521723 S    
P7    O21   1.578398 D    
Ba1   Ba2   4.499076 S    
C15   O24   1.420823 S    
O6    C10   1.403022 S    
P8    C17   1.877354 S    
C14   H33   1.109757 S    
P5    O17   1.748630 S    
C6    H13   1.103779 S    
P5    C41   1.852465 S    
O14   P8    1.769867 S    
P1    O5    1.744664 S    
C43   H46   1.110705 S    
C2    C3    1.525461 S    
C34   C37   1.402138 A    
C20   C21   1.386741 A    
O16   Ba2   2.939651 S    
C43   H48   1.107213 S    
P4    O15   1.752035 S    
C4    H8    1.103473 S    
C13   O26   1.415166 S    
C7    H17   1.108497 S    
P1    Ba1   3.464015 S    
C18   C26   1.421288 A    
C1    C10   1.534385 S    
O10   C8    1.400367 S    
C9    H20   1.110770 S    
C4    O15   1.397410 S    
C19   C30   1.428168 A    
C15   C16   1.529155 S    
P4    Ba2   3.464567 S    
C9    H21   1.107961 S    
P4    O12   1.517979 D    
P3    O8    1.722530 S    
C12   H28   1.102709 S    
C25   C26   1.429883 A    
C29   C31   1.423109 A    
C1    O25   1.411130 S    
C18   C21   1.408908 A    
C14   H32   1.107071 S    
O3    Ba1   2.806632 S    
C38   C42   1.417225 A    
O4    P6    1.541135 D    
P1    C22   1.885905 S    
C8    H18   1.105783 S    
P2    O7    1.496544 D    
C12   H26   1.106645 S    
C1    H3    1.107661 S    
C3    H7    1.106912 S    
O26   C44   1.407057 S    
C44   H51   1.059303 S    
O2    Ba2   2.826761 S    
Ba1   O16   2.775859 S    
P2    C37   1.875257 S    
C17   C32   1.412150 A    
C19   C22   1.433613 A    
C38   C39   1.433976 A    
N2    O30   1.298217 A    
C5    H10   1.110635 S    
O19   C13   1.417827 S    
C11   C12   1.523454 S    
O14   Ba2   2.805980 S    
C5    H12   1.110847 S    
O7    Ba1   2.911535 S    
C15   H34   1.108923 S    
O8    Ba1   2.740450 S    
P8    O23   1.532946 D    
C45   H52   1.111197 S    
O5    C6    1.376843 S    
Ba2   O20   2.775322 S    
C4    H9    1.108563 S    
C28   C29   1.405175 A    
C33   C41   1.400846 A    
C34   C36   1.399066 A    
C5    H11   1.107252 S    
H1    C10   1.111061 S    
C7    H16   1.105741 S    
P8    O24   1.792657 S    
P2    O20   1.576923 S    
C45   H53   1.103933 S    
C34   H45   1.081730 S    
C19   C20   1.406391 A    
P3    C36   1.830898 S    
C8    H19   1.109790 S    
C29   C30   1.416961 A    
C6    H14   1.109573 S    
C11   O22   1.399696 S    
O2    Ba1   2.950926 S    
C9    H22   1.111037 S    
Ba1   O13   2.826022 S    
C23   H40   1.081462 S    
O31   C45   1.403096 S    
C20   N2    1.426285 S    
C17   C18   1.423448 A    
C23   C31   1.402973 A    
N1    O28   1.301280 A    
C27   C28   1.400803 A    
P3    O9    1.539772 D    
O3    P6    1.741618 S    
P4    C24   1.906207 S    
C3    H6    1.108054 S    
C32   H41   1.081327 S    
P1    O2    1.592338 S    
O25   C43   1.406240 S    
C26   C30   1.437444 A    
P5    O19   1.766379 S    
O17   Ba2   2.741027 S    
