data_mof_unit_35896.cif
_audit_creation_date              2012-10-26T20:22:08-0400
_audit_creation_method            fapswitch 2.2
_symmetry_space_group_name_H-M    P1
_symmetry_Int_Tables_number       1
_space_group_crystal_system       triclinic
_cell_length_a                    10.830854
_cell_length_b                    9.526626
_cell_length_c                    10.643112
_cell_angle_alpha                 90.269073
_cell_angle_beta                  90.319982
_cell_angle_gamma                 89.97536
_cell_volume                      1098.14288634

loop_
_atom_site_label
_atom_site_type_symbol
_atom_type_description
_atom_site_fract_x
_atom_site_fract_y
_atom_site_fract_z
_atom_type_partial_charge
C1    C     C_R   0.871767 0.499979 0.499968 0.025515
C2    C     C_3   0.494809 0.365727 0.040024 -0.130082
C3    C     C_3   0.397657 0.439877 0.957633 -0.008018
C4    C     C_3   0.602343 0.560122 0.042367 -0.008018
C5    C     C_3   0.500503 0.501274 0.877250 0.019557
C6    C     C_3   0.499497 0.498726 0.122749 0.019557
C7    C     C_R   0.423062 0.074026 0.421840 0.015303
C8    C     C_R   0.576938 0.925974 0.578160 0.015303
C9    C     C_R   0.576949 0.074757 0.578150 0.017779
C10   C     C_R   0.423051 0.925243 0.421850 0.017779
C11   C     C_R   0.063951 0.372631 0.505640 -0.120955
C12   C     C_R   0.128233 0.500021 0.500032 0.025515
C13   C     C_R   0.936049 0.627368 0.494360 -0.120955
C14   C     C_R   0.936223 0.372611 0.505603 -0.130236
C15   C     C_R   0.063777 0.627388 0.494397 -0.130236
C16   C     C_1   0.284830 0.374178 0.908118 0.205796
C17   C     C_1   0.715169 0.625822 0.091882 0.205796
C18   C     C_R   0.262086 0.500016 0.500002 0.553444
C19   C     C_R   0.737914 0.499984 0.499998 0.553444
C20   C     C_R   0.499527 0.499603 0.259366 0.558192
C21   C     C_R   0.500473 0.500397 0.740634 0.558192
C22   C     C_3   0.400658 0.571752 0.041848 -0.141817
C23   C     C_3   0.599341 0.428248 0.958152 -0.141817
C24   C     C_3   0.505191 0.634272 0.959975 -0.130082
Cu1   Cu    Cu3+1 0.500000 0.640660 0.500000 0.951823
Cu2   Cu    Cu3+1 0.500000 0.359340 0.500000 0.951823
H1    H     H_    0.361418 0.129764 0.359198 0.109096
H2    H     H_    0.887934 0.726938 0.489760 0.136601
H3    H     H_    0.888245 0.273035 0.510201 0.130381
H4    H     H_    0.111754 0.726965 0.489798 0.130381
H5    H     H_    0.638583 0.870236 0.640802 0.109096
H6    H     H_    0.638626 0.131077 0.640770 0.108885
H7    H     H_    0.361374 0.868923 0.359230 0.108885
H8    H     H_    0.319099 0.629054 0.078619 0.120828
H9    H     H_    0.680901 0.370945 0.921380 0.120828
H10   H     H_    0.510598 0.743823 0.925265 0.126819
H11   H     H_    0.489402 0.256177 0.074735 0.126819
H12   H     H_    0.112066 0.273062 0.510240 0.136601
N1    N     N_R   0.500000 0.852070 0.500000 -0.225224
N2    N     N_R   0.500000 0.147930 0.500000 -0.225224
N3    N     N_1   0.195920 0.322473 0.868825 -0.298858
N4    N     N_1   0.804080 0.677527 0.131175 -0.298858
O1    O     O_R   0.319640 0.618740 0.499990 -0.512145
O2    O     O_R   0.680360 0.381260 0.500010 -0.512145
O3    O     O_R   0.680360 0.618740 0.500010 -0.505865
O4    O     O_R   0.319640 0.381260 0.499990 -0.505865
O5    O     O_R   0.499970 0.618770 0.316850 -0.499203
O6    O     O_R   0.500030 0.381230 0.683150 -0.499203
O7    O     O_R   0.500030 0.618770 0.683150 -0.507615
O8    O     O_R   0.499970 0.381230 0.316850 -0.507615

loop_
_geom_bond_atom_site_label_1
_geom_bond_atom_site_label_2
_ccdc_geom_bond_type
C11   H12   S    
C11   C12   A    
C19   O3    A    
C13   H2    S    
C8    N1    A    
C7    C10   A    
C6    C20   S    
Cu1   O5    S    
C7    H1    S    
C5    C23   S    
C12   C15   A    
Cu2   O6    S    
C7    N2    A    
C21   O6    A    
Cu1   O1    S    
C21   O7    A    
C2    C3    S    
Cu2   O2    S    
C24   H10   S    
C18   O1    A    
Cu1   N1    S    
C2    H11   S    
Cu2   N2    S    
C2    C6    S    
C5    C24   S    
C4    C24   S    
C4    C17   S    
C18   O4    A    
C10   H7    S    
C23   H9    S    
Cu2   O8    S    
C13   C15   A    
C22   H8    S    
C11   C14   A    
C22   C24   S    
C1    C19   S    
C20   O5    A    
C1    C13   A    
Cu2   O4    S    
C14   H3    S    
C6    C22   S    
Cu1   O3    S    
C5    C21   S    
C19   O2    A    
C15   H4    S    
C4    C6    S    
C12   C18   S    
C2    C23   S    
C4    C23   S    
C17   N4    T    
C8    C9    A    
C3    C22   S    
C20   O8    A    
C1    C14   A    
C9    H6    S    
Cu1   Cu2   S    
C8    H5    S    
C16   N3    T    
C9    N2    A    
C3    C16   S    
C10   N1    A    
C3    C5    S    
Cu1   O7    S    
