data_mof_unit_46247.cif
_audit_creation_date              2012-10-26T18:25:41-0400
_audit_creation_method            fapswitch 2.2
_symmetry_space_group_name_H-M    P1
_symmetry_Int_Tables_number       1
_space_group_crystal_system       triclinic
_cell_length_a                    7.452829
_cell_length_b                    8.693505
_cell_length_c                    10.849343
_cell_angle_alpha                 89.327055
_cell_angle_beta                  73.456945
_cell_angle_gamma                 102.997924
_cell_volume                      654.414552273

loop_
_atom_site_label
_atom_site_type_symbol
_atom_type_description
_atom_site_fract_x
_atom_site_fract_y
_atom_site_fract_z
_atom_type_partial_charge
C1    C     C_R   0.452041 0.199611 0.503825 0.556397
C2    C     C_2   0.574802 0.968332 0.494356 -0.139113
C3    C     C_R   0.547957 0.800387 0.496185 0.539808
C4    C     C_R   0.424033 0.487304 0.743759 0.566802
C5    C     C_R   0.574344 0.502219 0.256633 0.565619
C6    C     C_2   0.385315 0.468307 0.884449 0.246593
C7    C     C_2   0.608203 0.490281 0.117203 0.252762
C8    C     C_2   0.497899 0.399971 0.933965 0.282732
C9    C     C_2   0.471438 0.397537 0.074071 0.283749
C10   C     C_2   0.425209 0.031683 0.505629 -0.136431
Cu1   Cu    Cu3+1 0.688910 0.517800 0.485820 1.026667
Cu2   Cu    Cu3+1 0.311090 0.482200 0.514180 1.028631
H1    H     H_    0.281106 0.959806 0.516248 0.140092
H2    H     H_    0.718908 0.040217 0.483729 0.144864
H3    H     H_    0.916778 0.375015 0.600270 0.269304
H4    H     H_    0.083266 0.624767 0.399537 0.246623
H5    H     H_    0.226339 0.243950 0.108724 0.336140
H6    H     H_    0.703962 0.290708 0.909680 0.338543
H7    H     H_    0.856184 0.641728 0.077535 0.340549
H8    H     H_    0.176149 0.575257 0.913940 0.354100
N1    N     N_2   0.027170 0.455360 0.535550 -0.238949
N2    N     N_2   0.972830 0.544640 0.464450 -0.244108
O1    O     O_R   0.622710 0.286400 0.490790 -0.503378
O2    O     O_3   0.641067 0.337911 0.854703 -0.707015
O3    O     O_3   0.777385 0.574678 0.029583 -0.716543
O4    O     O_3   0.236415 0.521454 0.966654 -0.713256
O5    O     O_R   0.377290 0.713600 0.509210 -0.514745
O6    O     O_R   0.303660 0.256330 0.514730 -0.489391
O7    O     O_R   0.696340 0.743670 0.485270 -0.502840
O8    O     O_R   0.600900 0.509520 0.671740 -0.455791
O9    O     O_R   0.399100 0.490480 0.328260 -0.457960
O10   O     O_R   0.281840 0.479450 0.695690 -0.509626
O11   O     O_R   0.718160 0.520550 0.304310 -0.507464
O12   O     O_3   0.305272 0.305356 0.159444 -0.683368

loop_
_geom_bond_atom_site_label_1
_geom_bond_atom_site_label_2
_ccdc_geom_bond_type
C1    O6    A    
C6    C8    D    
Cu1   Cu2   S    
Cu1   N2    S    
C7    O3    S    
Cu1   O11   S    
C3    O5    A    
C2    C3    S    
C4    O10   A    
N1    N2    D    
Cu2   O10   S    
C3    O7    A    
C6    O4    S    
H8    O4    S    
Cu2   O6    S    
H6    O2    S    
Cu1   O1    S    
C8    O2    S    
C1    O1    A    
C5    C7    S    
Cu2   O9    S    
C9    O12   S    
C2    H2    S    
H5    O12   S    
H7    O3    S    
C2    C10   D    
H3    N1    S    
Cu1   O7    S    
C4    C6    S    
C7    C9    D    
H4    N2    S    
Cu2   O5    S    
Cu2   N1    S    
C4    O8    A    
C1    C10   S    
Cu1   O8    S    
C8    C9    S    
C5    O9    A    
C10   H1    S    
C5    O11   A    
