data_mof_unit_62901.cif
_audit_creation_date              2012-12-10T18:22:26-0500
_audit_creation_method            fapswitch 2.2
_symmetry_space_group_name_H-M    P1
_symmetry_Int_Tables_number       1
_space_group_crystal_system       triclinic
_cell_length_a                    47.856484
_cell_length_b                    35.642811
_cell_length_c                    32.02371
_cell_angle_alpha                 89.999141
_cell_angle_beta                  131.826239
_cell_angle_gamma                 90.000584
_cell_volume                      40704.2856535

loop_
_atom_site_label
_atom_site_type_symbol
_atom_type_description
_atom_site_fract_x
_atom_site_fract_y
_atom_site_fract_z
_atom_type_partial_charge
Br1   Br    Br    0.968975 0.923538 0.175619 -0.565061
Br2   Br    Br    0.028545 0.922577 0.821913 -0.565197
Br3   Br    Br    0.468025 0.423933 0.174673 -0.564976
Br4   Br    Br    0.526333 0.421797 0.819710 -0.565277
C1    C     C_R   0.072383 0.000028 0.572220 0.787696
C2    C     C_3   0.032968 0.975028 0.757798 -0.492739
C3    C     C_R   0.572422 0.999646 0.072323 0.806299
C4    C     C_R   0.927578 0.499646 0.927677 0.806307
C5    C     C_R   0.072422 0.499646 0.072323 0.806314
C6    C     C_R   0.500000 0.072534 1.000000 0.794720
C7    C     C_R   0.000000 0.572534 1.000000 0.794718
C8    C     C_R   0.500469 0.826903 0.962661 -0.158097
C9    C     C_R   0.499531 0.826903 0.037342 -0.158082
C10   C     C_R   0.000469 0.326903 0.962661 -0.158090
C11   C     C_R   0.999531 0.326903 0.037342 -0.158088
C12   C     C_R   0.500467 0.866120 0.962614 -0.193534
C13   C     C_3   0.465952 0.476532 0.241124 -0.492941
C14   C     C_R   0.499532 0.866120 0.037388 -0.193541
C15   C     C_R   0.000467 0.366120 0.962614 -0.193535
C16   C     C_R   0.999532 0.366120 0.037388 -0.193542
C17   C     C_R   0.500000 0.886160 0.000001 -0.037304
C18   C     C_R   1.000000 0.386160 0.000001 -0.037304
C19   C     C_R   0.500000 0.807236 0.000002 0.145986
C20   C     C_R   1.000000 0.307236 0.000002 0.145986
C21   C     C_1   0.500000 0.766893 0.000002 -0.065246
C22   C     C_1   1.000000 0.266893 0.000002 -0.065243
C23   C     C_3   0.036185 0.982340 0.310203 -0.380546
C24   C     C_3   0.532246 0.474098 0.757078 -0.492616
C25   C     C_3   0.963270 0.983523 0.689255 -0.380651
C26   C     C_3   0.535961 0.481886 0.309981 -0.380517
C27   C     C_3   0.462819 0.484584 0.688807 -0.380729
C28   C     C_1   1.000000 0.233088 0.000003 -0.064885
C29   C     C_1   0.500000 0.733088 0.000003 -0.064892
C30   C     C_R   0.966047 0.173077 0.966064 -0.159207
C31   C     C_R   0.033953 0.173077 0.033940 -0.159190
C32   C     C_R   0.466046 0.673077 0.966066 -0.159181
C33   C     C_R   0.533953 0.673077 0.033938 -0.159229
C34   C     C_R   0.966005 0.133859 0.966022 -0.191670
C35   C     C_1   0.999566 0.999702 0.162085 0.002744
C36   C     C_R   0.033994 0.133859 0.033981 -0.191733
C37   C     C_R   0.466005 0.633859 0.966024 -0.191632
C38   C     C_R   0.533995 0.633860 0.033979 -0.191808
C39   C     C_R   1.000000 0.113812 0.000001 -0.034605
C40   C     C_R   0.500000 0.613812 0.000001 -0.034601
C41   C     C_R   1.000000 0.192744 0.000002 0.145323
C42   C     C_R   0.500000 0.692744 0.000002 0.145329
C43   C     C_R   0.499973 0.173212 0.037790 -0.153843
C44   C     C_R   0.500026 0.173212 0.962204 -0.153657
C45   C     C_R   0.999974 0.673212 0.037791 -0.153807
C46   C     C_1   0.000432 0.999689 0.837913 0.002770
C47   C     C_R   0.000026 0.673212 0.962205 -0.153719
C48   C     C_R   0.499976 0.134015 0.037839 -0.187923
C49   C     C_R   0.500024 0.134014 0.962157 -0.187936
C50   C     C_R   0.999976 0.634015 0.037840 -0.187935
C51   C     C_R   0.000024 0.634015 0.962157 -0.187935
C52   C     C_R   0.500000 0.113998 0.999999 -0.038162
C53   C     C_R   0.000000 0.613997 0.999999 -0.038157
C54   C     C_R   0.499999 0.192846 0.999996 0.142051
C55   C     C_R   1.000000 0.692846 0.999997 0.142065
C56   C     C_1   0.499999 0.233137 0.999995 -0.062216
C57   C     C_1   0.499565 0.499707 0.162084 0.002730
C58   C     C_1   1.000000 0.733137 0.999996 -0.062240
C59   C     C_3   0.036540 0.983240 0.262135 -0.414601
C60   C     C_3   0.962945 0.984432 0.737353 -0.414450
C61   C     C_3   0.536329 0.482782 0.261926 -0.414685
C62   C     C_3   0.462523 0.485500 0.736934 -0.414314
C63   C     C_1   0.999999 0.766910 0.999996 -0.027228
C64   C     C_1   0.499999 0.266910 0.999994 -0.027186
C65   C     C_R   0.974092 0.826743 0.998557 -0.182401
C66   C     C_R   0.025906 0.826745 0.001434 -0.182232
C67   C     C_R   0.474094 0.326744 0.998561 -0.182422
C68   C     C_1   0.500430 0.499679 0.837911 0.002790
C69   C     C_R   0.525902 0.326745 0.001426 -0.182067
C70   C     C_R   0.973876 0.866144 0.998763 0.114456
C71   C     C_R   0.026122 0.866145 0.001230 0.114769
C72   C     C_R   0.473878 0.366144 0.998767 0.114341
C73   C     C_R   0.526119 0.366145 0.001222 0.115066
C74   C     C_R   0.999999 0.886109 0.999998 -0.061874
C75   C     C_R   0.499999 0.386109 0.999997 -0.061842
C76   C     C_R   0.999999 0.807214 0.999996 0.076459
C77   C     C_R   0.499998 0.307215 0.999994 0.076450
C78   C     C_1   0.999812 0.999808 0.124668 -0.143927
C79   C     C_1   0.999757 0.999995 0.337211 -0.032611
C80   C     C_1   0.000188 0.999803 0.875332 -0.143938
C81   C     C_1   0.499812 0.499810 0.124668 -0.143927
C82   C     C_1   0.500188 0.499799 0.875332 -0.143944
C83   C     C_3   0.999526 0.000048 0.290870 0.250678
C84   C     C_3   0.000481 0.000034 0.709136 0.250657
C85   C     C_3   0.499528 0.500053 0.290873 0.250685
C86   C     C_3   0.500486 0.500023 0.709142 0.250640
C87   C     C_3   0.996478 0.040441 0.221700 -0.494009
C88   C     C_3   0.004835 0.040305 0.779607 -0.494027
C89   C     C_3   0.496987 0.540479 0.222208 -0.494014
C90   C     C_1   0.000246 0.999989 0.662792 -0.032611
C91   C     C_3   0.505991 0.540153 0.780759 -0.494029
C92   C     C_3   0.999101 0.999529 0.207740 0.248658
C93   C     C_3   0.000891 0.999501 0.792252 0.248684
C94   C     C_3   0.499098 0.499539 0.207737 0.248658
C95   C     C_3   0.500883 0.499479 0.792245 0.248702
C96   C     C_1   0.499758 0.499997 0.337212 -0.032608
C97   C     C_R   0.927617 0.000028 0.427780 0.787630
C98   C     C_1   0.500248 0.499985 0.662794 -0.032610
C99   C     C_1   0.999903 0.999999 0.375026 -0.166982
C100  C     C_1   0.000098 0.999997 0.624975 -0.166972
C101  C     C_1   0.499903 0.500000 0.375026 -0.166982
C102  C     C_1   0.500099 0.499996 0.624977 -0.166964
C103  C     C_R   0.325689 0.988347 0.860076 -0.189854
C104  C     C_R   0.674311 0.988346 0.139925 -0.189837
C105  C     C_R   0.825689 0.488347 0.860076 -0.189902
C106  C     C_R   0.174311 0.488346 0.139924 -0.189802
C107  C     C_R   0.365095 0.987652 0.900863 0.158801
C108  C     C_R   0.572383 0.500028 0.572220 0.787709
C109  C     C_R   0.634905 0.987652 0.099138 0.158783
C110  C     C_R   0.865095 0.487652 0.900863 0.158808
C111  C     C_R   0.134904 0.487651 0.099138 0.158782
C112  C     C_R   0.385979 0.999116 0.886179 -0.052949
C113  C     C_R   0.614020 0.999116 0.113821 -0.052935
C114  C     C_R   0.885979 0.499116 0.886179 -0.052940
C115  C     C_R   0.114020 0.499116 0.113821 -0.052943
C116  C     C_R   0.366672 0.010322 0.830682 -0.238152
C117  C     C_R   0.633328 0.010322 0.169317 -0.238192
C118  C     C_R   0.866672 0.510322 0.830682 -0.238187
C119  C     C_R   0.427617 0.500028 0.427780 0.787591
C120  C     C_R   0.133328 0.510323 0.169317 -0.238164
C121  C     C_R   0.327545 0.010710 0.790640 -0.159256
C122  C     C_R   0.672455 0.010710 0.209359 -0.159306
C123  C     C_R   0.827545 0.510710 0.790640 -0.159288
C124  C     C_R   0.172455 0.510710 0.209359 -0.159269
C125  C     C_R   0.000015 0.000013 0.419960 0.829702
C126  C     C_R   0.999985 0.000012 0.580040 0.829633
C127  C     C_R   0.500015 0.500013 0.419960 0.829727
C128  C     C_R   0.499985 0.500012 0.580040 0.829576
C129  C     C_R   0.307042 0.999825 0.805317 0.113543
C130  C     C_3   0.965363 0.975700 0.191560 0.426115
C131  C     C_R   0.692957 0.999825 0.194683 0.113546
C132  C     C_R   0.807042 0.499825 0.805317 0.113566
C133  C     C_R   0.192957 0.499824 0.194682 0.113529
C134  C     C_1   0.266752 0.000160 0.764212 -0.048776
C135  C     C_1   0.733248 0.000159 0.235788 -0.048785
C136  C     C_1   0.766752 0.500159 0.764212 -0.048832
C137  C     C_1   0.233248 0.500159 0.235787 -0.048736
C138  C     C_1   0.232982 0.000256 0.730299 -0.065257
C139  C     C_1   0.767018 0.000256 0.269701 -0.065252
C140  C     C_1   0.732982 0.500256 0.730299 -0.065319
C141  C     C_3   0.033840 0.974594 0.807645 0.425978
C142  C     C_1   0.267018 0.500255 0.269700 -0.065201
C143  C     C_R   0.173104 0.966207 0.671179 -0.157367
C144  C     C_R   0.826896 0.966207 0.328820 -0.157284
C145  C     C_R   0.673104 0.466207 0.671179 -0.157443
C146  C     C_R   0.326896 0.466207 0.328817 -0.157220
C147  C     C_R   0.133922 0.966099 0.632778 -0.189680
C148  C     C_R   0.866078 0.966099 0.367221 -0.189593
C149  C     C_R   0.633922 0.466099 0.632778 -0.189759
C150  C     C_R   0.366078 0.466099 0.367218 -0.189524
C151  C     C_R   0.113850 0.000082 0.613075 -0.036225
C152  C     C_3   0.465065 0.476136 0.191263 0.426163
C153  C     C_R   0.886150 0.000082 0.386925 -0.036222
C154  C     C_R   0.613850 0.500082 0.613075 -0.036210
C155  C     C_R   0.386150 0.500082 0.386924 -0.036242
C156  C     C_R   0.133819 0.034133 0.632580 -0.189863
C157  C     C_R   0.866181 0.034133 0.367421 -0.189966
C158  C     C_R   0.633819 0.534133 0.632579 -0.189836
C159  C     C_R   0.366181 0.534132 0.367422 -0.190012
C160  C     C_R   0.173001 0.034157 0.670979 -0.157279
C161  C     C_R   0.826999 0.034157 0.329023 -0.157329
C162  C     C_R   0.673001 0.534157 0.670978 -0.157312
C163  C     C_3   0.533108 0.473641 0.806914 0.425863
C164  C     C_R   0.326999 0.534157 0.329023 -0.157308
C165  C     C_R   0.192689 0.000215 0.690316 0.144118
C166  C     C_R   0.807311 0.000214 0.309684 0.144133
C167  C     C_R   0.692689 0.500215 0.690316 0.144137
C168  C     C_R   0.307311 0.500214 0.309682 0.144116
C169  C     C_R   0.000000 0.072296 0.000000 0.779022
C170  C     C_R   0.500000 0.572296 0.000000 0.779000
C171  C     C_3   0.994765 0.040700 0.268691 0.020828
C172  C     C_3   0.006555 0.040509 0.732624 0.020807
C173  C     C_3   0.495278 0.540760 0.269202 0.020834
C174  C     C_3   0.966246 0.976107 0.241418 -0.492887
C175  C     C_3   0.507716 0.540308 0.733781 0.020777
C176  C     C_R   0.999966 0.999887 0.080013 0.819087
C177  C     C_R   0.000034 0.999887 0.919987 0.819200
C178  C     C_R   0.499966 0.499887 0.080013 0.819042
C179  C     C_R   0.500034 0.499888 0.919987 0.819304
C180  C     C_R   1.000000 0.927595 1.000000 0.820229
C181  C     C_R   0.500000 0.427595 0.999999 0.820320
C182  C     C_R   0.500000 0.927663 0.000000 0.782793
C183  C     C_R   1.000000 0.427663 0.000000 0.782796
C184  C     C_R   0.427578 0.999646 0.927677 0.806321
Cu1   Cu    Cu3+1 0.000000 0.037300 0.500000 0.956811
Cu2   Cu    Cu3+1 0.499980 0.000110 0.041300 0.956774
Cu3   Cu    Cu3+1 0.000020 0.500110 0.958700 0.956810
Cu4   Cu    Cu3+1 0.999980 0.500110 0.041300 0.956773
Cu5   Cu    Cu3+1 0.500000 0.537300 0.500000 0.956837
Cu6   Cu    Cu3+1 1.000000 0.962740 0.500000 0.954025
Cu7   Cu    Cu3+1 0.500000 0.462740 0.500000 0.954038
Cu8   Cu    Cu3+1 0.037280 0.999890 0.037280 0.977882
Cu9   Cu    Cu3+1 0.962720 0.999890 0.962720 0.978599
Cu10  Cu    Cu3+1 0.537280 0.499890 0.037280 0.977340
Cu11  Cu    Cu3+1 0.462720 0.499890 0.962720 0.979073
Cu12  Cu    Cu3+1 0.500020 0.000110 0.958700 0.956827
H1    H     H_    0.021094 0.056729 0.234883 0.178386
H2    H     H_    0.030240 0.054077 0.817915 0.164371
H3    H     H_    0.104312 0.448573 0.038605 0.211851
H4    H     H_    0.049138 0.060728 0.328345 0.227439
H5    H     H_    0.015676 0.093781 0.298290 0.218431
H6    H     H_    0.952861 0.062289 0.673645 0.227430
H7    H     H_    0.987375 0.094238 0.704748 0.218423
H8    H     H_    0.549897 0.560103 0.329101 0.227431
H9    H     H_    0.516853 0.593573 0.299463 0.218437
H10   H     H_    0.454666 0.563616 0.675444 0.227443
H11   H     H_    0.490081 0.594564 0.707444 0.218415
H12   H     H_    0.929404 0.867265 0.995222 0.224476
H13   H     H_    0.472226 0.555378 0.184541 0.164298
H14   H     H_    0.963232 0.898867 0.038123 0.229841
H15   H     H_    0.070593 0.867269 0.004769 0.224227
H16   H     H_    0.036764 0.898871 0.961868 0.230138
H17   H     H_    0.429409 0.367265 0.995234 0.224595
H18   H     H_    0.463238 0.398868 0.038131 0.229687
H19   H     H_    0.570584 0.367269 0.004749 0.223991
H20   H     H_    0.536754 0.398871 0.961852 0.230335
H21   H     H_    0.908052 0.972058 0.127526 0.246227
H22   H     H_    0.923207 0.016038 0.148596 0.188408
H23   H     H_    0.091002 0.969099 0.871530 0.246154
H24   H     H_    0.531777 0.553194 0.819448 0.164411
H25   H     H_    0.077276 0.013545 0.851880 0.188479
H26   H     H_    0.407714 0.473211 0.127188 0.246272
H27   H     H_    0.423418 0.516997 0.148804 0.188395
H28   H     H_    0.590089 0.466516 0.870618 0.246071
H29   H     H_    0.577638 0.511335 0.852234 0.188524
H30   H     H_    0.309491 0.979620 0.870883 0.129491
H31   H     H_    0.690509 0.979619 0.129118 0.129529
H32   H     H_    0.809491 0.479620 0.870883 0.129442
H33   H     H_    0.190509 0.479618 0.129117 0.129558
H34   H     H_    0.381871 0.019196 0.818264 0.163430
H35   H     H_    0.618129 0.019196 0.181736 0.163401
H36   H     H_    0.881871 0.519195 0.818264 0.163414
H37   H     H_    0.980759 0.057381 0.766962 0.178332
H38   H     H_    0.118130 0.519196 0.181735 0.163413
H39   H     H_    0.313285 0.019587 0.748232 0.140564
H40   H     H_    0.686715 0.019587 0.251767 0.140534
H41   H     H_    0.813285 0.519587 0.748232 0.140540
H42   H     H_    0.186715 0.519588 0.251766 0.140556
H43   H     H_    0.188116 0.939777 0.686005 0.133600
H44   H     H_    0.811884 0.939777 0.313993 0.133631
H45   H     H_    0.688116 0.439777 0.686005 0.133564
H46   H     H_    0.311884 0.439777 0.313988 0.133669
H47   H     H_    0.119389 0.939426 0.618563 0.155529
H48   H     H_    0.521805 0.556457 0.235591 0.178401
H49   H     H_    0.880611 0.939426 0.381436 0.155559
H50   H     H_    0.619389 0.439426 0.618563 0.155503
H51   H     H_    0.380611 0.439426 0.381431 0.155590
H52   H     H_    0.119204 0.060762 0.618206 0.155270
H53   H     H_    0.880795 0.060762 0.381796 0.155221
H54   H     H_    0.619204 0.560762 0.618205 0.155277
H55   H     H_    0.380795 0.560762 0.381799 0.155218
H56   H     H_    0.187929 0.060634 0.685643 0.134050
H57   H     H_    0.812071 0.060634 0.314360 0.133991
H58   H     H_    0.687929 0.560634 0.685641 0.134032
H59   H     H_    0.482411 0.557910 0.768609 0.178295
H60   H     H_    0.312071 0.560634 0.314361 0.134007
H61   H     H_    0.500837 0.811929 0.933585 0.132756
H62   H     H_    0.499163 0.811929 0.066418 0.132771
H63   H     H_    0.000837 0.311929 0.933585 0.132764
H64   H     H_    0.999162 0.311929 0.066418 0.132766
H65   H     H_    0.500846 0.880711 0.933336 0.153805
H66   H     H_    0.499153 0.880711 0.066666 0.153803
H67   H     H_    0.000846 0.380711 0.933336 0.153806
H68   H     H_    0.999153 0.380711 0.066666 0.153801
H69   H     H_    0.939604 0.188051 0.939634 0.133346
H70   H     H_    0.966497 0.050986 0.249991 0.141786
H71   H     H_    0.060395 0.188052 0.060371 0.133361
H72   H     H_    0.439604 0.688051 0.939638 0.133373
H73   H     H_    0.560395 0.688052 0.060367 0.133326
H74   H     H_    0.939368 0.119278 0.939396 0.154907
H75   H     H_    0.060632 0.119278 0.060606 0.154877
H76   H     H_    0.439368 0.619278 0.939400 0.154940
H77   H     H_    0.560632 0.619278 0.060603 0.154828
H78   H     H_    0.499952 0.188195 0.067210 0.135615
H79   H     H_    0.500047 0.188194 0.932783 0.135807
H80   H     H_    0.999952 0.688194 0.067210 0.135649
H81   H     H_    0.035141 0.049873 0.751640 0.141768
H82   H     H_    0.000047 0.688194 0.932784 0.135738
H83   H     H_    0.499956 0.119425 0.067480 0.155444
H84   H     H_    0.500043 0.119425 0.932517 0.155493
H85   H     H_    0.999956 0.619425 0.067480 0.155449
H86   H     H_    0.000044 0.619425 0.932517 0.155476
H87   H     H_    0.954243 0.811245 0.997742 0.140341
H88   H     H_    0.045755 0.811248 0.002249 0.140313
H89   H     H_    0.454246 0.311245 0.997750 0.140363
H90   H     H_    0.545750 0.311248 0.002235 0.140273
H91   H     H_    0.038465 0.952735 0.323255 0.186060
H92   H     H_    0.467142 0.551400 0.250634 0.141819
H93   H     H_    0.960031 0.954010 0.675247 0.186057
H94   H     H_    0.537870 0.452256 0.322663 0.186060
H95   H     H_    0.458737 0.455176 0.673958 0.186053
H96   H     H_    0.061192 0.997285 0.347479 0.173545
H97   H     H_    0.938760 0.999271 0.652475 0.173551
H98   H     H_    0.561153 0.496515 0.347442 0.173533
H99   H     H_    0.438769 0.501027 0.652488 0.173573
H100  H     H_    0.060491 0.000769 0.275205 0.167461
H101  H     H_    0.939574 0.002726 0.724863 0.167407
H102  H     H_    0.560498 0.500010 0.275213 0.167465
H103  H     H_    0.536558 0.548850 0.753052 0.141727
H104  H     H_    0.439683 0.504454 0.724975 0.167373
H105  H     H_    0.041655 0.954548 0.254906 0.213977
H106  H     H_    0.956907 0.955921 0.743661 0.214114
H107  H     H_    0.541084 0.454029 0.254338 0.213921
H108  H     H_    0.455674 0.457173 0.742433 0.214230
H109  H     H_    0.939504 0.987312 0.227661 0.148214
H110  H     H_    0.060057 0.985359 0.771899 0.148208
H111  H     H_    0.439353 0.488072 0.227510 0.148227
H112  H     H_    0.559619 0.483648 0.771459 0.148194
H113  H     H_    0.968763 0.947071 0.256358 0.210513
H114  H     H_    0.971531 0.055029 0.183848 0.164306
H115  H     H_    0.029511 0.946089 0.741924 0.210546
H116  H     H_    0.468104 0.447467 0.255701 0.210504
H117  H     H_    0.527962 0.445269 0.740381 0.210569
H118  H     H_    0.364455 0.969986 0.961294 0.208700
H119  H     H_    0.395687 0.948574 0.961397 0.211831
H120  H     H_    0.635545 0.969985 0.038707 0.208730
H121  H     H_    0.604313 0.948574 0.038605 0.211841
H122  H     H_    0.864454 0.469986 0.961294 0.208658
H123  H     H_    0.895687 0.448575 0.961397 0.211819
H124  H     H_    0.135545 0.469984 0.038707 0.208756
N1    N     N_3   0.383765 0.974629 0.956514 -0.563686
N2    N     N_3   0.052197 0.885982 0.001022 -0.550811
N3    N     N_3   0.447804 0.385979 0.998978 -0.550263
N4    N     N_3   0.552190 0.385982 0.001007 -0.551123
N5    N     N_3   0.929481 0.990555 0.140304 -0.570080
N6    N     N_3   0.070182 0.988280 0.859358 -0.570231
N7    N     N_3   0.429373 0.491438 0.140195 -0.570016
N8    N     N_3   0.569826 0.486284 0.858999 -0.570392
N9    N     N_3   0.616235 0.974628 0.043487 -0.563675
N10   N     N_3   0.883765 0.474629 0.956514 -0.563713
N11   N     N_3   0.116234 0.474627 0.043486 -0.563659
N12   N     N_3   0.022621 0.066457 0.314284 -0.583408
N13   N     N_3   0.979549 0.067155 0.687877 -0.583350
N14   N     N_3   0.523454 0.566164 0.315115 -0.583454
N15   N     N_3   0.481483 0.567716 0.689804 -0.583280
N16   N     N_3   0.947800 0.885979 0.998970 -0.550445
O1    O     O_R   0.054380 0.031500 0.554380 -0.588069
O2    O     O_R   0.554350 0.000140 0.019470 -0.549773
O3    O     O_R   0.945650 0.500140 0.980530 -0.549780
O4    O     O_R   0.054350 0.500140 0.019470 -0.549770
O5    O     O_R   0.499990 0.054510 0.965080 -0.586383
O6    O     O_R   0.500010 0.054510 0.034920 -0.586404
O7    O     O_R   0.999990 0.554510 0.965080 -0.586389
O8    O     O_R   0.000010 0.554510 0.034920 -0.586403
O9    O     O_R   0.054410 0.968530 0.554410 -0.587849
O10   O     O_R   0.945590 0.968530 0.445590 -0.587812
O11   O     O_R   0.554410 0.468530 0.554410 -0.587874
O12   O     O_R   0.945620 0.031500 0.445620 -0.588144
O13   O     O_R   0.445590 0.468530 0.445590 -0.587784
O14   O     O_R   1.000000 0.031500 0.439720 -0.574132
O15   O     O_R   0.000000 0.031500 0.560280 -0.574038
O16   O     O_R   0.500000 0.531500 0.439720 -0.574170
O17   O     O_R   0.500000 0.531500 0.560280 -0.573961
O18   O     O_R   0.000030 0.968530 0.439750 -0.579613
O19   O     O_R   0.999970 0.968530 0.560250 -0.579619
O20   O     O_R   0.500030 0.468530 0.439750 -0.579609
O21   O     O_R   0.499970 0.468530 0.560250 -0.579623
O22   O     O_R   0.031480 0.054290 0.031480 -0.590449
O23   O     O_R   0.554380 0.531500 0.554380 -0.588034
O24   O     O_R   0.968520 0.054290 0.968520 -0.590407
O25   O     O_R   0.531480 0.554290 0.031480 -0.590501
O26   O     O_R   0.468520 0.554290 0.968520 -0.590379
O27   O     O_R   0.031490 0.999900 0.091770 -0.585268
O28   O     O_R   0.968510 0.999900 0.908230 -0.584952
O29   O     O_R   0.531490 0.499900 0.091770 -0.585403
O30   O     O_R   0.468510 0.499900 0.908230 -0.584652
O31   O     O_R   0.968550 0.999920 0.028830 -0.567173
O32   O     O_R   0.031450 0.999920 0.971170 -0.567645
O33   O     O_R   0.468550 0.499920 0.028830 -0.566979
O34   O     O_R   0.445620 0.531500 0.445620 -0.588179
O35   O     O_R   0.531450 0.499920 0.971170 -0.568079
O36   O     O_R   0.031500 0.945500 0.031490 -0.558161
O37   O     O_R   0.968500 0.945500 0.968510 -0.557899
O38   O     O_R   0.531500 0.445500 0.031490 -0.558327
O39   O     O_R   0.468500 0.445500 0.968510 -0.557718
O40   O     O_R   0.500040 0.945720 0.965170 -0.588405
O41   O     O_R   0.499960 0.945720 0.034830 -0.588408
O42   O     O_R   0.000040 0.445720 0.965170 -0.588405
O43   O     O_R   0.999960 0.445720 0.034830 -0.588408
O44   O     O_R   0.445640 0.000120 0.910750 -0.593834
O45   O     O_R   0.554360 0.000120 0.089250 -0.593846
O46   O     O_R   0.945640 0.500120 0.910750 -0.593842
O47   O     O_R   0.054360 0.500120 0.089250 -0.593837
O48   O     O_R   0.445650 0.000140 0.980530 -0.549774

loop_
_geom_bond_atom_site_label_1
_geom_bond_atom_site_label_2
_ccdc_geom_bond_type
C118  H36   S    
C81   C178  S    
C14   C17   A    
C124  H42   S    
C28   C41   S    
C156  H52   S    
C182  O40   A    
C72   C75   A    
H25   N6    S    
C132  C136  S    
C122  H40   S    
C180  O37   A    
C101  C127  S    
C131  C135  S    
Cu2   O45   S    
C59   H100  S    
C108  C154  S    
C9    C14   A    
C64   C77   S    
C4    O46   A    
C91   C95   S    
C54   C56   S    
C108  O23   A    
C182  O41   A    
Cu3   O7    S    
C33   C38   A    
C145  C149  A    
C25   C84   S    
C61   H107  S    
C25   H97   S    
C87   C92   S    
C152  N7    S    
C62   H108  S    
C2    H115  S    
C36   C39   A    
C146  C168  A    
C8    C12   A    
C70   N16   S    
C69   H90   S    
C147  C151  A    
C60   H106  S    
Cu1   O14   S    
C25   C60   S    
C90   C100  T    
C183  O42   A    
C38   C40   A    
C26   C85   S    
C7    O8    A    
C69   C77   A    
C95   C163  S    
C73   C75   A    
C11   C16   A    
C94   C152  S    
Cu2   Cu12  S    
Cu3   Cu4   S    
C110  N10   S    
C13   C85   S    
C123  C132  A    
C6    O6    A    
C14   H66   S    
C38   H77   S    
C116  C121  A    
C34   H74   S    
C45   H80   S    
C1    C151  S    
C59   C92   S    
C51   H86   S    
Cu8   O36   S    
C104  C109  A    
C119  O34   A    
C102  C128  S    
Cu5   O34   S    
C8    C19   A    
C143  H43   S    
C27   C86   S    
C65   C70   A    
C107  N1    S    
C57   C81   T    
C60   C93   S    
H14   N16   S    
C172  H81   S    
C51   C53   A    
Cu10  O29   S    
C82   C179  S    
C174  H109  S    
Cu11  O33   S    
C31   C41   A    
C156  C160  A    
C49   H84   S    
H8    N14   S    
Cu10  O38   S    
C148  C153  A    
Cu7   O21   S    
C60   H101  S    
C93   C141  S    
C10   C15   A    
Cu8   Cu9   S    
H29   N8    S    
C109  N9    S    
C173  N14   S    
C43   C48   A    
C111  N11   S    
C181  O39   A    
C13   H111  S    
C139  C166  S    
C31   C36   A    
C34   C39   A    
C39   C169  S    
C119  C155  S    
Cu8   O32   S    
Br3   C152  S    
C161  H57   S    
C126  O15   A    
C47   C51   A    
C175  N15   S    
H26   N7    S    
C130  N5    S    
C69   C73   A    
Cu9   O31   S    
H18   N3    S    
H15   N2    S    
C174  H113  S    
Cu6   O19   S    
C157  C161  A    
C83   C174  S    
C22   C28   T    
C12   C17   A    
C179  O30   A    
H120  N9    S    
C3    C113  S    
C143  C147  A    
C57   C94   S    
C158  H54   S    
C17   C182  S    
C50   H85   S    
C140  C167  S    
C79   C99   T    
H19   N4    S    
C40   C170  S    
C105  H32   S    
H16   N2    S    
Cu2   O48   S    
C2    C84   S    
C9    C19   A    
C114  C118  A    
C178  O33   A    
C10   C20   A    
C149  C154  A    
C86   C98   S    
H27   N7    S    
H3    N11   S    
C32   C42   A    
Cu3   O4    S    
H21   N5    S    
C74   C180  S    
C12   H65   S    
C106  H33   S    
Cu5   O17   S    
C4    O3    A    
H123  N10   S    
Cu1   Cu6   S    
C88   C93   S    
C44   C49   A    
Cu9   O28   S    
C84   C90   S    
C3    O45   A    
H121  N9    S    
C183  O43   A    
Cu11  O26   S    
C172  N13   S    
C104  C131  A    
C25   H93   S    
C89   C173  S    
C26   H98   S    
C92   C130  S    
C112  C116  A    
C23   C83   S    
C120  H38   S    
Cu4   O3    S    
C32   H72   S    
C87   H1    S    
C159  H55   S    
Cu8   O22   S    
C171  N12   S    
C109  C113  A    
C105  C110  A    
C11   C20   A    
C111  C115  A    
C5    O4    A    
C103  H30   S    
C88   H2    S    
C15   H67   S    
C49   C52   A    
C146  H46   S    
C145  C167  A    
C103  C107  A    
C144  C148  A    
Cu11  O30   S    
C79   C83   S    
C83   C171  S    
C149  H50   S    
C45   C55   A    
Cu4   O43   S    
C128  O17   A    
C184  O48   A    
C159  C164  A    
C150  C155  A    
H20   N4    S    
Cu6   O9    S    
C5    O47   A    
C108  O11   A    
Cu1   O12   S    
C26   C61   S    
Cu3   O46   S    
C66   C71   A    
C144  H44   S    
C23   H91   S    
H4    N12   S    
C21   C29   T    
C67   C77   A    
C68   C95   S    
C125  O14   A    
Cu2   O41   S    
Cu12  O2    S    
C123  H41   S    
C16   H68   S    
C46   C80   T    
C88   C172  S    
Br2   C141  S    
H6    N13   S    
C62   H104  S    
C126  O19   A    
C162  H58   S    
C61   C94   S    
C147  H47   S    
C67   C72   A    
Cu3   O42   S    
C170  O25   A    
Cu11  O39   S    
C173  H92   S    
C158  C162  A    
Cu5   O23   S    
H119  N1    S    
C46   C93   S    
C127  O20   A    
C1    O9    A    
C47   H82   S    
C107  C112  A    
C9    H62   S    
C120  C124  A    
H9    N14   S    
C97   C153  S    
C129  C134  S    
C100  C126  S    
C29   C42   S    
C32   C37   A    
C160  H56   S    
Cu12  O44   S    
C87   H114  S    
C27   H95   S    
H17   N3    S    
C85   C96   S    
C89   H13   S    
C178  O29   A    
C7    O7    A    
C35   C78   T    
C134  C138  T    
C2    C141  S    
C36   H75   S    
C181  O38   A    
C66   C76   A    
C119  O13   A    
C177  O32   A    
H12   N16   S    
C24   H112  S    
C130  C174  S    
H23   N6    S    
C99   C125  S    
C171  H70   S    
Cu1   O15   S    
C23   C59   S    
C137  C142  T    
C138  C165  S    
C65   H87   S    
Cu9   O24   S    
C16   C18   A    
C122  C131  A    
C66   H88   S    
C37   C40   A    
C153  C157  A    
C26   H94   S    
C44   H79   S    
C161  C166  A    
H7    N13   S    
C133  C137  S    
C145  H45   S    
C176  O27   A    
C106  C133  A    
C63   C76   S    
C136  C140  T    
C6    O5    A    
C20   C22   S    
C84   C172  S    
C68   C82   T    
C44   C54   A    
Cu10  O25   S    
Br4   C163  S    
Cu9   O37   S    
Cu10  O35   S    
Cu7   O11   S    
C164  H60   S    
C103  C129  A    
C24   H117  S    
C48   H83   S    
C2    H110  S    
C177  O28   A    
C8    H61   S    
C10   H63   S    
Cu4   O8    S    
C164  C168  A    
C169  O22   A    
C56   C64   T    
C70   C74   A    
C71   N2    S    
C24   C86   S    
C33   C42   A    
C7    C53   S    
C13   C152  S    
C106  C111  A    
Cu5   O16   S    
C27   C62   S    
C104  H31   S    
C142  C168  S    
C128  O21   A    
C59   H105  S    
C23   H96   S    
C157  H53   S    
C4    C114  S    
H22   N5    S    
C115  C120  A    
C91   H59   S    
Cu12  O5    S    
C112  C184  S    
C96   C101  T    
C58   C63   T    
Cu2   O6    S    
C80   C177  S    
C150  H51   S    
Cu7   O13   S    
C45   C50   A    
C118  C123  A    
H10   N15   S    
C18   C183  S    
C113  C117  A    
C11   H64   S    
C24   C163  S    
C116  H34   S    
C125  O18   A    
Cu5   Cu7   S    
C97   O10   A    
C144  C166  A    
C30   H69   S    
Cu10  Cu11  S    
C85   C173  S    
C6    C52   S    
Cu6   O18   S    
C121  H39   S    
Cu4   O47   S    
C33   H73   S    
H124  N11   S    
C170  O26   A    
C162  C167  A    
C179  O35   A    
C105  C132  A    
C160  C165  A    
C135  C139  T    
C148  H49   S    
H122  N10   S    
C88   H37   S    
C13   H116  S    
C15   C18   A    
C117  H35   S    
C127  O16   A    
H11   N15   S    
H118  N1    S    
C62   C95   S    
C124  C133  A    
C89   H48   S    
C169  O24   A    
Cu6   O10   S    
C87   C171  S    
C30   C41   A    
Cu12  O40   S    
C175  H103  S    
C180  O36   A    
C110  C114  A    
C37   H76   S    
C27   H99   S    
C91   C175  S    
Cu7   O20   S    
C5    C115  S    
C155  C159  A    
H5    N12   S    
C3    O2    A    
C47   C55   A    
Br1   C130  S    
C184  O44   A    
C121  C129  A    
C86   C175  S    
C55   C58   S    
C75   C181  S    
C151  C156  A    
C30   C34   A    
C31   H71   S    
Cu8   O27   S    
C43   H78   S    
C61   H102  S    
C91   H24   S    
C1    O1    A    
C117  C122  A    
C163  N8    S    
C43   C54   A    
H28   N8    S    
Cu1   O1    S    
C97   O12   A    
C73   N4    S    
C98   C102  T    
C19   C21   S    
C141  N6    S    
C71   C74   A    
C35   C92   S    
C154  C158  A    
C143  C165  A    
C146  C150  A    
C176  O31   A    
C78   C176  S    
C65   C76   A    
C67   H89   S    
C89   C94   S    
C50   C53   A    
C48   C52   A    
C72   N3    S    
