data_mof_unit_57579.cif
_audit_creation_date              2012-12-10T16:44:46-0500
_audit_creation_method            fapswitch 2.2
_symmetry_space_group_name_H-M    P1
_symmetry_Int_Tables_number       1
_space_group_crystal_system       triclinic
_cell_length_a                    15.040095
_cell_length_b                    8.736389
_cell_length_c                    7.430443
_cell_angle_alpha                 102.135381
_cell_angle_beta                  94.618303
_cell_angle_gamma                 92.581308
_cell_volume                      949.489449865

loop_
_atom_site_label
_atom_site_type_symbol
_atom_type_description
_atom_site_fract_x
_atom_site_fract_y
_atom_site_fract_z
_atom_type_partial_charge
C1    C     C_R   0.494236 0.200701 0.455567 0.883364
C2    C     C_R   0.505764 0.799299 0.544433 0.883364
C3    C     C_R   0.030828 0.388555 0.169198 -0.213026
C4    C     C_R   0.969172 0.611451 0.830798 -0.213027
C5    C     C_2   0.477952 0.035633 0.438661 -0.029649
C6    C     C_2   0.522047 0.964367 0.561339 -0.029649
C7    C     C_R   0.328688 0.498852 0.501517 0.804930
C8    C     C_R   0.671312 0.501148 0.498483 0.804929
C9    C     C_R   0.822275 0.557030 0.663038 -0.250885
C10   C     C_R   0.177725 0.442980 0.336962 -0.250886
C11   C     C_R   0.768091 0.503057 0.496875 -0.067699
C12   C     C_R   0.231909 0.496943 0.503125 -0.067700
C13   C     C_R   0.806520 0.449379 0.331415 -0.253757
C14   C     C_R   0.193480 0.550612 0.668584 -0.253760
C15   C     C_R   0.899093 0.447017 0.331632 0.102504
C16   C     C_R   0.100906 0.552978 0.668367 0.102504
C17   C     C_R   0.953451 0.501015 0.499217 0.066547
C18   C     C_R   0.046549 0.498982 0.500783 0.066551
C19   C     C_R   0.914793 0.556958 0.665293 0.099548
C20   C     C_R   0.085207 0.443046 0.334707 0.099547
C21   C     C_R   0.938186 0.390714 0.167610 -0.218995
C22   C     C_R   0.061813 0.609285 0.832386 -0.219003
Cu1   Cu    Cu3+1 0.510010 0.517380 0.684380 0.938002
Cu2   Cu    Cu3+1 0.489990 0.482620 0.315620 0.938002
H1    H     H_    0.764475 0.407240 0.203300 0.158381
H2    H     H_    0.235524 0.592743 0.796698 0.158383
H3    H     H_    0.059964 0.344801 0.041017 0.156636
H4    H     H_    0.940036 0.655211 0.958976 0.156636
H5    H     H_    0.430611 0.377686 0.948286 0.226019
H6    H     H_    0.569389 0.622314 0.051714 0.226019
N1    N     N_2   0.474890 0.456420 0.038520 -0.221568
N2    N     N_2   0.525110 0.543580 0.961480 -0.221568
O1    O     O_R   0.506510 0.286130 0.619770 -0.592530
O2    O     O_R   0.493490 0.713870 0.380230 -0.592530
O3    O     O_R   0.489600 0.256770 0.308360 -0.583656
O4    O     O_R   0.510400 0.743230 0.691640 -0.583656
O5    O     O_R   0.378710 0.514640 0.655720 -0.593207
O6    O     O_R   0.621290 0.485360 0.344280 -0.593206
O7    O     O_R   0.361800 0.485290 0.344300 -0.589974
O8    O     O_R   0.638200 0.514710 0.655700 -0.589973
H7    H     H_    0.792524 0.599678 0.790906 0.155467
H8    H     H_    0.207476 0.400342 0.209092 0.155470
H9    H     H_    0.897174 0.348724 0.038252 0.153890
H10   H     H_    0.102825 0.651277 0.961740 0.153892
C23   C     C_3   0.403809 0.954962 0.293680 -0.845593
H11   H     H_    0.364384 0.041362 0.236700 0.223420
H12   H     H_    0.432516 0.879104 0.176054 0.263523
H13   H     H_    0.356063 0.884711 0.355411 0.228309
C24   C     C_3   0.596191 0.045038 0.706321 -0.845594
H14   H     H_    0.635616 0.958638 0.763301 0.223420
H15   H     H_    0.643937 0.115289 0.644590 0.228309
H16   H     H_    0.567484 0.120896 0.823946 0.263523

loop_
_geom_bond_atom_site_label_1
_geom_bond_atom_site_label_2
_ccdc_geom_bond_type
Cu1   O1    S    
Cu2   O6    S    
Cu1   Cu2   S    
C10   H8    S    
C4    C22   A    
C9    H7    S    
N1    N2    D    
C9    C11   A    
C24   H16   S    
Cu1   N2    S    
C2    O2    A    
C3    H3    S    
C17   C18   A    
C7    O5    A    
Cu2   N1    S    
C1    O1    A    
C3    C20   A    
H5    N1    S    
C21   H9    S    
C23   H11   S    
C14   H2    S    
H6    N2    S    
C11   C13   A    
C13   H1    S    
C2    C6    S    
C10   C12   A    
C8    O6    A    
C8    C11   S    
C1    C5    S    
C17   C19   A    
C12   C14   A    
Cu1   O4    S    
C18   C20   A    
C13   C15   A    
C6    C24   S    
C5    C6    D    
C14   C16   A    
C7    C12   S    
C3    C21   A    
Cu2   O3    S    
Cu1   O8    S    
C15   C21   A    
Cu2   O7    S    
C8    O8    A    
C1    O3    A    
C16   C18   A    
C24   H14   S    
C23   H12   S    
C2    O4    A    
C15   C17   A    
C7    O7    A    
C16   C22   A    
C23   H13   S    
C4    H4    S    
Cu1   O5    S    
C4    C19   A    
C5    C23   S    
C9    C19   A    
C22   H10   S    
C10   C20   A    
C24   H15   S    
Cu2   O2    S    
