data_mof_unit_21550.cif
_audit_creation_date              2012-12-11T16:29:24-0500
_audit_creation_method            fapswitch 2.2
_symmetry_space_group_name_H-M    P1
_symmetry_Int_Tables_number       1
_space_group_crystal_system       triclinic
_cell_length_a                    6.952491
_cell_length_b                    17.291883
_cell_length_c                    18.808002
_cell_angle_alpha                 106.205925
_cell_angle_beta                  89.650667
_cell_angle_gamma                 90.470519
_cell_volume                      2171.19262338

loop_
_atom_site_label
_atom_site_type_symbol
_atom_type_description
_atom_site_fract_x
_atom_site_fract_y
_atom_site_fract_z
_atom_type_partial_charge
O1    O     O_R   0.494360 0.415680 0.413760 -0.525630
O2    O     O_R   0.818810 0.432910 0.557230 -0.532042
O3    O     O_R   0.994290 0.584320 0.586240 -0.532569
C1    C     C_R   0.650108 0.417349 0.581806 0.745871
O4    O     O_R   0.823740 0.406440 0.412520 -0.530735
O5    O     O_R   0.999250 0.557660 0.440500 -0.514038
C2    C     C_R   0.654770 0.382636 0.385312 0.868969
O6    O     O_R   0.489400 0.442340 0.559500 -0.518217
O7    O     O_3   0.662500 0.549650 0.509350 -0.360719
V1    V     V_3+5 0.935340 0.490790 0.498270 1.412096
O8    O     O_R   0.329270 0.567090 0.442770 -0.532866
C3    C     C_R   0.161207 0.584249 0.419576 0.706291
O9    O     O_R   0.324340 0.593560 0.587480 -0.536246
C4    C     C_R   0.155470 0.616295 0.615217 0.695634
V2    V     V_3+5 0.435970 0.509210 0.501730 1.412249
O10   O     O_3   0.158940 0.450350 0.490650 -0.367750
H1    H     H_    0.355465 0.861797 0.556370 0.124713
C5    C     C_R   0.038287 0.594469 0.755941 -0.149323
C6    C     C_R   0.983079 0.581230 0.822877 -0.102245
C7    C     C_R   0.974307 0.645202 0.886683 -0.101458
C8    C     C_R   0.019404 0.722952 0.883926 -0.142764
C9    C     C_R   0.073150 0.738780 0.816437 0.064269
C10   C     C_R   0.084216 0.672872 0.751269 0.071757
C11   C     C_R   0.116751 0.818458 0.813632 -0.181958
C12   C     C_R   0.170658 0.832457 0.744585 0.034231
C13   C     C_R   0.193963 0.764577 0.680695 0.055150
C14   C     C_R   0.145623 0.685573 0.683526 -0.173768
C15   C     C_R   0.200055 0.911315 0.734952 0.104397
C16   C     C_R   0.271044 0.920031 0.667913 -0.112568
C17   C     C_R   0.303392 0.853678 0.608204 -0.156598
C18   C     C_R   0.260902 0.777160 0.613589 -0.138604
H2    H     H_    0.046125 0.542330 0.708212 0.105193
H3    H     H_    0.948503 0.520864 0.825337 0.138701
H4    H     H_    0.932914 0.634536 0.938746 0.133410
H5    H     H_    0.011836 0.770152 0.935523 0.097352
H6    H     H_    0.295854 0.979392 0.660913 0.139357
H7    H     H_    0.280925 0.728121 0.563983 0.111384
C19   C     C_1   0.111541 0.863841 0.132577 -0.213068
C20   C     C_1   0.118965 0.821250 0.176141 0.001101
C21   C     C_1   0.128368 0.771038 0.228045 -0.000123
C22   C     C_1   0.136461 0.728789 0.271889 -0.000667
C23   C     C_1   0.145976 0.678689 0.323869 -0.000461
C24   C     C_1   0.153527 0.636238 0.367530 -0.239536
C25   C     C_1   0.641719 0.366015 0.634410 -0.235524
C26   C     C_1   0.637557 0.323410 0.677975 0.000666
C27   C     C_1   0.634159 0.272847 0.729585 0.018229
C28   C     C_1   0.631620 0.230118 0.773056 0.040152
C29   C     C_1   0.628224 0.179328 0.824453 0.075915
C30   C     C_1   0.624031 0.136280 0.867619 -0.110740
H8    H     H_    0.601107 0.113646 0.435920 0.119571
C31   C     C_R   0.724820 0.408395 0.236480 0.220618
C32   C     C_R   0.743557 0.419062 0.165672 -0.205841
C33   C     C_R   0.670136 0.362658 0.104348 0.196953
C34   C     C_R   0.589203 0.291331 0.112504 0.075402
C35   C     C_R   0.619214 0.269678 0.179158 -0.039115
C36   C     C_R   0.663510 0.332046 0.244961 0.004950
C37   C     C_R   0.615535 0.188095 0.181100 -0.121897
C38   C     C_R   0.626337 0.170377 0.249950 0.034528
C39   C     C_R   0.620228 0.233630 0.317540 0.023181
C40   C     C_R   0.644669 0.315445 0.315339 -0.179569
C41   C     C_R   0.637560 0.089395 0.252391 -0.149296
C42   C     C_R   0.637838 0.070263 0.319152 -0.165784
C43   C     C_R   0.614480 0.130319 0.384690 -0.161339
C44   C     C_R   0.596865 0.211094 0.384787 0.256876
H9    H     H_    0.802362 0.474906 0.159180 0.157669
H10   H     H_    0.646689 0.039552 0.202740 0.110170
H11   H     H_    0.647676 0.008017 0.319834 0.131091
O11   O     O_R   0.775690 0.057750 0.940570 -0.511152
O12   O     O_R   0.441200 0.093570 0.087490 -0.524957
O13   O     O_R   0.265840 0.942320 0.059480 -0.526798
C45   C     C_R   0.610016 0.120304 0.111774 0.723421
O14   O     O_R   0.446270 0.067110 0.942790 -0.505009
O15   O     O_R   0.270950 0.915660 0.913750 -0.529123
C46   C     C_R   0.615311 0.083900 0.919256 0.766296
O16   O     O_R   0.770580 0.084400 0.086300 -0.536921
O17   O     O_3   0.602640 0.950400 0.990690 -0.371284
V3    V     V_3+5 0.329740 0.009200 0.001730 1.510507
O18   O     O_R   0.940900 0.906360 0.912450 -0.533781
C47   C     C_R   0.109463 0.885131 0.883610 0.745595
O19   O     O_R   0.935830 0.932820 0.057160 -0.533147
C48   C     C_R   0.103873 0.915867 0.080544 0.695244
V4    V     V_3+5 0.829130 0.990680 0.998180 1.472159
O20   O     O_3   0.106100 0.049590 0.009310 -0.332470
N1    N     N_2   0.778770 0.473978 0.297422 -0.522376
H12   H     H_    0.919927 0.491400 0.294051 0.252818
C49   C     C_3   0.648935 0.541661 0.311811 -0.478112
H13   H     H_    0.684085 0.584897 0.365945 0.205676
H14   H     H_    0.497930 0.520849 0.313603 0.194046
H15   H     H_    0.663015 0.573307 0.268090 0.175689
I1    I     I_    0.675846 0.391787 0.001832 -0.362434
I2    I     I_    0.346718 0.246672 0.044037 -0.313926
N2    N     N_2   0.535038 0.266455 0.451595 -0.550891
H16   H     H_    0.603173 0.257756 0.497240 0.235930
C50   C     C_3   0.327887 0.267296 0.460679 -0.467974
H17   H     H_    0.287444 0.310901 0.513929 0.200649
H18   H     H_    0.273869 0.206867 0.461562 0.168589
H19   H     H_    0.257624 0.285192 0.414811 0.205994
I3    I     I_    0.117143 0.024795 0.807128 -0.407295

loop_
_geom_bond_atom_site_label_1
_geom_bond_atom_site_label_2
_ccdc_geom_bond_type
C35   C36   A    
H1    C17   S    
C22   C23   S    
O12   V3    S    
C6    C7    A    
C1    O6    A    
C33   C34   A    
C25   C26   T    
C12   C15   A    
C16   H6    S    
C13   C14   A    
C16   C17   A    
C42   H11   S    
C15   C16   A    
N1    C49   S    
C31   C36   A    
C3    C24   S    
O5    C3    A    
C17   C18   A    
C49   H14   S    
V3    O20   S    
O11   C46   A    
V2    O10   S    
C5    C6    A    
O12   C45   A    
O13   C48   A    
C27   C28   T    
O8    V2    S    
C41   H10   S    
O1    V2    S    
C10   C14   A    
C4    C14   S    
O7    V1    S    
C7    H4    S    
C38   C41   A    
C39   C40   A    
C30   C46   S    
O1    C2    A    
O9    C4    A    
O13   V3    S    
H8    C43   S    
C41   C42   A    
O17   V3    S    
C31   C32   A    
C11   C12   A    
O14   C46   A    
C6    H3    S    
O17   V4    S    
C20   C21   S    
O4    C2    A    
O18   C47   A    
C1    C25   S    
C50   H19   S    
C38   C39   A    
C26   C27   S    
C37   C45   S    
C5    C10   A    
C18   H7    S    
O2    C1    A    
O14   V3    S    
O18   V4    S    
C11   C47   S    
C28   C29   S    
C42   C43   A    
N2    C50   S    
O15   C47   A    
N1    H12   S    
C50   H18   S    
O3    C4    A    
O19   V4    S    
C29   C30   T    
O6    V2    S    
C35   C37   A    
C19   C48   S    
C9    C11   A    
C5    H2    S    
C23   C24   T    
C44   N2    S    
O2    V1    S    
C2    C40   S    
C32   C33   A    
C15   I3    S    
C34   C35   A    
C21   C22   T    
C49   H13   S    
C13   C18   A    
O19   C48   A    
C49   H15   S    
O5    V1    S    
O8    C3    A    
O16   V4    S    
C8    H5    S    
O11   V4    S    
O9    V2    S    
C12   C13   A    
C34   I2    S    
O3    V1    S    
V1    O10   S    
C45   O16   A    
C37   C38   A    
C19   C20   T    
N2    H16   S    
O7    V2    S    
C50   H17   S    
C43   C44   A    
C39   C44   A    
O4    V1    S    
C36   C40   A    
C7    C8    A    
V4    O20   S    
C33   I1    S    
O15   V3    S    
C9    C10   A    
C8    C9    A    
C31   N1    S    
C32   H9    S    
