data_mof_unit_33625.cif
_audit_creation_date              2012-12-11T16:34:35-0500
_audit_creation_method            fapswitch 2.2
_symmetry_space_group_name_H-M    P1
_symmetry_Int_Tables_number       1
_space_group_crystal_system       triclinic
_cell_length_a                    8.278756
_cell_length_b                    17.383775
_cell_length_c                    27.037933
_cell_angle_alpha                 95.865196
_cell_angle_beta                  92.388057
_cell_angle_gamma                 83.956852
_cell_volume                      3847.43188481

loop_
_atom_site_label
_atom_site_type_symbol
_atom_type_description
_atom_site_fract_x
_atom_site_fract_y
_atom_site_fract_z
_atom_type_partial_charge
Ba1   Ba    Ba6+2 0.856110 0.463800 0.523550 1.650775
Ba2   Ba    Ba6+2 0.333710 0.536130 0.476450 1.649296
C1    C     C_3   0.657352 0.188422 0.655918 -0.353307
C2    C     C_R   0.899378 0.577092 0.176122 0.578136
C3    C     C_2   0.764821 0.553107 0.273132 -0.090562
C4    C     C_3   0.171638 0.293632 0.658824 0.289418
C5    C     C_3   0.743568 0.580596 0.327477 -0.063987
C6    C     C_1   0.988564 0.493886 0.344478 0.056908
C7    C     C_2   0.032442 0.492102 0.297126 -0.106323
C8    C     C_2   0.912179 0.520139 0.257357 0.187463
C9    C     C_R   0.028404 0.509279 0.101983 -0.080884
C10   C     C_R   0.088255 0.448458 0.130712 -0.035012
C11   C     C_R   0.188338 0.385433 0.107969 -0.058431
C12   C     C_3   0.662554 0.266901 0.636298 0.338489
C13   C     C_R   0.931600 0.573400 0.124904 -0.024100
C14   C     C_2   0.854946 0.534661 0.361592 -0.288688
C15   C     C_2   0.350359 0.478331 0.640222 -0.296520
C16   C     C_3   0.156879 0.273299 0.711638 -0.342761
C17   C     C_R   0.210624 0.441311 0.976821 0.019838
C18   C     C_R   0.033019 0.563466 0.969908 0.019499
C19   C     C_R   0.140787 0.501278 0.947908 0.051110
C20   C     C_R   0.320055 0.381963 0.953221 -0.099358
C21   C     C_R   0.356780 0.380723 0.903205 -0.057365
C22   C     C_R   0.287230 0.438710 0.874105 -0.029283
C23   C     C_3   0.501664 0.656783 0.625833 0.261149
C24   C     C_R   0.179383 0.499203 0.896436 -0.078804
C25   C     C_R   0.110450 0.557824 0.867320 -0.037027
C26   C     C_R   0.152095 0.556156 0.816803 0.610951
C27   C     C_R   0.323990 0.437385 0.823177 0.580389
C28   C     C_3   0.235916 0.290789 0.394024 0.381108
C29   C     C_2   0.455805 0.484645 0.728376 -0.037191
C30   C     C_3   0.497391 0.488188 0.674395 -0.036905
C31   C     C_1   0.208129 0.510494 0.655487 0.060658
C32   C     C_2   0.168310 0.508757 0.702576 -0.120446
C33   C     C_2   0.298481 0.495247 0.742490 0.186677
C34   C     C_3   0.458222 0.686892 0.679296 -0.192547
C35   C     C_R   0.169775 0.442780 0.028034 0.019995
C36   C     C_R   0.065761 0.506325 0.050307 0.049491
C37   C     C_R   0.998989 0.567228 0.021630 0.020763
C38   C     C_R   0.229055 0.382775 0.058110 -0.098247
C39   C     C_R   0.869363 0.633694 0.096416 -0.058378
C40   C     C_3   0.285699 0.221423 0.356198 -0.080556
C41   C     C_R   0.962497 0.619960 0.939032 -0.099626
C42   C     C_R   0.000980 0.617312 0.889179 -0.047358
C43   C     C_R   0.901191 0.630656 0.046125 -0.101120
C44   C     C_R   0.410420 0.278788 0.520862 -0.260021
C45   C     C_3   0.027253 0.717376 0.338951 0.338619
C46   C     C_R   0.550635 0.254520 0.494496 0.065212
C47   C     C_R   0.607795 0.175509 0.488706 -0.169068
C48   C     C_R   0.522074 0.120448 0.508074 0.013339
C49   C     C_R   0.375511 0.144784 0.532750 0.069376
C50   C     C_R   0.318993 0.224769 0.538577 0.007685
C51   C     C_R   0.581546 0.835389 0.503432 -0.104747
C52   C     C_3   0.955968 0.709853 0.606890 0.336128
C53   C     C_R   0.631063 0.755637 0.497916 0.057948
C54   C     C_R   0.864572 0.778401 0.452744 0.015684
C55   C     C_R   0.817797 0.858874 0.458808 -0.073846
C56   C     C_3   0.042202 0.746964 0.288581 -0.371350
C57   C     C_R   0.672511 0.887366 0.482884 0.017675
C58   C     C_1   0.623881 0.969977 0.491280 0.029852
C59   C     C_1   0.578998 0.038592 0.499008 0.049420
C60   C     C_R   0.761875 0.727363 0.468105 -0.253290
C61   C     C_3   0.982681 0.794006 0.625900 -0.141903
C62   C     C_3   0.680513 0.373769 0.376224 0.286963
C63   C     C_3   0.692160 0.354060 0.320346 -0.360948
C64   C     C_2   0.861020 0.853031 0.605092 0.841776
C65   C     C_2   0.607486 0.700702 0.711056 0.879161
C66   C     C_3   0.494102 0.742437 0.357552 0.384236
C67   C     C_3   0.454435 0.816809 0.332476 -0.357505
C68   C     C_R   0.046247 0.451516 0.181549 0.597792
H1    H     H_    0.775545 0.265105 0.615290 0.105954
H2    H     H_    0.793447 0.308212 0.312088 0.139131
H3    H     H_    0.714095 0.406085 0.302234 0.071174
H4    H     H_    0.576977 0.333120 0.304794 0.122118
H5    H     H_    0.555179 0.276994 0.611162 -0.042330
H6    H     H_    0.653261 0.142356 0.624224 0.086802
H7    H     H_    0.391932 0.633730 0.607448 0.042601
H8    H     H_    0.600985 0.608532 0.625928 -0.003964
H9    H     H_    0.376101 0.741783 0.679542 0.103874
H10   H     H_    0.390714 0.643908 0.695397 0.020966
H11   H     H_    0.547640 0.189073 0.678479 0.125246
H12   H     H_    0.338238 0.242962 0.323909 0.106172
H13   H     H_    0.212690 0.316594 0.738159 0.126003
H14   H     H_    0.073813 0.654850 0.336617 0.058407
H15   H     H_    0.896702 0.724694 0.347687 -0.057374
H16   H     H_    0.168932 0.734702 0.276077 0.149598
H17   H     H_    0.961331 0.717379 0.260890 0.144388
H18   H     H_    0.005705 0.810601 0.290809 0.114121
H19   H     H_    0.628347 0.732872 0.361594 -0.090984
H20   H     H_    0.442465 0.750773 0.395193 0.078448
H21   H     H_    0.508373 0.865405 0.354904 0.067618
H22   H     H_    0.321260 0.831787 0.329212 0.149493
H23   H     H_    0.176775 0.193017 0.342171 0.118979
H24   H     H_    0.110583 0.353086 0.656449 0.077968
H25   H     H_    0.505627 0.809489 0.294777 0.120473
H26   H     H_    0.156688 0.472173 0.287337 0.144391
H27   H     H_    0.237283 0.337565 0.128857 0.120747
H28   H     H_    0.554140 0.478991 0.756027 0.124396
H29   H     H_    0.441585 0.333748 0.887368 0.123974
H30   H     H_    0.381689 0.335568 0.972509 0.070300
H31   H     H_    0.306480 0.331851 0.044198 0.069686
H32   H     H_    0.667874 0.569887 0.246903 0.127455
H33   H     H_    0.794052 0.684064 0.112963 0.122855
H34   H     H_    0.838728 0.696141 0.620030 0.097447
H35   H     H_    0.874778 0.667125 0.951942 0.072661
H36   H     H_    0.302480 0.292479 0.651035 -0.022486
H37   H     H_    0.943372 0.662482 0.867604 0.135109
H38   H     H_    0.042414 0.520123 0.712843 0.154732
H39   H     H_    0.848741 0.680302 0.027821 0.070279
H40   H     H_    0.840026 0.548423 0.401273 0.080477
H41   H     H_    0.362613 0.449302 0.602852 0.073558
H42   H     H_    0.477821 0.857106 0.525792 0.096342
H43   H     H_    0.896400 0.898815 0.446674 0.075494
H44   H     H_    0.715816 0.156701 0.467680 0.090311
H45   H     H_    0.978433 0.801945 0.667094 0.072060
H46   H     H_    0.366127 0.339782 0.524689 0.071187
H47   H     H_    0.026841 0.273888 0.720344 0.139731
H48   H     H_    0.797058 0.665470 0.462960 0.054976
H49   H     H_    0.220202 0.214729 0.715906 0.125168
H50   H     H_    0.343682 0.322022 0.404349 0.045513
H51   H     H_    0.507913 0.189088 0.388359 0.199146
H52   H     H_    0.354342 0.144320 0.407994 0.185912
H53   H     H_    0.914626 0.647558 0.540241 0.158185
H54   H     H_    0.079564 0.696636 0.541938 0.228975
H55   H     H_    0.632435 0.905068 0.604836 0.307081
H56   H     H_    0.106745 0.804862 0.616072 0.082646
H57   H     H_    0.786922 0.769281 0.729637 0.313416
H58   H     H_    0.260943 0.103692 0.588148 0.196829
H59   H     H_    0.171308 0.089353 0.530086 0.198633
H60   H     H_    0.083640 0.227437 0.429160 0.185666
H61   H     H_    0.122745 0.313416 0.459969 0.210776
H62   H     H_    0.796129 0.393647 0.391461 0.029936
H63   H     H_    0.581037 0.420798 0.383446 0.085337
H64   H     H_    0.768118 0.174848 0.679403 0.139374
N1    N     N_R   0.953007 0.515837 0.204327 -0.418917
N2    N     N_R   0.257320 0.496031 0.794883 -0.424776
N3    N     N_3   0.402719 0.163533 0.376825 -0.513361
N4    N     N_3   0.959574 0.700266 0.552846 -0.536413
N5    N     N_3   0.283666 0.087999 0.550110 -0.485800
N6    N     N_3   0.175086 0.264746 0.438455 -0.535568
O1    O     O_2   0.910880 0.540430 0.617910 -0.479791
O2    O     O_2   0.198909 0.774982 0.468744 -0.472980
O3    O     O_3   0.118569 0.760113 0.374727 -0.595754
O4    O     O_3   0.142880 0.540370 0.557740 -0.475503
O5    O     O_3   0.562610 0.408580 0.475460 -0.490262
O6    O     O_2   0.365880 0.685750 0.523280 -0.456617
O7    O     O_3   0.550651 0.717500 0.601260 -0.600430
O8    O     O_2   0.428846 0.528463 0.322732 -0.493291
O9    O     O_3   0.427416 0.680268 0.328951 -0.581415
O10   O     O_2   0.091157 0.396209 0.205029 -0.601717
O11   O     O_2   0.414508 0.383444 0.804007 -0.597552
O12   O     O_3   0.649670 0.306920 0.397348 -0.652657
O13   O     O_2   0.824479 0.635991 0.195565 -0.624986
O14   O     O_2   0.096520 0.609219 0.792762 -0.580341
O15   O     O_3   0.675650 0.402220 0.588450 -0.489174
O16   O     O_2   0.834395 0.439576 0.673153 -0.488278
O17   O     O_3   0.082802 0.662860 0.627576 -0.647850
O18   O     O_3   0.658777 0.325204 0.676301 -0.591468
O19   O     O_2   0.823810 0.314230 0.476690 -0.451992
O20   O     O_3   0.086630 0.363340 0.564170 -0.487888
O21   O     O_2   0.979911 0.226415 0.534605 -0.484394
O22   O     O_2   0.905514 0.896376 0.576708 -0.617076
O23   O     O_3   0.096574 0.239691 0.625737 -0.604703
O24   O     O_R   0.699702 0.860597 0.619568 -0.700474
O25   O     O_2   0.656500 0.655457 0.741518 -0.611816
O26   O     O_R   0.688719 0.765889 0.706045 -0.709666
O27   O     O_2   0.278810 0.459550 0.382060 -0.476738
O28   O     O_3   0.046820 0.459570 0.442260 -0.486876
O29   O     O_3   0.514050 0.597710 0.411540 -0.478797
O30   O     O_3   0.111687 0.336924 0.371060 -0.645686
O31   O     O_3   0.627090 0.591350 0.524530 -0.484523
O32   O     O_3   0.103080 0.636600 0.435820 -0.480620
P1    P     P_3+3 0.078810 0.562990 0.610370 0.997221
P2    P     P_3+3 0.645380 0.325580 0.462150 0.975836
P3    P     P_3+3 0.120603 0.262358 0.565086 0.933357
P4    P     P_3+3 0.110900 0.436950 0.389630 0.985236
P5    P     P_3+3 0.070341 0.737822 0.433482 0.963029
P6    P     P_3+3 0.667588 0.415411 0.653313 0.982970
P7    P     P_3+3 0.550133 0.689285 0.537242 0.973982
P8    P     P_3+3 0.528140 0.593637 0.347114 0.955853

loop_
_geom_bond_atom_site_label_1
_geom_bond_atom_site_label_2
_ccdc_geom_bond_type
O32   P5    S    
O1    P1    D    
C19   C24   A    
C44   C50   A    
C40   H23   S    
Ba2   O4    S    
C12   H1    S    
C21   H29   S    
C40   H12   S    
O23   P3    S    
C56   H17   S    
C51   C57   A    
C34   C65   S    
C14   H40   S    
C5    P8    S    
O30   P4    S    
Ba2   O5    S    
H53   N4    S    
Ba1   P1    S    
C24   C25   A    
C62   O12   S    
C23   H7    S    
C45   H15   S    
C52   H34   S    
C17   C19   A    
H58   N5    S    
C22   C24   A    
C32   C33   S    
C35   C38   A    
C36   C37   A    
O21   P3    D    
C43   H39   S    
C55   C57   A    
O2    P5    D    
C52   C61   S    
C53   C60   A    
C45   O3    S    
C63   H3    S    
C54   C55   A    
C64   O22   D    
Ba1   Ba2   S    
C41   H35   S    
C29   H28   S    
H51   N3    S    
Ba1   O15   S    
C22   C27   A    
C28   O30   S    
C11   C38   A    
C66   O9    S    
C17   C35   A    
Ba2   P4    S    
C38   H31   S    
C3    H32   S    
C9    C13   A    
C25   C42   A    
C62   H62   S    
C66   C67   S    
C4    H24   S    
O19   P2    D    
C68   O10   D    
O4    P1    S    
C1    H11   S    
C66   H20   S    
C21   C22   A    
H61   N6    S    
C67   H22   S    
C31   P1    S    
C7    C8    S    
O29   P8    S    
C7    H26   S    
O15   P6    S    
Ba2   O31   S    
C37   C43   A    
C61   H45   S    
C65   O25   D    
C4    O23   S    
C2    O13   D    
C61   C64   S    
H60   N6    S    
C57   C58   S    
C6    C14   D    
C40   N3    S    
C26   O14   D    
O31   P7    S    
C15   C31   D    
C15   H41   S    
C31   C32   D    
C46   P2    S    
C54   P5    S    
C51   C53   A    
C4    C16   S    
C44   C46   A    
Ba1   P2    S    
C20   H30   S    
C49   C50   A    
Ba1   O19   S    
C17   C20   A    
C28   N6    S    
C8    N1    S    
C13   C39   A    
C34   H10   S    
C3    C5    S    
C18   C37   A    
C6    C7    D    
C55   H43   S    
C23   C34   S    
Ba1   O28   S    
C48   C49   A    
Ba1   O31   S    
O9    P8    S    
C63   H4    S    
C23   H8    S    
C58   C59   T    
C9    C36   A    
C41   C42   A    
C35   C36   A    
C56   H16   S    
O7    P7    S    
C27   O11   D    
C29   C30   S    
H59   N5    S    
C50   P3    S    
C16   H13   S    
C4    H36   S    
C64   O24   S    
C23   O7    S    
C45   H14   S    
C10   C11   A    
C1    H6    S    
C16   H47   S    
C1    C12   S    
C2    N1    Am   
C65   O26   S    
C46   C47   A    
C12   O18   S    
O16   P6    D    
C68   N1    Am   
C15   C30   S    
O20   P3    S    
C54   C60   A    
H55   O24   S    
Ba1   O5    S    
Ba2   O28   S    
C18   C41   A    
C51   H42   S    
C42   H37   S    
H54   N4    S    
O28   P4    S    
C10   C68   A    
C62   H63   S    
C5    C14   S    
O5    P2    S    
C26   N2    Am   
C53   P7    S    
Ba1   O20   S    
H52   N3    S    
C67   H25   S    
C34   H9    S    
C56   H18   S    
C33   N2    S    
C9    C10   A    
C6    P4    S    
Ba2   O6    S    
C63   H2    S    
C44   H46   S    
C1    H64   S    
C32   H38   S    
C62   C63   S    
C2    C13   A    
C30   P6    S    
O18   P6    S    
O12   P2    S    
C3    C8    D    
Ba1   O4    S    
C12   H5    S    
C52   O17   S    
C52   N4    S    
C28   H50   S    
H57   O26   S    
Ba2   O27   S    
O6    P7    D    
C47   H44   S    
C29   C33   D    
O3    P5    S    
C11   H27   S    
C60   H48   S    
C61   H56   S    
Ba1   O1    S    
Ba2   O29   S    
C39   H33   S    
C27   N2    Am   
C18   C19   A    
O8    P8    D    
C47   C48   A    
O17   P1    S    
C25   C26   A    
C48   C59   S    
C39   C43   A    
C20   C21   A    
C28   C40   S    
C66   H19   S    
C67   H21   S    
C16   H49   S    
Ba2   O32   S    
O27   P4    D    
C45   C56   S    
C49   N5    S    
