data_mof_unit_59216.cif
_audit_creation_date              2013-03-05T15:41:40-0500
_audit_creation_method            fapswitch 2.2
_symmetry_space_group_name_H-M    P1
_symmetry_Int_Tables_number       1
_space_group_crystal_system       triclinic
_cell_length_a                    17.166795
_cell_length_b                    8.728723
_cell_length_c                    7.432101
_cell_angle_alpha                 102.627427
_cell_angle_beta                  90.409761
_cell_angle_gamma                 92.926464
_cell_volume                      1085.11148871

loop_
_atom_site_label
_atom_site_type_symbol
_atom_site_description
_atom_site_fract_x
_atom_site_fract_y
_atom_site_fract_z
_atom_type_partial_charge
O1    O     O_R   0.505650 0.286040 0.618880 -0.572088
O2    O     O_R   0.494350 0.713960 0.381120 -0.572245
O3    O     O_R   0.490960 0.256910 0.309800 -0.530450
O4    O     O_R   0.509040 0.743090 0.690200 -0.531338
C1    C     C_R   0.496258 0.200234 0.454871 0.843164
C2    C     C_R   0.503623 0.799752 0.545157 0.843827
O5    O     O_R   0.394600 0.516230 0.672450 -0.596068
O6    O     O_R   0.605400 0.483770 0.327550 -0.595915
O7    O     O_R   0.379910 0.487100 0.363380 -0.579079
O8    O     O_R   0.620090 0.512900 0.636620 -0.579305
C3    C     C_R   0.351076 0.507161 0.526424 0.801229
C4    C     C_R   0.648921 0.492804 0.473571 0.800882
Cu1   Cu    Cu3+1 0.508700 0.517250 0.683000 1.048485
Cu2   Cu    Cu3+1 0.491300 0.482750 0.317000 1.048895
C5    C     C_R   0.267360 0.527409 0.543830 -0.017076
C6    C     C_R   0.732625 0.472427 0.456151 -0.017157
C7    C     C_R   0.226907 0.574976 0.402200 -0.141139
C8    C     C_R   0.773034 0.424638 0.597688 -0.141547
C9    C     C_R   0.147115 0.591290 0.412530 -0.173104
C10   C     C_R   0.852818 0.408206 0.587358 -0.172994
C11   C     C_R   0.106593 0.556747 0.562287 0.181245
C12   C     C_R   0.893372 0.442827 0.437683 0.181247
C13   C     C_R   0.146769 0.515404 0.707923 -0.166724
C14   C     C_R   0.853235 0.484375 0.292124 -0.166761
C15   C     C_R   0.227299 0.501449 0.699233 -0.179007
C16   C     C_R   0.772713 0.498460 0.300818 -0.179001
C17   C     C_2   0.021298 0.556010 0.561107 0.108494
C18   C     C_2   0.978664 0.443508 0.438913 0.108423
H1    H     H_    0.256873 0.599139 0.282815 0.184534
H2    H     H_    0.743039 0.400398 0.717002 0.184463
H3    H     H_    0.742314 0.533677 0.189448 0.153848
H4    H     H_    0.257729 0.466396 0.810672 0.153908
H5    H     H_    0.115506 0.489890 0.825000 0.134631
H6    H     H_    0.884524 0.509959 0.175116 0.134619
H7    H     H_    0.883426 0.372969 0.698500 0.136781
H8    H     H_    0.116479 0.626388 0.301333 0.136746
C19   C     C_2   0.483707 0.034240 0.436754 0.038027
C20   C     C_2   0.515939 0.965752 0.563397 0.038572
N1    N     N_2   0.478180 0.456750 0.041980 -0.187923
N2    N     N_2   0.521820 0.543250 0.958020 -0.188341
H9    H     H_    0.439379 0.378737 0.957960 0.234567
H10   H     H_    0.560622 0.621260 0.042039 0.234186
C21   C     C_3   0.015805 0.313771 0.303393 -0.873878
H11   H     H_    0.970742 0.227129 0.227754 0.240712
H12   H     H_    0.049249 0.363039 0.200046 0.227462
H13   H     H_    0.055134 0.250227 0.377502 0.247311
C22   C     C_3   0.984151 0.685717 0.696659 -0.873900
H14   H     H_    0.029209 0.772349 0.772336 0.240726
H15   H     H_    0.944824 0.749281 0.622572 0.247300
H16   H     H_    0.950702 0.636409 0.799970 0.227452
N3    N     N_R   0.426766 0.952410 0.301034 0.119010
O9    O     O_R   0.431963 0.964282 0.130007 -0.295472
O10   O     O_R   0.364198 0.884650 0.353114 -0.386847
N4    N     N_R   0.572673 0.047699 0.699468 0.118825
O11   O     O_R   0.635868 0.113599 0.647651 -0.386979
O12   O     O_R   0.566283 0.038515 0.871243 -0.295232

loop_
_geom_bond_atom_site_label_1
_geom_bond_atom_site_label_2
_geom_bond_distance
_ccdc_geom_bond_type
O5    Cu1   1.959226 S    
O7    Cu2   1.946259 S    
C2    C20   1.430040 S    
N4    O12   1.301599 A    
C19   C20   1.349738 D    
C8    H2    1.083360 S    
C1    C19   1.430496 S    
C7    H1    1.083352 S    
C18   C21   1.512482 S    
C22   H14   1.111116 S    
C20   N4    1.442702 S    
O6    C4    1.298897 A    
C21   H11   1.111116 S    
C17   C18   1.360851 D    
C15   H4    1.083230 S    
N2    H10   1.029136 S    
C11   C17   1.463881 S    
C16   H3    1.083231 S    
N1    H9    1.029135 S    
C6    C8    1.404531 A    
C12   C18   1.463864 S    
Cu1   Cu2   2.683313 S    
O5    C3    1.298907 A    
C21   H12   1.109068 S    
O7    C3    1.291784 A    
O2    C2    1.287756 A    
O3    Cu2   1.960001 S    
O8    C4    1.291776 A    
O1    C1    1.287811 A    
O4    C2    1.285166 A    
C9    C11   1.396426 A    
C14   C16   1.394703 A    
C22   H16   1.109075 S    
C8    C10   1.385323 A    
C9    H8    1.083684 S    
C11   C13   1.401057 A    
C19   N3    1.443168 S    
C6    C16   1.402891 A    
O2    Cu2   1.967535 S    
C21   H13   1.110546 S    
C12   C14   1.401059 A    
C5    C15   1.402903 A    
O1    Cu1   1.967535 S    
N3    O9    1.301009 A    
O3    C1    1.285258 A    
N1    N2    1.294456 D    
C13   C15   1.394707 A    
C22   H15   1.110547 S    
C17   C22   1.512490 S    
O4    Cu1   1.960001 S    
C5    C7    1.404527 A    
N4    O11   1.302007 A    
C7    C9    1.385312 A    
Cu1   N2    2.016296 S    
O6    Cu2   1.959229 S    
C13   H5    1.083488 S    
Cu2   N1    2.016296 S    
C10   H7    1.083686 S    
C3    C5    1.460104 S    
C14   H6    1.083490 S    
C4    C6    1.460078 S    
C10   C12   1.396421 A    
N3    O10   1.301720 A    
O8    Cu1   1.946259 S    
