data_mof_unit_67515.cif
_audit_creation_date              2013-03-05T15:41:20-0500
_audit_creation_method            fapswitch 2.2
_symmetry_space_group_name_H-M    P1
_symmetry_Int_Tables_number       1
_space_group_crystal_system       triclinic
_cell_length_a                    10.939982
_cell_length_b                    9.131076
_cell_length_c                    7.684202
_cell_angle_alpha                 103.63525
_cell_angle_beta                  91.347907
_cell_angle_gamma                 97.983367
_cell_volume                      737.476991931

loop_
_atom_site_label
_atom_site_type_symbol
_atom_site_description
_atom_site_fract_x
_atom_site_fract_y
_atom_site_fract_z
_atom_type_partial_charge
O1    O     O_R   0.509190 0.286130 0.619780 -0.541529
O2    O     O_R   0.490810 0.713870 0.380220 -0.538404
O3    O     O_R   0.485310 0.256770 0.308360 -0.512325
O4    O     O_R   0.514690 0.743230 0.691640 -0.514135
C1    C     C_R   0.494349 0.200814 0.454188 0.824736
C2    C     C_R   0.506415 0.799224 0.545774 0.847639
O5    O     O_R   0.328790 0.514640 0.655680 -0.524413
O6    O     O_R   0.671210 0.485360 0.344320 -0.531852
O7    O     O_R   0.304910 0.485280 0.344260 -0.527996
O8    O     O_R   0.695090 0.514720 0.655740 -0.529930
C3    C     C_R   0.259481 0.493890 0.504248 0.921416
C4    C     C_R   0.740259 0.504994 0.495762 0.905927
Cu1   Cu    Cu3+1 0.514140 0.517380 0.684380 1.249464
Cu2   Cu    Cu3+1 0.485860 0.482620 0.315620 1.250612
N1    N     N_2   0.464560 0.456420 0.038510 0.093575
N2    N     N_2   0.535440 0.543580 0.961490 0.088233
C5    C     C_3   0.016914 0.380928 0.567901 0.356811
C6    C     C_3   0.981980 0.615096 0.432847 0.345135
C7    C     C_3   0.939493 0.370269 0.395441 0.308644
C8    C     C_3   0.059091 0.625776 0.605482 0.362694
C9    C     C_3   0.877635 0.506269 0.488286 -0.297625
C10   C     C_3   0.121496 0.490203 0.512356 -0.303090
C11   C     C_3   0.955382 0.517695 0.663867 -0.282684
C12   C     C_3   0.043385 0.478295 0.336711 -0.308425
H1    H     H_    0.922292 0.534067 0.801247 0.286941
H2    H     H_    0.076368 0.461992 0.199285 0.286559
C13   C     C_2   0.480196 0.032524 0.433603 0.140244
C14   C     C_2   0.521090 0.967523 0.566422 0.120972
S1    S     S_3+6 0.863739 0.202216 0.244158 0.100549
O9    O     O_2   0.750640 0.138289 0.323900 -0.257896
O10   O     O_2   0.826619 0.240241 0.073332 -0.198562
O11   O     O_3   0.959401 0.072069 0.198633 -0.454852
H3    H     H_    0.017091 0.107555 0.115071 0.374308
S2    S     S_3+6 0.131213 0.795227 0.757476 0.085251
O12   O     O_2   0.042164 0.908262 0.791767 -0.271303
O13   O     O_2   0.165924 0.760053 0.930955 -0.180602
O14   O     O_3   0.258682 0.865863 0.669798 -0.535734
H4    H     H_    0.266437 0.977751 0.713939 0.391790
S3    S     S_3+6 0.019140 0.228374 0.670842 0.134645
O15   O     O_2   0.122098 0.143556 0.602456 -0.222164
O16   O     O_2   0.034696 0.289973 0.869964 -0.274902
O17   O     O_3   0.885794 0.110451 0.622328 -0.374556
H5    H     H_    0.880494 0.053388 0.717028 0.430739
S4    S     S_3+6 0.979962 0.768405 0.331352 0.155579
O18   O     O_2   0.965215 0.707877 0.132071 -0.243568
O19   O     O_2   0.877001 0.853539 0.399384 -0.170880
O20   O     O_3   0.113506 0.885599 0.382068 -0.392712
H6    H     H_    0.121971 0.939929 0.285082 0.430167
S5    S     S_3+6 0.316980 0.380267 0.953570 0.209081
O21   O     O_2   0.242089 0.505968 0.955732 -0.187447
O22   O     O_2   0.317804 0.281334 0.769653 -0.291952
O23   O     O_3   0.248380 0.269607 0.079261 -0.490804
H7    H     H_    0.198572 0.182918 0.993216 0.386716
S6    S     S_3+6 0.682985 0.621161 0.046143 0.224453
O24   O     O_2   0.681809 0.721490 0.229182 -0.253150
O25   O     O_2   0.758220 0.496144 0.045789 -0.197328
O26   O     O_3   0.751506 0.730427 0.918418 -0.467927
H8    H     H_    0.806605 0.814143 0.001328 0.422809
S7    S     S_3+6 0.398441 0.922496 0.229851 0.087919
O27   O     O_2   0.489767 0.862629 0.099089 -0.249691
O28   O     O_2   0.309241 0.790571 0.257342 -0.192837
O29   O     O_3   0.316972 0.030538 0.140990 -0.498236
H9    H     H_    0.327603 0.999330 0.011067 0.413096
S8    S     S_3+6 0.601374 0.077491 0.771388 0.087243
O30   O     O_2   0.690747 0.209595 0.744665 -0.190256
O31   O     O_2   0.508908 0.137017 0.900398 -0.270431
O32   O     O_3   0.682238 0.969765 0.862178 -0.477607
H10   H     H_    0.670373 0.999796 0.992022 0.433862

loop_
_geom_bond_atom_site_label_1
_geom_bond_atom_site_label_2
_geom_bond_distance
_ccdc_geom_bond_type
O7    Cu2   1.999783 S    
S4    O20   1.665470 S    
O29   H9    0.985892 S    
C6    C12   1.542299 S    
C6    S4    1.758104 S    
S1    O11   1.672297 S    
S2    O14   1.677444 S    
C3    C10   1.508333 S    
S2    O13   1.495424 D    
C5    C10   1.547081 S    
C13   S7    1.789846 S    
C8    C11   1.544075 S    
C1    C13   1.492810 S    
O6    C4    1.334033 A    
S5    O23   1.673512 S    
C8    S2    1.773756 S    
S8    O30   1.500600 D    
N2    S6    1.716430 S    
N1    S5    1.714877 S    
C7    C12   1.546299 S    
S7    O27   1.498872 D    
S1    O10   1.495823 D    
O2    C2    1.319199 A    
Cu1   Cu2   2.780887 S    
O11   H3    0.987912 S    
C6    C9    1.542531 S    
O5    C3    1.333978 A    
O7    C3    1.326121 A    
O26   H8    0.988889 S    
C5    C11   1.542452 S    
O3    Cu2   2.048984 S    
O8    C4    1.323841 A    
O1    C1    1.319142 A    
N1    N2    1.287324 D    
C14   S8    1.790145 S    
C10   C12   1.553853 S    
O4    C2    1.343215 A    
C7    C9    1.532166 S    
O14   H4    0.988543 S    
C8    C10   1.533197 S    
S2    O12   1.498973 D    
S3    O17   1.665928 S    
C6    C8    1.531149 S    
C9    C11   1.552306 S    
O2    Cu2   2.044705 S    
S6    O25   1.496727 D    
S7    O28   1.500388 D    
O1    Cu1   2.044703 S    
O17   H5    0.988310 S    
S1    O9    1.500272 D    
O32   H10   0.987181 S    
C7    S1    1.775749 S    
S8    O32   1.665269 S    
O3    C1    1.343612 A    
O5    Cu1   2.030566 S    
C11   H1    1.107434 S    
O23   H7    0.988503 S    
S3    O16   1.497305 D    
S5    O21   1.497271 D    
C5    S3    1.759191 S    
Cu1   N2    2.089674 S    
S3    O15   1.490945 D    
S5    O22   1.488074 D    
S6    O24   1.488052 D    
S7    O29   1.663459 S    
O6    Cu2   2.030568 S    
S4    O19   1.491858 D    
C5    C7    1.531835 S    
Cu2   N1    2.089674 S    
C4    C9    1.503876 S    
S6    O26   1.676067 S    
C2    C14   1.492610 S    
S4    O18   1.496995 D    
O20   H6    0.987370 S    
O4    Cu1   2.048984 S    
C12   H2    1.107359 S    
C13   C14   1.389942 D    
O8    Cu1   1.999782 S    
S8    O31   1.499115 D    
