data_mof_unit_50635.cif
_audit_creation_date              2012-10-26T20:51:10-0400
_audit_creation_method            fapswitch 2.2
_symmetry_space_group_name_H-M    P1
_symmetry_Int_Tables_number       1
_space_group_crystal_system       triclinic
_cell_length_a                    13.021761
_cell_length_b                    10.91496
_cell_length_c                    9.572955
_cell_angle_alpha                 92.464306
_cell_angle_beta                  96.388157
_cell_angle_gamma                 91.081706
_cell_volume                      1350.54086599

loop_
_atom_site_label
_atom_site_type_symbol
_atom_type_description
_atom_site_fract_x
_atom_site_fract_y
_atom_site_fract_z
_atom_type_partial_charge
C1    C     C_R   0.497045 0.262758 0.496825 0.551749
C2    C     C_R   0.493674 0.931431 0.370152 -0.141937
C3    C     C_R   0.487309 0.872269 0.497929 0.007863
C4    C     C_R   0.300408 0.499152 0.473086 0.567034
C5    C     C_R   0.461903 0.944643 0.612704 -0.040405
C6    C     C_3   0.504290 0.952711 0.764198 -0.195589
C7    C     C_3   0.504211 0.090904 0.759090 0.103791
C8    C     C_R   0.586316 0.538764 0.089595 0.125712
C9    C     C_R   0.420672 0.447836 0.059660 -0.009310
C10   C     C_R   0.421058 0.446971 0.911185 -0.010906
C11   C     C_R   0.583971 0.543732 0.941083 0.174084
C12   C     C_R   0.028944 0.469113 0.566790 0.008047
C13   C     C_3   0.618421 0.675466 0.958732 0.424949
C14   C     C_3   0.635419 0.663345 0.116536 0.033800
C15   C     C_R   0.497697 0.738279 0.501367 0.550221
C16   C     C_R   0.699324 0.492495 0.526994 0.544160
C17   C     C_R   0.812248 0.477715 0.544729 -0.023330
C18   C     C_R   0.187068 0.494973 0.456354 0.041601
C19   C     C_R   0.021001 0.507444 0.316543 -0.109555
C20   C     C_R   0.129044 0.512194 0.325314 0.242772
C21   C     C_R   0.136599 0.472319 0.574935 -0.181963
C22   C     C_R   0.971390 0.487673 0.436146 -0.016539
C23   C     C_R   0.864457 0.488683 0.426060 -0.147947
C24   C     C_R   0.869123 0.450374 0.674863 0.136115
C25   C     C_R   0.977166 0.447284 0.685827 0.156663
C26   C     C_R   0.461967 0.070861 0.608387 0.002163
C27   C     C_R   0.484642 0.130410 0.489917 0.010034
C28   C     C_R   0.492736 0.059526 0.366181 -0.157286
Cu1   Cu    Cu3+1 0.499990 0.499980 0.640670 0.982999
Cu2   Cu    Cu3+1 0.500010 0.500020 0.359330 0.982258
H1    H     H_    0.821762 0.498916 0.324442 0.169683
H2    H     H_    0.503964 0.880066 0.274059 0.135874
H3    H     H_    0.445738 0.920714 0.831195 0.160903
H4    H     H_    0.647526 0.105982 0.712525 0.328497
H5    H     H_    0.686331 0.707413 0.793802 0.356049
H6    H     H_    0.476006 0.730935 0.966841 0.300033
H7    H     H_    0.776823 0.747065 0.171179 0.264927
H8    H     H_    0.784477 0.600275 0.111094 0.248299
H9    H     H_    0.784872 0.498181 0.834289 0.271720
H10   H     H_    0.765252 0.349883 0.768938 0.266862
H11   H     H_    0.076872 0.344847 0.807566 0.224808
H12   H     H_    0.583456 0.915760 0.781156 0.217078
H13   H     H_    0.081045 0.497635 0.853547 0.219263
H14   H     H_    0.126289 0.545094 0.126290 0.320396
H15   H     H_    0.449180 0.136160 0.824491 0.148091
H16   H     H_    0.355497 0.407320 0.103089 0.154256
H17   H     H_    0.356397 0.405084 0.844263 0.112189
H18   H     H_    0.591468 0.728156 0.177268 0.151730
H19   H     H_    0.975587 0.521390 0.216710 0.113104
H20   H     H_    0.182089 0.457565 0.674067 0.122611
H21   H     H_    0.504129 0.102379 0.268925 0.146704
N1    N     N_R   0.500660 0.500930 0.148010 -0.259680
N2    N     N_R   0.500660 0.500890 0.852110 -0.233918
N3    N     N_3   0.744194 0.659051 0.173773 -0.633281
N4    N     N_3   0.820072 0.420519 0.796393 -0.574182
N5    N     N_3   0.032328 0.422480 0.819632 -0.593332
O1    O     O_R   0.500000 0.319640 0.618810 -0.468325
O2    O     O_3   0.707974 0.703055 0.896069 -0.700547
O3    O     O_3   0.537664 0.754074 0.920215 -0.723144
O4    O     O_3   0.178549 0.535214 0.208378 -0.695054
O5    O     O_R   0.500010 0.319680 0.381230 -0.517213
O6    O     O_R   0.348990 0.499960 0.599490 -0.536730
O7    O     O_R   0.349000 0.500000 0.361910 -0.445074
O8    O     O_R   0.499990 0.680320 0.618770 -0.468394
O9    O     O_R   0.500000 0.680360 0.381190 -0.518647
O10   O     O_R   0.651000 0.500000 0.638090 -0.519294
O11   O     O_R   0.651010 0.500040 0.400510 -0.483194
O12   O     O_3   0.604264 0.145071 0.780348 -0.674315

loop_
_geom_bond_atom_site_label_1
_geom_bond_atom_site_label_2
_ccdc_geom_bond_type
C8    C14   S    
C15   O8    A    
C6    H3    S    
H11   N5    S    
C6    C7    S    
C13   O3    S    
C1    O1    A    
C20   O4    S    
C18   C21   A    
C2    C28   A    
C9    C10   A    
C19   H19   S    
C19   C20   A    
C11   N2    A    
C25   N5    S    
C12   C25   A    
H10   N4    S    
C4    C18   S    
Cu1   O10   S    
H6    O3    S    
C15   O9    A    
C2    C3    A    
Cu1   O8    S    
C3    C15   S    
C9    H16   S    
C16   O11   A    
Cu2   O7    S    
C24   N4    S    
C11   C13   S    
C4    O7    A    
C26   C27   A    
C17   C23   A    
C9    N1    A    
C7    C26   S    
H14   O4    S    
H5    O2    S    
H7    N3    S    
C7    H15   S    
C21   H20   S    
C14   N3    S    
Cu1   O1    S    
C18   C20   A    
C8    C11   A    
C5    C6    S    
C28   H21   S    
C17   C24   A    
C16   O10   A    
Cu1   Cu2   S    
C5    C26   A    
Cu2   O9    S    
C4    O6    A    
H13   N5    S    
C27   C28   A    
C19   C22   A    
C12   C22   A    
C24   C25   A    
Cu1   O6    S    
C2    H2    S    
C6    H12   S    
Cu2   O5    S    
H4    O12   S    
C10   H17   S    
C1    C27   S    
C10   N2    A    
C8    N1    A    
C22   C23   A    
C16   C17   S    
C14   H18   S    
C13   O2    S    
C3    C5    A    
C7    O12   S    
C13   C14   S    
C12   C21   A    
H9    N4    S    
Cu2   O11   S    
C1    O5    A    
Cu2   N1    S    
Cu1   N2    S    
C23   H1    S    
H8    N3    S    
