data_mof_unit_62595.cif
_audit_creation_date              2012-12-10T16:51:33-0500
_audit_creation_method            fapswitch 2.2
_symmetry_space_group_name_H-M    P1
_symmetry_Int_Tables_number       1
_space_group_crystal_system       triclinic
_cell_length_a                    21.918221
_cell_length_b                    21.917551
_cell_length_c                    47.270324
_cell_angle_alpha                 89.672217
_cell_angle_beta                  89.1985
_cell_angle_gamma                 90.003086
_cell_volume                      22705.773502

loop_
_atom_site_label
_atom_site_type_symbol
_atom_type_description
_atom_site_fract_x
_atom_site_fract_y
_atom_site_fract_z
_atom_type_partial_charge
C1    C     C_R   0.997976 0.882444 0.000194 0.847667
C2    C     C_R   0.117554 0.997948 0.999734 0.847306
C3    C     C_R   0.002026 0.117556 0.999814 0.847557
C4    C     C_R   0.882446 0.002050 0.000273 0.847411
C5    C     C_R   0.497976 0.382444 0.500194 0.847669
C6    C     C_R   0.617554 0.497948 0.499734 0.847308
C7    C     C_R   0.502026 0.617556 0.499814 0.847556
C8    C     C_R   0.382446 0.502050 0.500274 0.847411
C9    C     C_R   0.039010 0.538891 0.219620 -0.102563
C10   C     C_R   0.464388 0.041257 0.220190 -0.102644
C11   C     C_R   0.955595 0.464276 0.220492 -0.102820
C12   C     C_R   0.539060 0.957913 0.219884 -0.102718
C13   C     C_R   0.539010 0.038890 0.719620 -0.102563
C14   C     C_R   0.964386 0.541255 0.720190 -0.102644
C15   C     C_R   0.455594 0.964277 0.720492 -0.102821
C16   C     C_R   0.039062 0.457915 0.719884 -0.102718
C17   C     C_R   0.997389 0.501615 0.234982 -0.130507
C18   C     C_R   0.501901 0.999709 0.234962 -0.130507
C19   C     C_R   0.497389 0.001615 0.734982 -0.130507
C20   C     C_R   0.001901 0.499709 0.734962 -0.130507
C21   C     C_R   0.081874 0.574491 0.234579 0.469264
C22   C     C_R   0.429042 0.084185 0.235717 0.469230
C23   C     C_R   0.912847 0.428822 0.236336 0.469237
C24   C     C_R   0.574826 0.915297 0.235158 0.469269
C25   C     C_R   0.581875 0.074489 0.734580 0.469264
C26   C     C_R   0.929036 0.584180 0.735717 0.469229
C27   C     C_R   0.412845 0.928824 0.736336 0.469238
C28   C     C_R   0.074831 0.415301 0.735158 0.469268
C29   C     C_R   0.580227 0.075238 0.764154 -0.243290
C30   C     C_R   0.928623 0.582549 0.765288 -0.243315
C31   C     C_R   0.414922 0.928098 0.765886 -0.242940
C32   C     C_R   0.075886 0.417394 0.764707 -0.242931
C33   C     C_R   0.080225 0.575240 0.264153 -0.243290
C34   C     C_R   0.428628 0.082554 0.265288 -0.243315
C35   C     C_R   0.914923 0.428096 0.265886 -0.242941
C36   C     C_R   0.575881 0.917389 0.264707 -0.242931
C37   C     C_R   0.539049 0.038600 0.779520 -0.066435
C38   C     C_R   0.965363 0.541327 0.780075 -0.066625
C39   C     C_R   0.456429 0.964626 0.780388 -0.066845
C40   C     C_R   0.039397 0.458780 0.779788 -0.066642
C41   C     C_R   0.039049 0.538601 0.279519 -0.066435
C42   C     C_R   0.465365 0.041330 0.280075 -0.066625
C43   C     C_R   0.956430 0.464625 0.280388 -0.066845
C44   C     C_R   0.539394 0.958778 0.279788 -0.066642
C45   C     C_R   0.497608 0.001629 0.764953 -0.022186
C46   C     C_R   0.002231 0.499946 0.764931 -0.022186
C47   C     C_R   0.997608 0.501629 0.264952 -0.022185
C48   C     C_R   0.502231 0.999946 0.264931 -0.022186
C49   C     C_R   0.538851 0.037547 0.809277 0.555970
C50   C     C_R   0.966491 0.540920 0.809817 0.556038
C51   C     C_R   0.457299 0.965454 0.810134 0.556312
C52   C     C_R   0.038641 0.459438 0.809550 0.556246
C53   C     C_R   0.038850 0.537548 0.309277 0.555971
C54   C     C_R   0.466493 0.040922 0.309817 0.556039
C55   C     C_R   0.957300 0.465453 0.310134 0.556312
C56   C     C_R   0.538638 0.959436 0.309550 0.556246
C57   C     C_R   0.510708 0.946989 0.869426 -0.102516
C58   C     C_R   0.055944 0.511556 0.869329 -0.101350
C59   C     C_R   0.487356 0.054972 0.869602 -0.102116
C60   C     C_R   0.947975 0.488090 0.869675 -0.103330
C61   C     C_R   0.010709 0.446989 0.369426 -0.102516
C62   C     C_R   0.555944 0.011554 0.369329 -0.101351
C63   C     C_R   0.987356 0.554972 0.369602 -0.102116
C64   C     C_R   0.447975 0.988092 0.369675 -0.103330
C65   C     C_R   0.510883 0.946586 0.898981 -0.211707
C66   C     C_R   0.055518 0.511233 0.898899 -0.212449
C67   C     C_R   0.488123 0.054783 0.899152 -0.215515
C68   C     C_R   0.947336 0.488360 0.899221 -0.214837
C69   C     C_R   0.010884 0.446586 0.398981 -0.211707
C70   C     C_R   0.555518 0.011231 0.398899 -0.212448
C71   C     C_R   0.988122 0.554782 0.399152 -0.215515
C72   C     C_R   0.447335 0.988363 0.399221 -0.214837
C73   C     C_R   0.499716 0.000526 0.914156 -0.039116
C74   C     C_R   0.001132 0.499835 0.914152 -0.039123
C75   C     C_R   0.999716 0.500526 0.414156 -0.039116
C76   C     C_R   0.501132 0.999835 0.414152 -0.039124
C77   C     C_2   0.717106 0.040939 0.984488 -0.150480
C78   C     C_2   0.959690 0.716801 0.984364 -0.150454
C79   C     C_2   0.282898 0.959058 0.015513 -0.149855
C80   C     C_2   0.040306 0.283203 0.015640 -0.150155
C81   C     C_2   0.217106 0.540940 0.484488 -0.150478
C82   C     C_2   0.459696 0.216801 0.484361 -0.150455
C83   C     C_2   0.782898 0.459059 0.515513 -0.149857
C84   C     C_2   0.540309 0.783203 0.515639 -0.150152
C85   C     C_R   0.498769 0.001123 0.854518 0.338047
C86   C     C_R   0.002200 0.499899 0.854503 0.338059
C87   C     C_R   0.998769 0.501123 0.354518 0.338047
C88   C     C_R   0.502200 0.999899 0.354503 0.338060
C89   C     C_R   0.051285 0.485974 0.130407 -0.105742
C90   C     C_R   0.515303 0.052681 0.130241 -0.105416
C91   C     C_R   0.944625 0.514827 0.130527 -0.104684
C92   C     C_R   0.486514 0.945994 0.130667 -0.104989
C93   C     C_R   0.551285 0.985973 0.630407 -0.105742
C94   C     C_R   0.015300 0.552681 0.630241 -0.105416
C95   C     C_R   0.444625 0.014828 0.630527 -0.104684
C96   C     C_R   0.986516 0.445994 0.630667 -0.104989
C97   C     C_R   0.051978 0.486016 0.100858 -0.213873
C98   C     C_R   0.514595 0.052967 0.100699 -0.210089
C99   C     C_R   0.945048 0.514133 0.100964 -0.211163
C100  C     C_R   0.486543 0.946012 0.101104 -0.214866
C101  C     C_R   0.551978 0.986016 0.600858 -0.213873
C102  C     C_R   0.014592 0.552967 0.600700 -0.210089
C103  C     C_R   0.445049 0.014134 0.600965 -0.211164
C104  C     C_R   0.986545 0.446011 0.601104 -0.214866
C105  C     C_R   0.998827 0.499983 0.085830 -0.036419
C106  C     C_R   0.500371 0.999582 0.085823 -0.036465
C107  C     C_R   0.498827 0.999984 0.585830 -0.036419
C108  C     C_R   0.000371 0.499582 0.585823 -0.036466
C109  C     C_R   0.997704 0.500640 0.145477 0.343869
C110  C     C_R   0.501049 0.999280 0.145462 0.343854
C111  C     C_R   0.497704 0.000640 0.645477 0.343868
C112  C     C_R   0.001049 0.499280 0.645463 0.343855
C113  C     C_2   0.683780 0.997419 0.997356 -0.311617
C114  C     C_2   0.002728 0.683723 0.997206 -0.311926
C115  C     C_2   0.316221 0.002579 0.002644 -0.309455
C116  C     C_2   0.997274 0.316277 0.002793 -0.309750
C117  C     C_2   0.183780 0.497419 0.497356 -0.311617
C118  C     C_2   0.502728 0.183723 0.497207 -0.311921
C119  C     C_2   0.816221 0.502579 0.502643 -0.309454
C120  C     C_2   0.497274 0.816277 0.502793 -0.309750
C121  C     C_2   0.783914 0.034909 0.981696 -0.152214
C122  C     C_2   0.965782 0.783584 0.981552 -0.149346
C123  C     C_2   0.216090 0.965083 0.018305 -0.150256
C124  C     C_2   0.034218 0.216419 0.018452 -0.147540
C125  C     C_2   0.283914 0.534910 0.481697 -0.152214
C126  C     C_2   0.465788 0.283584 0.481550 -0.149345
C127  C     C_2   0.716090 0.465085 0.518305 -0.150254
C128  C     C_2   0.534221 0.716419 0.518451 -0.147539
C129  C     C_2   0.816279 0.006572 0.001706 -0.310746
C130  C     C_2   0.993578 0.816274 0.001480 -0.312186
C131  C     C_2   0.183721 0.993421 0.998296 -0.310941
C132  C     C_2   0.006432 0.183725 0.998522 -0.312431
C133  C     C_2   0.316279 0.506572 0.501706 -0.310744
C134  C     C_2   0.493575 0.316274 0.501480 -0.312191
C135  C     C_2   0.683721 0.493421 0.498296 -0.310944
C136  C     C_2   0.506431 0.683725 0.498522 -0.312426
C137  C     C_R   0.499984 0.000157 0.945436 0.798162
C138  C     C_R   0.000369 0.499964 0.945435 0.798018
C139  C     C_R   0.999984 0.500158 0.445436 0.798162
C140  C     C_R   0.500369 0.999964 0.445435 0.798018
C141  C     C_R   0.617538 0.999816 0.999160 0.852272
C142  C     C_R   0.000224 0.617521 0.999121 0.852470
C143  C     C_R   0.382462 0.000184 0.000840 0.852225
C144  C     C_R   0.999776 0.382479 0.000879 0.852023
C145  C     C_R   0.117538 0.499816 0.499160 0.852273
C146  C     C_R   0.500224 0.117521 0.499121 0.852467
C147  C     C_R   0.882462 0.500184 0.500840 0.852225
C148  C     C_R   0.499776 0.882479 0.500879 0.852024
C149  C     C_R   0.500046 0.999853 0.054558 0.797314
C150  C     C_R   0.999627 0.499963 0.054560 0.797164
C151  C     C_R   0.000046 0.499853 0.554558 0.797314
C152  C     C_R   0.499627 0.999963 0.554560 0.797163
C153  C     C_R   0.958285 0.463314 0.190640 0.544302
C154  C     C_R   0.539472 0.960421 0.190029 0.544600
C155  C     C_R   0.036186 0.539484 0.189805 0.544110
C156  C     C_R   0.463248 0.038250 0.190383 0.543837
C157  C     C_R   0.458285 0.963315 0.690640 0.544301
C158  C     C_R   0.039474 0.460423 0.690029 0.544600
C159  C     C_R   0.536187 0.039484 0.689805 0.544110
C160  C     C_R   0.963246 0.538247 0.690383 0.543838
Cu1   Cu    Cu3+1 1.000000 1.000000 0.028140 0.972256
Cu2   Cu    Cu3+1 0.500000 0.500000 0.528140 0.972256
Cu3   Cu    Cu3+1 0.000000 1.000000 0.971860 0.964669
Cu4   Cu    Cu3+1 0.500000 0.500000 0.471860 0.964669
Cu5   Cu    Cu3+1 0.500010 0.061070 0.000000 0.958335
Cu6   Cu    Cu3+1 0.938930 0.500010 0.000000 0.958417
Cu7   Cu    Cu3+1 0.499990 0.938930 0.000000 0.958810
Cu8   Cu    Cu3+1 0.061070 0.499990 0.000000 0.958847
Cu9   Cu    Cu3+1 0.000010 0.561070 0.500000 0.958334
Cu10  Cu    Cu3+1 0.438930 0.000010 0.500000 0.958418
Cu11  Cu    Cu3+1 0.999990 0.438930 0.500000 0.958810
Cu12  Cu    Cu3+1 0.561070 0.999990 0.500000 0.958847
H1    H     H_    0.694994 0.079601 0.974449 0.165621
H2    H     H_    0.921348 0.694488 0.974421 0.166142
H3    H     H_    0.305013 0.920397 0.025552 0.163177
H4    H     H_    0.078638 0.305520 0.025590 0.163482
H5    H     H_    0.194994 0.579604 0.474450 0.165621
H6    H     H_    0.421358 0.194487 0.474414 0.166138
H7    H     H_    0.805013 0.420401 0.525554 0.163177
H8    H     H_    0.578644 0.805519 0.525587 0.163483
H9    H     H_    0.705199 0.955570 0.004607 0.156635
H10   H     H_    0.044355 0.705263 0.004357 0.156460
H11   H     H_    0.294799 0.044426 0.995393 0.155628
H12   H     H_    0.955654 0.294735 0.995635 0.155408
H13   H     H_    0.205199 0.455569 0.504606 0.156635
H14   H     H_    0.544352 0.205263 0.504362 0.156457
H15   H     H_    0.794799 0.544425 0.495391 0.155627
H16   H     H_    0.455652 0.794735 0.495638 0.155408
H17   H     H_    0.794209 0.990769 0.021120 0.158147
H18   H     H_    0.008949 0.794474 0.020806 0.156751
H19   H     H_    0.205787 0.009228 0.978882 0.157150
H20   H     H_    0.991068 0.205521 0.979194 0.155654
H21   H     H_    0.294209 0.490768 0.521119 0.158146
H22   H     H_    0.508938 0.294474 0.520808 0.156754
H23   H     H_    0.705787 0.509225 0.478882 0.157152
H24   H     H_    0.491062 0.705522 0.479195 0.155651
H25   H     H_    0.520017 0.905159 0.858078 0.149943
H26   H     H_    0.098070 0.521124 0.857913 0.150512
H27   H     H_    0.477685 0.097025 0.858399 0.150033
H28   H     H_    0.906231 0.478589 0.858535 0.149446
H29   H     H_    0.020019 0.405159 0.358078 0.149943
H30   H     H_    0.598071 0.021120 0.357913 0.150511
H31   H     H_    0.977684 0.597025 0.358399 0.150033
H32   H     H_    0.406230 0.978593 0.358535 0.149445
H33   H     H_    0.520227 0.904141 0.909927 0.163282
H34   H     H_    0.097623 0.520469 0.909798 0.163237
H35   H     H_    0.479083 0.096996 0.910239 0.162645
H36   H     H_    0.904795 0.479121 0.910359 0.162692
H37   H     H_    0.020228 0.404141 0.409927 0.163282
H38   H     H_    0.597624 0.020465 0.409798 0.163238
H39   H     H_    0.979081 0.596996 0.410239 0.162645
H40   H     H_    0.404794 0.979125 0.410359 0.162693
H41   H     H_    0.092495 0.474482 0.141631 0.138119
H42   H     H_    0.527032 0.094052 0.141338 0.138843
H43   H     H_    0.903015 0.526619 0.141842 0.139287
H44   H     H_    0.475009 0.904526 0.142107 0.138602
H45   H     H_    0.592494 0.974480 0.641631 0.138119
H46   H     H_    0.027027 0.594053 0.641338 0.138843
H47   H     H_    0.403015 0.026620 0.641841 0.139287
H48   H     H_    0.975013 0.404525 0.642107 0.138601
N1    N     N_R   0.997294 0.501227 0.176013 -0.471718
N2    N     N_R   0.501218 0.999253 0.175999 -0.471721
N3    N     N_R   0.497294 0.001227 0.676013 -0.471717
N4    N     N_R   0.001218 0.499253 0.675998 -0.471721
N5    N     N_R   0.498271 0.001408 0.824011 -0.464037
N6    N     N_R   0.002572 0.500171 0.823990 -0.464028
N7    N     N_R   0.998271 0.501408 0.324011 -0.464037
N8    N     N_R   0.502572 0.000171 0.323990 -0.464029
O1    O     O_R   0.999970 0.911020 0.023770 -0.587365
O2    O     O_R   0.088980 0.999970 0.023770 -0.581631
O3    O     O_R   0.000030 0.088980 0.023770 -0.577222
O4    O     O_R   0.911020 0.000030 0.023770 -0.582700
O5    O     O_R   0.499970 0.411020 0.523770 -0.587365
O6    O     O_R   0.588980 0.499970 0.523770 -0.581632
O7    O     O_R   0.500030 0.588980 0.523770 -0.577220
O8    O     O_R   0.411020 0.500030 0.523770 -0.582700
O9    O     O_R   0.000000 0.911030 0.976240 -0.578818
O10   O     O_R   0.088970 1.000000 0.976240 -0.584342
O11   O     O_R   0.000000 0.088970 0.976240 -0.589093
O12   O     O_R   0.911030 1.000000 0.976240 -0.583281
O13   O     O_R   0.500000 0.411030 0.476240 -0.578821
O14   O     O_R   0.588970 0.500000 0.476240 -0.584342
O15   O     O_R   0.500000 0.588970 0.476240 -0.589092
O16   O     O_R   0.411030 0.500000 0.476240 -0.583280
O17   O     O_R   0.500030 0.051590 0.958940 -0.589970
O18   O     O_R   0.948410 0.500030 0.958940 -0.589806
O19   O     O_R   0.499970 0.948410 0.958940 -0.585546
O20   O     O_R   0.051590 0.499970 0.958940 -0.585741
O21   O     O_R   0.000030 0.551590 0.458940 -0.589970
O22   O     O_R   0.448410 0.000030 0.458940 -0.589806
O23   O     O_R   0.999970 0.448410 0.458940 -0.585546
O24   O     O_R   0.551590 0.999970 0.458940 -0.585741
O25   O     O_R   0.589030 0.051570 0.000000 -0.578765
O26   O     O_R   0.948430 0.589030 0.000000 -0.578788
O27   O     O_R   0.410970 0.948430 0.000000 -0.578316
O28   O     O_R   0.051570 0.410970 0.000000 -0.578573
O29   O     O_R   0.089030 0.551570 0.500000 -0.578765
O30   O     O_R   0.448430 0.089030 0.500000 -0.578786
O31   O     O_R   0.910970 0.448430 0.500000 -0.578315
O32   O     O_R   0.551570 0.910970 0.500000 -0.578574
O33   O     O_R   0.589020 0.948510 0.000000 -0.584106
O34   O     O_R   0.051490 0.589020 0.000000 -0.583960
O35   O     O_R   0.410980 0.051490 0.000000 -0.584234
O36   O     O_R   0.948510 0.410980 0.000000 -0.584252
O37   O     O_R   0.089020 0.448510 0.500000 -0.584107
O38   O     O_R   0.551490 0.089020 0.500000 -0.583959
O39   O     O_R   0.910980 0.551490 0.500000 -0.584234
O40   O     O_R   0.448510 0.910980 0.500000 -0.584253
O41   O     O_R   0.499980 0.051580 0.041060 -0.585994
O42   O     O_R   0.948420 0.499980 0.041060 -0.586039
O43   O     O_R   0.500020 0.948420 0.041060 -0.589766
O44   O     O_R   0.051580 0.500020 0.041060 -0.589713
O45   O     O_R   0.999980 0.551580 0.541060 -0.585994
O46   O     O_R   0.448420 0.999980 0.541060 -0.586039
O47   O     O_R   0.000020 0.448420 0.541060 -0.589766
O48   O     O_R   0.551580 0.000020 0.541060 -0.589714
O49   O     O_2   0.923059 0.424127 0.176233 -0.509334
O50   O     O_2   0.578424 0.925157 0.175022 -0.509664
O51   O     O_2   0.071283 0.578555 0.174600 -0.509936
O52   O     O_2   0.423894 0.073235 0.175782 -0.509595
O53   O     O_2   0.423058 0.924128 0.676233 -0.509334
O54   O     O_2   0.078428 0.425161 0.675022 -0.509663
O55   O     O_2   0.571284 0.078554 0.674600 -0.509935
O56   O     O_2   0.923889 0.573231 0.675782 -0.509595
O57   O     O_2   0.579492 0.071773 0.823355 -0.546178
O58   O     O_2   0.932296 0.581450 0.824441 -0.545584
O59   O     O_2   0.416974 0.931135 0.825060 -0.544405
O60   O     O_2   0.073044 0.419068 0.823930 -0.545079
O61   O     O_2   0.079490 0.571774 0.323355 -0.546178
O62   O     O_2   0.432301 0.081454 0.324441 -0.545584
O63   O     O_2   0.916975 0.431134 0.325060 -0.544405
O64   O     O_2   0.573040 0.919064 0.323930 -0.545080
H49   H     H_    0.093999 0.474597 0.089789 0.158964
H50   H     H_    0.525774 0.094837 0.089512 0.160912
H51   H     H_    0.903482 0.525357 0.089966 0.160467
H52   H     H_    0.475130 0.904274 0.090228 0.158617
H53   H     H_    0.593998 0.974595 0.589789 0.158964
H54   H     H_    0.025770 0.594838 0.589512 0.160912
H55   H     H_    0.403482 0.025359 0.589966 0.160467
H56   H     H_    0.975134 0.404273 0.590228 0.158618
H57   H     H_    0.806839 0.056674 0.963789 0.165270
H58   H     H_    0.944415 0.806225 0.963750 0.166805
H59   H     H_    0.193167 0.943316 0.036213 0.165620
H60   H     H_    0.055575 0.193783 0.036258 0.166998
H61   H     H_    0.306840 0.556677 0.463789 0.165268
H62   H     H_    0.444430 0.306225 0.463745 0.166810
H63   H     H_    0.693168 0.443321 0.536214 0.165622
H64   H     H_    0.555583 0.693782 0.536255 0.166994
O65   O     O_3   0.124561 0.610788 0.220703 -0.567809
C161  C     C_3   0.177224 0.575832 0.214092 0.119084
H65   H     H_    0.196752 0.594170 0.193960 0.191385
H66   H     H_    0.167315 0.526579 0.210241 0.114862
C162  C     C_3   0.225078 0.582296 0.237211 -0.394729
H67   H     H_    0.233515 0.631459 0.241275 0.241642
H68   H     H_    0.208076 0.560652 0.257097 0.219538
C163  C     C_3   0.285066 0.551837 0.228590 -0.895006
H69   H     H_    0.277787 0.502435 0.224733 0.257014
H70   H     H_    0.318573 0.556901 0.245822 0.263356
H71   H     H_    0.304132 0.573561 0.209104 0.255679
O66   O     O_3   0.392617 0.126879 0.222422 -0.567785
C164  C     C_3   0.427593 0.179433 0.215516 0.119239
H72   H     H_    0.408868 0.199001 0.195716 0.191476
H73   H     H_    0.476720 0.169371 0.210942 0.115277
C165  C     C_3   0.421814 0.227321 0.238896 -0.395004
H74   H     H_    0.372774 0.235939 0.243663 0.241713
H75   H     H_    0.443807 0.210250 0.258421 0.219682
C166  C     C_3   0.452333 0.287190 0.230081 -0.894035
H76   H     H_    0.501623 0.279728 0.225524 0.257113
H77   H     H_    0.447767 0.320725 0.247501 0.263440
H78   H     H_    0.430279 0.306321 0.210964 0.255723
O67   O     O_3   0.869937 0.392545 0.223349 -0.567500
C167  C     C_3   0.817338 0.427618 0.217265 0.119202
H79   H     H_    0.797469 0.409049 0.197605 0.191721
H80   H     H_    0.827408 0.476760 0.212828 0.115237
C168  C     C_3   0.769767 0.421729 0.241193 -0.394756
H81   H     H_    0.761142 0.372671 0.245803 0.242035
H82   H     H_    0.787147 0.443563 0.260626 0.219660
C169  C     C_3   0.709822 0.452373 0.233268 -0.893767
H83   H     H_    0.717294 0.501681 0.228883 0.256930
H84   H     H_    0.676524 0.447722 0.251069 0.263630
H85   H     H_    0.690391 0.430476 0.214267 0.255825
O68   O     O_3   0.611040 0.872469 0.221589 -0.567516
C170  C     C_3   0.576064 0.819697 0.215804 0.119066
H86   H     H_    0.594261 0.799913 0.195810 0.191655
H87   H     H_    0.526772 0.829511 0.212105 0.114810
C171  C     C_3   0.582735 0.772172 0.239463 -0.394486
H88   H     H_    0.631938 0.763834 0.243359 0.241958
H89   H     H_    0.561234 0.789429 0.259261 0.219503
C172  C     C_3   0.552246 0.712049 0.231736 -0.894727
H90   H     H_    0.502806 0.719232 0.228063 0.256851
H91   H     H_    0.557464 0.678788 0.249343 0.263534
H92   H     H_    0.573833 0.692737 0.212363 0.255788
O69   O     O_3   0.624564 0.110785 0.720703 -0.567809
C173  C     C_3   0.677225 0.075828 0.714092 0.119083
H93   H     H_    0.696754 0.094166 0.693960 0.191385
H94   H     H_    0.667315 0.026575 0.710241 0.114862
C174  C     C_3   0.725080 0.082291 0.737211 -0.394731
H95   H     H_    0.733518 0.131454 0.741275 0.241642
H96   H     H_    0.708077 0.060647 0.757097 0.219539
C175  C     C_3   0.785067 0.051830 0.728590 -0.895006
H97   H     H_    0.777787 0.002428 0.724733 0.257015
H98   H     H_    0.818575 0.056894 0.745823 0.263356
H99   H     H_    0.804134 0.073554 0.709104 0.255679
O70   O     O_3   0.892608 0.626872 0.722422 -0.567784
C176  C     C_3   0.927580 0.679429 0.715517 0.119239
H100  H     H_    0.908855 0.698995 0.695716 0.191477
H101  H     H_    0.976709 0.669371 0.710942 0.115276
C177  C     C_3   0.921796 0.727317 0.738896 -0.395003
H102  H     H_    0.872756 0.735930 0.743663 0.241713
H103  H     H_    0.943790 0.710247 0.758421 0.219682
C178  C     C_3   0.952311 0.787187 0.730081 -0.894037
H104  H     H_    0.001602 0.779730 0.725525 0.257113
H105  H     H_    0.947741 0.820722 0.747502 0.263440
H106  H     H_    0.930257 0.806317 0.710964 0.255723
O71   O     O_3   0.369935 0.892548 0.723349 -0.567500
C179  C     C_3   0.317336 0.927622 0.717265 0.119201
H107  H     H_    0.297467 0.909053 0.697605 0.191721
H108  H     H_    0.327408 0.976764 0.712828 0.115238
C180  C     C_3   0.269766 0.921735 0.741193 -0.394757
H109  H     H_    0.261139 0.872677 0.745803 0.242035
H110  H     H_    0.287146 0.943569 0.760626 0.219660
C181  C     C_3   0.209821 0.952380 0.733268 -0.893767
H111  H     H_    0.217294 0.001688 0.728883 0.256930
H112  H     H_    0.176523 0.947731 0.751069 0.263630
H113  H     H_    0.190389 0.930484 0.714267 0.255825
O72   O     O_3   0.111047 0.372476 0.721588 -0.567516
C182  C     C_3   0.076075 0.319701 0.715805 0.119066
H114  H     H_    0.094274 0.299918 0.695810 0.191655
H115  H     H_    0.026783 0.329512 0.712105 0.114810
C183  C     C_3   0.082751 0.272177 0.739463 -0.394485
H116  H     H_    0.131954 0.263843 0.743359 0.241959
H117  H     H_    0.061249 0.289432 0.759261 0.219503
C184  C     C_3   0.052266 0.212052 0.731736 -0.894726
H118  H     H_    0.002825 0.219230 0.728063 0.256851
H119  H     H_    0.057487 0.178791 0.749343 0.263534
H120  H     H_    0.073855 0.192742 0.712363 0.255788
H121  H     H_    0.612133 0.104329 0.775024 0.197142
H122  H     H_    0.899660 0.614458 0.776610 0.197320
H123  H     H_    0.383142 0.899055 0.777427 0.197545
H124  H     H_    0.105106 0.385677 0.775795 0.197340
H125  H     H_    0.112130 0.604331 0.275024 0.197142
H126  H     H_    0.399667 0.114464 0.276610 0.197320
H127  H     H_    0.883144 0.399052 0.277427 0.197545
H128  H     H_    0.605099 0.885671 0.275795 0.197340

loop_
_geom_bond_atom_site_label_1
_geom_bond_atom_site_label_2
_ccdc_geom_bond_type
C101  C107  A    
Cu9   O29   S    
C174  H95   S    
C34   C42   A    
C182  C183  S    
C29   H121  S    
C118  H14   S    
C55   O63   S    
C40   C46   A    
C4    O4    A    
C122  C130  D    
C21   C33   A    
C8    O16   A    
C81   C117  D    
C62   C70   A    
C83   C119  D    
C84   H8    S    
C91   H43   S    
C80   C116  D    
C179  H108  S    
C165  H74   S    
C158  N4    A    
Cu5   O35   S    
Cu6   O36   S    
C179  C180  S    
C97   C105  A    
C64   H32   S    
C160  O56   S    
C112  N4    S    
C139  O21   A    
C148  O32   A    
C77   C113  D    
Cu4   O13   S    
C120  H16   S    
C177  H102  S    
Cu1   Cu3   S    
Cu2   Cu4   S    
C138  O20   A    
C25   C29   A    
C161  H66   S    
Cu7   O27   S    
C56   N8    A    
C145  O29   A    
C28   C32   A    
C152  O48   A    
C93   C101  A    
C168  H82   S    
C60   C86   A    
O68   C170  S    
C183  H117  S    
C96   H48   S    
C62   C88   A    
C163  H69   S    
C154  N2    A    
C103  H55   S    
C101  H53   S    
C138  O18   A    
C108  C151  S    
C144  O28   A    
C15   C27   A    
C154  O50   S    
C16   C20   A    
C82   H6    S    
C2    C131  S    
Cu10  O30   S    
C14   C26   A    
C53   O61   S    
C4    C129  S    
Cu1   O1    S    
Cu2   O7    S    
C160  N4    A    
C63   C71   A    
C120  C148  S    
C174  C175  S    
C71   H39   S    
C96   C104  A    
C36   C44   A    
C82   C118  D    
C37   C45   A    
C182  H114  S    
C90   H42   S    
Cu3   O11   S    
C57   H25   S    
C122  H58   S    
C141  O33   A    
C79   C123  S    
C12   C154  A    
C180  C181  S    
O71   C179  S    
C136  H24   S    
C184  H118  S    
C100  C106  A    
C98   C106  A    
C61   C69   A    
C141  O25   A    
C176  H100  S    
C53   N7    A    
C9    C21   A    
C73   C137  S    
C10   C18   A    
C165  C166  S    
C11   C23   A    
C57   C85   A    
Cu11  O37   S    
Cu11  O47   S    
C60   H28   S    
C168  H81   S    
C158  O54   S    
C126  C134  D    
C164  H72   S    
C14   C160  A    
C103  C107  A    
Cu4   O15   S    
Cu8   O34   S    
C177  C178  S    
C42   C54   A    
C44   C48   A    
C84   C128  S    
C39   C51   A    
C172  H90   S    
C128  H64   S    
C79   C115  D    
C150  O42   A    
C35   H127  S    
C30   C38   A    
C24   C36   A    
C33   H125  S    
C163  H71   S    
C117  C145  S    
C162  H68   S    
C65   H33   S    
C68   C74   A    
C66   C74   A    
O70   C176  S    
C124  C132  D    
C93   H45   S    
C55   N7    A    
C155  O51   S    
C61   C87   A    
C59   C67   A    
Cu1   O3    S    
Cu2   O5    S    
C113  H9    S    
C23   O67   S    
C129  H17   S    
Cu12  O38   S    
C92   H44   S    
C27   O71   S    
C35   C43   A    
C132  H20   S    
Cu3   O9    S    
C39   C45   A    
C178  H106  S    
C6    O6    A    
Cu5   Cu7   S    
C143  O27   A    
Cu6   Cu8   S    
Cu9   Cu11  S    
C58   C86   A    
C175  H97   S    
C95   C103  A    
C22   C34   A    
C184  H120  S    
C22   O66   S    
Cu6   O18   S    
C140  O22   A    
C167  H79   S    
C176  C177  S    
C3    O3    A    
C166  H77   S    
Cu9   O21   S    
C1    O9    A    
C59   C85   A    
C6    C135  S    
C137  O17   A    
C171  H89   S    
C134  H22   S    
C104  H56   S    
C164  C165  S    
C57   C65   A    
C41   C47   A    
C42   C48   A    
C41   C53   A    
C43   C55   A    
C26   C30   A    
C172  H92   S    
C169  H84   S    
C170  H87   S    
C70   H38   S    
C146  O30   A    
C85   N5    S    
C49   N5    A    
C171  C172  S    
C52   N6    A    
C81   C125  S    
C36   H128  S    
C17   C47   A    
C83   C127  S    
C182  H115  S    
C18   C48   A    
C102  H54   S    
C19   C45   A    
C169  H85   S    
C12   C24   A    
C142  O26   A    
C83   H7    S    
Cu11  O31   S    
C81   H5    S    
C7    C136  S    
Cu4   O16   S    
C75   C139  S    
C92   C110  A    
C88   N8    S    
C43   C47   A    
C86   N6    S    
C116  H12   S    
C94   C112  A    
C113  C141  S    
Cu5   O25   S    
C125  H61   S    
C119  H15   S    
C38   C46   A    
C77   C121  S    
C11   C153  A    
C130  H18   S    
C9    C155  A    
C133  H21   S    
C173  H93   S    
C95   H47   S    
C157  N3    A    
C6    O14   A    
C145  O37   A    
C91   C99   A    
C151  O47   A    
C13   C159  A    
C175  H99   S    
C20   C46   A    
C181  H111  S    
C140  O24   A    
C167  C168  S    
C100  H52   S    
Cu4   O14   S    
C177  H103  S    
O69   C173  S    
C180  H109  S    
C10   C22   A    
C15   C19   A    
C105  C150  S    
C74   C138  S    
Cu5   O41   S    
C97   H49   S    
C51   O59   S    
C127  C135  D    
C156  O52   S    
C99   H51   S    
C128  C136  D    
C137  O19   A    
C119  C147  S    
C178  H104  S    
Cu10  O22   S    
C163  H70   S    
Cu7   O33   S    
C62   H30   S    
C68   H36   S    
C159  O55   S    
C67   C73   A    
Cu2   O8    S    
C174  H96   S    
C21   O65   S    
C34   H126  S    
C78   C114  D    
Cu12  O48   S    
C28   O72   S    
C7    O7    A    
Cu9   O39   S    
C13   C19   A    
Cu10  O40   S    
C3    C132  S    
C14   C20   A    
Cu9   O45   S    
C1    C130  S    
C181  H113  S    
C114  H10   S    
C16   C158  A    
O67   C167  S    
C52   O60   S    
C37   C49   A    
C44   C56   A    
C84   C120  D    
C127  H63   S    
C4    O12   A    
C111  N3    S    
C9    C17   A    
C151  O45   A    
C54   N8    A    
C63   H31   S    
C93   C111  A    
C8    O8    A    
C23   C35   A    
C27   C31   A    
C143  O35   A    
C150  O44   A    
C110  N2    S    
C104  C108  A    
C89   H41   S    
C80   C124  S    
C25   O69   S    
C161  H65   S    
C11   C17   A    
C77   H1    S    
C123  C131  D    
C121  C129  D    
C168  C169  S    
C115  H11   S    
C15   C157  A    
C183  H116  S    
C33   C41   A    
C148  O40   A    
C176  H101  S    
O72   C182  S    
C149  O41   A    
C166  H76   S    
C117  H13   S    
C54   O62   S    
C162  H67   S    
Cu10  Cu12  S    
Cu7   O19   S    
C69   C75   A    
C135  H23   S    
Cu1   O2    S    
Cu2   O6    S    
C60   C68   A    
C26   O70   S    
C95   C111  A    
C142  O34   A    
C64   C88   A    
Cu3   O12   S    
C3    O11   A    
C161  C162  S    
Cu8   O28   S    
C16   C28   A    
C170  H86   S    
C72   C76   A    
C183  C184  S    
C175  H98   S    
O65   C161  S    
C153  N1    A    
C96   C112  A    
C49   O57   S    
C114  C142  S    
C156  N2    A    
Cu7   O43   S    
C126  H62   S    
Cu8   O44   S    
C66   H34   S    
C153  O49   S    
C180  H110  S    
C89   C109  A    
C94   H46   S    
C65   C73   A    
C146  O38   A    
C56   O64   S    
C61   H29   S    
C58   C66   A    
C59   H27   S    
C178  H105  S    
C51   N5    A    
C102  C108  A    
Cu12  O32   S    
C32   C40   A    
C172  H91   S    
C106  C149  S    
C116  C144  S    
C50   O58   S    
C147  O31   A    
Cu6   O42   S    
C13   C25   A    
C98   H50   S    
C76   C140  S    
C31   H123  S    
C5    C134  S    
C99   C105  A    
C115  C143  S    
C32   H124  S    
C79   H3    S    
C118  C146  S    
Cu5   O17   S    
C80   H4    S    
C147  O39   A    
C149  O43   A    
C10   C156  A    
C2    O2    A    
C2    O10   A    
C162  C163  S    
C164  H73   S    
C40   C52   A    
C24   O68   S    
Cu12  O24   S    
C121  H57   S    
C89   C97   A    
C184  H119  S    
C123  H59   S    
C124  H60   S    
Cu1   O4    S    
Cu3   O10   S    
C107  C152  S    
Cu11  O23   S    
C165  H75   S    
Cu8   O20   S    
C173  H94   S    
C70   C76   A    
C29   C37   A    
C69   H37   S    
C90   C110  A    
C12   C18   A    
Cu10  O46   S    
C67   H35   S    
C179  H107  S    
C92   C100  A    
C157  O53   S    
C125  C133  D    
C58   H26   S    
C181  H112  S    
C63   C87   A    
C8    C133  S    
C139  O23   A    
C109  N1    S    
C30   H122  S    
C166  H78   S    
C38   C50   A    
C131  H19   S    
C173  C174  S    
C87   N7    S    
O66   C164  S    
C91   C109  A    
C152  O46   A    
C71   C75   A    
C171  H88   S    
C72   H40   S    
C159  N3    A    
Cu6   O26   S    
C31   C39   A    
C64   C72   A    
C78   C122  S    
C50   N6    A    
C1    O1    A    
C167  H80   S    
C169  H83   S    
C170  C171  S    
C7    O15   A    
C78   H2    S    
C155  N1    A    
C5    O5    A    
C5    O13   A    
C90   C98   A    
C82   C126  S    
C94   C102  A    
C144  O36   A    
