data_mof_unit_39109.cif
_audit_creation_date              2012-12-11T14:34:10-0500
_audit_creation_method            fapswitch 2.2
_symmetry_space_group_name_H-M    P1
_symmetry_Int_Tables_number       1
_space_group_crystal_system       triclinic
_cell_length_a                    13.953231
_cell_length_b                    14.058703
_cell_length_c                    27.343624
_cell_angle_alpha                 89.845615
_cell_angle_beta                  90.511012
_cell_angle_gamma                 119.724968
_cell_volume                      4657.85065269

loop_
_atom_site_label
_atom_site_type_symbol
_atom_type_description
_atom_site_fract_x
_atom_site_fract_y
_atom_site_fract_z
_atom_type_partial_charge
C1    C     C_R   0.235277 0.786122 0.569033 0.537331
C2    C     C_1   0.685060 0.854858 0.864141 0.069787
C3    C     C_1   0.121991 0.865815 0.855234 0.075174
C4    C     C_1   0.134947 0.268235 0.857520 0.077066
C5    C     C_1   0.622435 0.812791 0.660540 -0.007802
C6    C     C_1   0.183859 0.805696 0.658678 -0.008842
C7    C     C_1   0.191748 0.382125 0.660088 0.036216
C8    C     C_1   0.597859 0.794856 0.617768 0.007861
C9    C     C_1   0.204525 0.799615 0.616762 0.006531
C10   C     C_1   0.200501 0.407051 0.617688 0.021833
C11   C     C_R   0.066162 0.151860 0.095936 0.563758
C12   C     C_R   0.214052 0.449250 0.569326 0.540529
C13   C     C_R   0.778235 0.884125 0.088286 0.547100
C14   C     C_R   0.116262 0.894560 0.088583 0.561218
C15   C     C_R   0.075117 0.170298 0.942714 0.537854
C16   C     C_R   0.778103 0.886431 0.951454 0.552051
C17   C     C_R   0.092994 0.925431 0.942835 0.534576
C18   C     C_R   0.606266 0.888279 0.359484 -0.081129
C19   C     C_R   0.100006 0.724526 0.362284 -0.086707
C20   C     C_R   0.273362 0.379066 0.360757 -0.087732
C21   C     C_R   0.630931 0.903357 0.309649 0.027267
C22   C     C_R   0.081443 0.735946 0.312794 0.027998
C23   C     C_R   0.551946 0.764843 0.569324 0.538398
C24   C     C_R   0.254092 0.332162 0.314014 0.030512
C25   C     C_R   0.671140 0.922864 0.208432 0.032463
C26   C     C_R   0.063475 0.755970 0.211165 0.035244
C27   C     C_R   0.214408 0.252606 0.217305 0.033332
C28   C     C_R   0.231978 0.787861 0.432049 0.543792
C29   C     C_R   0.212105 0.445460 0.431413 0.546029
C30   C     C_R   0.554110 0.766602 0.431632 0.542882
C31   C     C_R   0.638924 0.991999 0.231363 0.212825
C32   C     C_R   0.987639 0.658436 0.234760 0.229155
C33   C     C_R   0.322193 0.300674 0.236954 0.225718
C34   C     C_3   0.627030 0.723705 0.794301 0.081547
C35   C     C_R   0.613914 0.978836 0.282051 0.218947
C36   C     C_R   0.000045 0.646435 0.285706 0.242336
C37   C     C_R   0.342777 0.343923 0.285222 0.246028
C38   C     C_R   0.698418 0.934818 0.158521 -0.113177
C39   C     C_R   0.056189 0.769351 0.160550 -0.096655
C40   C     C_R   0.193417 0.217923 0.168350 -0.090331
C41   C     C_R   0.728274 0.863774 0.136544 -0.020962
C42   C     C_R   0.134042 0.866006 0.137779 -0.021377
C43   C     C_R   0.087563 0.177524 0.148046 -0.024641
C44   C     C_R   0.656189 0.745925 0.363691 -0.085554
C45   C     C_3   0.256627 0.932188 0.787594 0.080389
C46   C     C_R   0.248128 0.913240 0.365922 -0.082708
C47   C     C_R   0.079129 0.320383 0.369351 -0.086140
C48   C     C_R   0.679140 0.757251 0.313984 0.064585
C49   C     C_R   0.234395 0.926120 0.316432 0.067200
C50   C     C_R   0.057151 0.272634 0.322890 0.064643
C51   C     C_R   0.664966 0.835502 0.286644 -0.039293
C52   C     C_R   0.152707 0.835794 0.289368 -0.041030
C53   C     C_R   0.145545 0.280238 0.294711 -0.039664
C54   C     C_R   0.708728 0.686512 0.290764 0.243863
C55   C     C_R   0.307343 0.024716 0.292964 0.239458
C56   C     C_3   0.081801 0.357114 0.791677 0.106197
C57   C     C_R   0.949571 0.223681 0.303117 0.243002
C58   C     C_R   0.721315 0.692531 0.240070 -0.121886
C59   C     C_R   0.303787 0.029652 0.242022 -0.122109
C60   C     C_R   0.931550 0.185665 0.254737 -0.115991
C61   C     C_R   0.708086 0.769939 0.213150 -0.012041
C62   C     C_R   0.224814 0.940241 0.215163 -0.009541
C63   C     C_R   0.018655 0.195369 0.226337 -0.003990
C64   C     C_3   0.555847 0.857336 0.737013 0.048840
C65   C     C_3   0.142354 0.712323 0.740533 0.038404
C66   C     C_3   0.291201 0.423369 0.740467 0.021757
C67   C     C_3   0.618836 0.715490 0.737254 0.159377
C68   C     C_R   0.681129 0.842825 0.236111 -0.007367
C69   C     C_R   0.146522 0.843908 0.238629 -0.009288
C70   C     C_R   0.126140 0.241559 0.246348 -0.006826
C71   C     C_R   0.725910 0.777618 0.163477 -0.109103
C72   C     C_R   0.221286 0.948066 0.164956 -0.113903
C73   C     C_R   0.000220 0.163522 0.177428 -0.123181
C74   C     C_R   0.613212 0.805846 0.385675 -0.045432
C75   C     C_R   0.188159 0.810536 0.387610 -0.048101
C76   C     C_R   0.187156 0.377057 0.387544 -0.046448
C77   C     C_3   0.757241 0.918934 0.727759 0.144139
C78   C     C_3   0.270486 0.918293 0.732015 0.154686
C79   C     C_3   0.061805 0.829142 0.716181 0.147942
C80   C     C_3   0.143575 0.232647 0.719022 0.129459
C81   C     C_3   0.771077 0.925252 0.784683 0.134923
C82   C     C_3   0.052278 0.854758 0.770785 0.140101
C83   C     C_3   0.119886 0.202268 0.774112 0.112547
C84   C     C_1   0.721084 0.868182 0.905393 0.037554
C85   C     C_1   0.108591 0.890676 0.895735 0.052863
C86   C     C_1   0.110854 0.226242 0.897162 0.055279
C87   C     C_3   0.639231 0.825829 0.714221 0.051855
C88   C     C_3   0.165427 0.816604 0.710549 0.062293
C89   C     C_3   0.090634 0.379590 0.735405 0.129262
C90   C     C_3   0.178946 0.355256 0.712408 0.065725
C91   C     C_3   0.569347 0.867455 0.794307 0.153562
C92   C     C_3   0.126086 0.729218 0.796072 0.143196
C93   C     C_3   0.277352 0.390638 0.796281 0.084094
C94   C     C_3   0.662046 0.842837 0.810900 0.016047
C95   C     C_3   0.138600 0.844970 0.803937 0.023791
C96   C     C_3   0.153931 0.305097 0.806404 0.035054
Cr1   Cr    Cr6+3 0.164410 0.584450 0.499910 1.049129
Cr2   Cr    Cr6+3 0.415550 0.579960 0.499910 1.060984
Cr3   Cr    Cr6+3 0.420040 0.835590 0.499910 1.054064
Cr4   Cr    Cr6+3 0.155170 0.075460 0.019960 1.059182
Cr5   Cr    Cr6+3 0.924540 0.079710 0.019960 1.048860
Cr6   Cr    Cr6+3 0.920290 0.844830 0.019960 1.048461
H1    H     H_    0.490536 0.805586 0.811210 0.288074
H2    H     H_    0.689008 0.701539 0.807819 0.139419
H3    H     H_    0.268838 0.015604 0.794805 0.136826
H4    H     H_    0.994223 0.299582 0.801550 0.170459
H5    H     H_    0.699566 0.000267 0.137057 0.176644
H6    H     H_    0.989059 0.706819 0.138987 0.179940
H7    H     H_    0.260030 0.226458 0.145345 0.187995
H8    H     H_    0.573671 0.935039 0.377109 0.206684
H9    H     H_    0.052042 0.645946 0.380024 0.202848
H10   H     H_    0.356783 0.423250 0.375235 0.203082
H11   H     H_    0.650825 0.135202 0.225313 0.329208
H12   H     H_    0.191349 0.724722 0.817943 0.280521
H13   H     H_    0.841439 0.529988 0.228779 0.324167
H14   H     H_    0.464918 0.309329 0.229135 0.325233
H15   H     H_    0.530174 0.055424 0.280863 0.350087
H16   H     H_    0.917855 0.487356 0.286095 0.344782
H17   H     H_    0.500171 0.441700 0.277384 0.343044
H18   H     H_    0.747299 0.720915 0.146602 0.151487
H19   H     H_    0.282050 0.023212 0.147542 0.150474
H20   H     H_    0.918218 0.130527 0.161648 0.127263
H21   H     H_    0.742665 0.637548 0.221632 0.121364
H22   H     H_    0.362608 0.103363 0.223279 0.133917
H23   H     H_    0.300114 0.464009 0.819275 0.256937
H24   H     H_    0.850109 0.151594 0.238702 0.120000
H25   H     H_    0.740321 0.566408 0.295801 0.342118
H26   H     H_    0.429047 0.174866 0.297885 0.339309
H27   H     H_    0.795987 0.185497 0.310886 0.350820
H28   H     H_    0.572331 0.937567 0.721460 0.099242
H29   H     H_    0.065988 0.640106 0.725927 0.104290
H30   H     H_    0.352787 0.404995 0.723892 0.159496
H31   H     H_    0.662687 0.683688 0.384567 0.206075
H32   H     H_    0.313672 0.980050 0.386419 0.207949
H33   H     H_    0.012987 0.318449 0.390586 0.203341
H34   H     H_    0.644846 0.028475 0.790658 0.303720
H35   H     H_    0.847467 0.931040 0.671542 0.334615
H36   H     H_    0.030290 0.874332 0.653228 0.332787
H37   H     H_    0.047418 0.093331 0.687358 0.389275
H38   H     H_    0.766782 0.998707 0.714924 0.077960
H39   H     H_    0.986768 0.749323 0.706884 0.077346
H40   H     H_    0.213817 0.220905 0.707723 0.084097
H41   H     H_    0.792645 0.009199 0.796255 0.147178
H42   H     H_    0.969256 0.792946 0.783446 0.136732
H43   H     H_    0.171864 0.167457 0.786261 0.140775
H44   H     H_    0.844739 0.839252 0.788296 0.369612
H45   H     H_    0.965267 0.633179 0.790500 0.306397
H46   H     H_    0.125822 0.010740 0.757622 0.368996
H47   H     H_    0.960711 0.144842 0.766191 0.371856
H48   H     H_    0.534667 0.650644 0.726162 0.232394
H49   H     H_    0.342182 0.904861 0.726894 0.194906
H50   H     H_    0.115945 0.467286 0.729319 0.154418
H51   H     H_    0.666372 0.608478 0.727340 0.311397
H52   H     H_    0.368125 0.070613 0.714974 0.307956
H53   H     H_    0.985836 0.350614 0.682190 0.335368
H54   H     H_    0.515834 0.575024 0.810629 0.357642
H55   H     H_    0.407678 0.989880 0.810151 0.358048
H56   H     H_    0.347104 0.300001 0.786261 0.304103
H57   H     H_    0.057165 0.474059 0.814013 0.373223
H58   H     H_    0.430848 0.795167 0.691906 0.328662
H59   H     H_    0.222189 0.656714 0.703570 0.329601
H60   H     H_    0.295897 0.561055 0.757295 0.402532
O1    O     O_R   0.137150 0.468200 0.553200 -0.508829
O2    O     O_R   0.140110 0.470540 0.446010 -0.506194
O3    O     O_R   0.529460 0.669570 0.446010 -0.509757
O4    O     O_R   0.330430 0.859890 0.446010 -0.506951
O5    O     O_R   0.176710 0.690910 0.450560 -0.501144
O6    O     O_R   0.309090 0.485800 0.450560 -0.499829
O7    O     O_R   0.514200 0.823290 0.450560 -0.500449
O8    O     O_3   0.333333 0.666667 0.499990 -0.284946
O9    O     O_R   0.176750 0.985260 0.074180 -0.522167
O10   O     O_R   0.014740 0.191490 0.074180 -0.475119
O11   O     O_R   0.808510 0.823250 0.074180 -0.512394
O12   O     O_R   0.531800 0.668950 0.553200 -0.492622
O13   O     O_R   0.146100 0.172630 0.068980 -0.480002
O14   O     O_R   0.827370 0.973470 0.068980 -0.521836
O15   O     O_R   0.026530 0.853900 0.068980 -0.491683
O16   O     O_3   0.000000 1.000000 0.020040 -0.297213
O17   O     O_R   0.148270 0.170520 0.969620 -0.485789
O18   O     O_R   0.829480 0.977750 0.969620 -0.511088
O19   O     O_R   0.022250 0.851730 0.969620 -0.475773
O20   O     O_3   0.588903 0.970000 0.811595 -0.720083
O21   O     O_3   0.024731 0.645356 0.814036 -0.727957
O22   O     O_3   0.348975 0.351990 0.811172 -0.724245
O23   O     O_R   0.331050 0.862850 0.553200 -0.495615
O24   O     O_3   0.447138 0.777832 0.725127 -0.641516
O25   O     O_3   0.229854 0.691071 0.736116 -0.674737
O26   O     O_3   0.332948 0.536374 0.733994 -0.692214
O27   O     O_3   0.634516 0.072314 0.203786 -0.723585
O28   O     O_3   0.903983 0.576575 0.207200 -0.724951
O29   O     O_3   0.405519 0.306219 0.207968 -0.734110
O30   O     O_3   0.570920 0.036522 0.305200 -0.702492
O31   O     O_3   0.936867 0.547972 0.309470 -0.699806
O32   O     O_3   0.448570 0.401934 0.304296 -0.695085
O33   O     O_3   0.722223 0.610837 0.317974 -0.674566
O34   O     O_R   0.179100 0.982980 0.967000 -0.489882
O35   O     O_3   0.383766 0.113193 0.320163 -0.679725
O36   O     O_3   0.864393 0.217306 0.330979 -0.688503
O37   O     O_3   0.838771 0.902906 0.705487 -0.568941
O38   O     O_3   0.065294 0.910408 0.684705 -0.621056
O39   O     O_3   0.051879 0.165886 0.689088 -0.635680
O40   O     O_3   0.859025 0.911056 0.800498 -0.583476
O41   O     O_3   0.060896 0.957718 0.776360 -0.586942
O42   O     O_3   0.009630 0.121765 0.782339 -0.603443
O43   O     O_3   0.694940 0.686693 0.718981 -0.689417
O44   O     O_3   0.291460 0.013673 0.706522 -0.697226
O45   O     O_R   0.017020 0.196120 0.967000 -0.475156
O46   O     O_3   0.986363 0.314724 0.713434 -0.696545
O47   O     O_3   0.525039 0.649140 0.815067 -0.701349
O48   O     O_3   0.336477 0.921326 0.814984 -0.686531
O49   O     O_3   0.116395 0.454956 0.817856 -0.716523
O50   O     O_R   0.803880 0.820900 0.967000 -0.502060
O51   O     O_R   0.173970 0.688730 0.549930 -0.507330
O52   O     O_R   0.311270 0.485240 0.549930 -0.494333
O53   O     O_R   0.514760 0.826030 0.549930 -0.503000

loop_
_geom_bond_atom_site_label_1
_geom_bond_atom_site_label_2
_ccdc_geom_bond_type
C25   C31   A    
C13   O14   A    
C65   O25   S    
C26   C32   A    
C35   O30   S    
C15   O17   A    
C57   O36   S    
C65   C92   S    
C18   C21   A    
C55   C59   A    
C2    C84   T    
C77   H38   S    
C12   O52   A    
Cr4   O16   S    
C64   O24   S    
C6    C9    T    
C13   C41   S    
C79   C82   S    
C79   H39   S    
H57   O49   S    
C66   C90   S    
Cr3   O8    S    
C23   O53   A    
C27   C33   A    
Cr6   O11   S    
C13   O11   A    
C16   O18   A    
C46   C49   A    
C58   H21   S    
C71   H18   S    
C60   C63   A    
C17   C85   S    
C32   C36   A    
C29   O6    A    
H15   O30   S    
C47   C76   A    
C66   O26   S    
C82   O41   S    
C30   C74   S    
C93   O22   S    
C26   C39   A    
C89   O46   S    
C4    C86   T    
C78   C88   S    
C16   C84   S    
C8    C23   S    
C6    C88   S    
C20   C76   A    
Cr5   O10   S    
C7    C10   T    
C38   H5    S    
H16   O31   S    
C36   O31   S    
C79   C88   S    
Cr5   O16   S    
Cr5   O45   S    
C28   O5    A    
C20   H10   S    
H13   O28   S    
C43   C73   A    
C89   H50   S    
H35   O37   S    
Cr1   O1    S    
C92   H12   S    
C11   C43   S    
C45   C78   S    
C52   C69   A    
H58   O24   S    
C47   C50   A    
C72   H19   S    
C64   C87   S    
H27   O36   S    
C67   O43   S    
C28   O4    A    
C41   C71   A    
Cr3   O4    S    
C61   C71   A    
C58   C61   A    
Cr2   O52   S    
H59   O25   S    
H55   O48   S    
C18   C74   A    
Cr1   O51   S    
C67   H48   S    
Cr6   O19   S    
C29   O2    A    
C25   C68   A    
C80   C83   S    
C53   C70   A    
C46   C75   A    
C65   H29   S    
C45   H3    S    
C78   H49   S    
C39   C42   A    
C66   H30   S    
Cr4   O34   S    
C4    C96   S    
C39   H6    S    
C26   C69   A    
C48   C51   A    
C50   C53   A    
C62   C72   A    
Cr2   O3    S    
C20   C24   A    
C2    C94   S    
C19   C22   A    
C1    C9    S    
C38   C41   A    
C82   H42   S    
H53   O46   S    
H37   O39   S    
C23   O12   A    
C79   O38   S    
C14   O9    A    
C57   C60   A    
C63   C73   A    
C24   C53   A    
C49   C55   A    
C7    C90   S    
C92   C95   S    
C33   C37   A    
Cr1   O8    S    
C62   C69   A    
C5    C87   S    
C15   O45   A    
C48   C54   A    
C78   O44   S    
C30   O7    A    
C34   O47   S    
H25   O33   S    
C25   C38   A    
C46   H32   S    
C80   O39   S    
C63   C70   A    
C16   O50   A    
C27   C40   A    
C54   O33   S    
C49   C52   A    
H26   O35   S    
C40   C43   A    
Cr4   O13   S    
C42   C72   A    
C24   C37   A    
C40   H7    S    
C32   O28   S    
C44   C74   A    
C77   O37   S    
H47   O42   S    
C56   H4    S    
H52   O44   S    
C27   C70   A    
C10   C12   S    
C56   O49   S    
C15   C86   S    
H51   O43   S    
C56   C89   S    
H14   O29   S    
C64   H28   S    
C73   H20   S    
C93   C96   S    
C80   H40   S    
C66   C93   S    
C1    O51   A    
Cr6   O16   S    
C31   C35   A    
C3    C85   T    
C83   H43   S    
C45   C95   S    
Cr3   O23   S    
H11   O27   S    
C65   C88   S    
C22   C52   A    
C54   C58   A    
H45   O21   S    
C59   H22   S    
C56   C96   S    
C59   C62   A    
C82   C95   S    
C47   H33   S    
H54   O47   S    
C50   C57   A    
C67   C87   S    
C34   C94   S    
C30   O3    A    
C91   H1    S    
C83   O42   S    
Cr5   O14   S    
C92   O21   S    
C34   C67   S    
C5    C8    T    
C81   O40   S    
Cr3   O7    S    
C19   H9    S    
C22   C36   A    
C31   O27   S    
C11   O13   A    
C45   O48   S    
C14   C42   S    
C33   O29   S    
Cr1   O2    S    
C1    O23   A    
H17   O32   S    
C19   C75   A    
C21   C35   A    
H44   O40   S    
Cr5   O18   S    
Cr1   O5    S    
C37   O32   S    
C91   C94   S    
H60   O26   S    
C81   C94   S    
Cr4   O17   S    
C61   C68   A    
Cr6   O50   S    
C55   O35   S    
Cr3   O53   S    
Cr2   O12   S    
C83   C96   S    
C44   H31   S    
C60   H24   S    
C93   H23   S    
C51   C68   A    
C80   C90   S    
C34   H2    S    
C14   O15   A    
Cr2   O8    S    
C17   O19   A    
C81   H41   S    
C21   C51   A    
C29   C76   S    
C77   C87   S    
C18   H8    S    
C77   C81   S    
C91   O20   S    
H34   O20   S    
Cr6   O15   S    
Cr4   O9    S    
C17   O34   A    
C3    C95   S    
C64   C91   S    
C89   C90   S    
C28   C75   S    
H56   O22   S    
C11   O10   A    
Cr2   O6    S    
C44   C48   A    
H46   O41   S    
C12   O1    A    
H36   O38   S    
