data_mof_unit_64180.cif
_audit_creation_date              2013-03-05T16:43:23-0500
_audit_creation_method            fapswitch 2.2
_symmetry_space_group_name_H-M    P1
_symmetry_Int_Tables_number       1
_space_group_crystal_system       triclinic
_cell_length_a                    25.922098
_cell_length_b                    39.674854
_cell_length_c                    23.732195
_cell_angle_alpha                 89.999905
_cell_angle_beta                  123.16645
_cell_angle_gamma                 90.000081
_cell_volume                      20431.1517525

loop_
_atom_site_label
_atom_site_type_symbol
_atom_site_description
_atom_site_fract_x
_atom_site_fract_y
_atom_site_fract_z
_atom_type_partial_charge
Zn1   Zn    Zn3+2 0.515340 0.221940 0.943940 1.039500
Zn2   Zn    Zn3+2 0.484660 0.778060 0.056060 1.017500
Zn3   Zn    Zn3+2 0.484660 0.221940 0.056060 1.017498
Zn4   Zn    Zn3+2 0.515340 0.778060 0.943940 1.039464
Zn5   Zn    Zn3+2 0.015340 0.721940 0.943940 1.018794
Zn6   Zn    Zn3+2 0.984660 0.278060 0.056060 1.034679
Zn7   Zn    Zn3+2 0.984660 0.721940 0.056060 1.034679
Zn8   Zn    Zn3+2 0.015340 0.278060 0.943940 1.018795
Zn9   Zn    Zn3+2 0.428600 0.278000 0.943940 0.983629
Zn10  Zn    Zn3+2 0.571400 0.722000 0.056060 0.976870
Zn11  Zn    Zn3+2 0.571400 0.278000 0.056060 0.976936
Zn12  Zn    Zn3+2 0.428600 0.722000 0.943940 0.983626
Zn13  Zn    Zn3+2 0.928600 0.778000 0.943940 0.970804
Zn14  Zn    Zn3+2 0.071400 0.222000 0.056060 0.980521
Zn15  Zn    Zn3+2 0.071400 0.778000 0.056060 0.980515
Zn16  Zn    Zn3+2 0.928600 0.222000 0.943940 0.970809
H1    H     H_    0.408378 0.617165 0.909478 0.164624
H2    H     H_    0.591589 0.382832 0.090583 0.164886
H3    H     H_    0.591590 0.617167 0.090582 0.164888
H4    H     H_    0.408379 0.382835 0.909477 0.164623
H5    H     H_    0.908547 0.117170 0.909211 0.165051
H6    H     H_    0.091483 0.882833 0.090732 0.164778
H7    H     H_    0.091481 0.117167 0.090735 0.164781
H8    H     H_    0.908546 0.882830 0.909214 0.165050
C1    C     C_R   0.499989 0.621908 0.000022 -0.001879
C2    C     C_R   0.499989 0.378092 0.000022 -0.001874
C3    C     C_R   0.000010 0.121909 0.999980 -0.002743
C4    C     C_R   0.000010 0.878091 0.999980 -0.002743
O1    O     O_3   0.500000 0.249970 0.000000 -0.487269
O2    O     O_3   0.500000 0.750030 0.000000 -0.487279
O3    O     O_3   0.000000 0.749970 0.000000 -0.488812
O4    O     O_3   0.000000 0.250030 0.000000 -0.488814
O5    O     O_R   0.403840 0.230350 0.039240 -0.639076
O6    O     O_R   0.596160 0.769650 0.960760 -0.633375
O7    O     O_R   0.596160 0.230350 0.960760 -0.633453
O8    O     O_R   0.403840 0.769650 0.039240 -0.638992
O9    O     O_R   0.903840 0.730350 0.039240 -0.628345
O10   O     O_R   0.096160 0.269650 0.960760 -0.629229
O11   O     O_R   0.096160 0.730350 0.960760 -0.629229
O12   O     O_R   0.903840 0.269650 0.039240 -0.628343
H9    H     H_    0.408597 0.555373 0.909936 0.136501
H10   H     H_    0.591343 0.444625 0.090180 0.136393
H11   H     H_    0.591343 0.555375 0.090180 0.136393
H12   H     H_    0.408597 0.444627 0.909935 0.136501
H13   H     H_    0.908791 0.055376 0.909614 0.136170
H14   H     H_    0.091265 0.944626 0.090279 0.136284
H15   H     H_    0.091263 0.055374 0.090282 0.136284
H16   H     H_    0.908789 0.944624 0.909617 0.136169
O13   O     O_R   0.394820 0.269600 0.850350 -0.645609
O14   O     O_R   0.605180 0.730400 0.149650 -0.645396
O15   O     O_R   0.605180 0.269600 0.149650 -0.645389
O16   O     O_R   0.394820 0.730400 0.850350 -0.645602
O17   O     O_R   0.894820 0.769600 0.850350 -0.646151
O18   O     O_R   0.105180 0.230400 0.149650 -0.645832
O19   O     O_R   0.105180 0.769600 0.149650 -0.645832
O20   O     O_R   0.894820 0.230400 0.850350 -0.646151
C5    C     C_R   0.499970 0.551252 0.000059 0.168112
C6    C     C_R   0.499970 0.448748 0.000059 0.168112
C7    C     C_R   0.000027 0.051253 0.999947 0.168229
C8    C     C_R   0.000028 0.948747 0.999947 0.168229
O21   O     O_R   0.450030 0.324790 0.960750 -0.643661
O22   O     O_R   0.549970 0.675210 0.039250 -0.642740
O23   O     O_R   0.549970 0.324790 0.039250 -0.642751
O24   O     O_R   0.450030 0.675210 0.960750 -0.643657
O25   O     O_R   0.950030 0.824790 0.960750 -0.641304
O26   O     O_R   0.049970 0.175210 0.039250 -0.642575
O27   O     O_R   0.049970 0.824790 0.039250 -0.642578
O28   O     O_R   0.950030 0.175210 0.960750 -0.641301
O29   O     O_R   0.489260 0.175140 0.039240 -0.632534
O30   O     O_R   0.510740 0.824860 0.960760 -0.587371
O31   O     O_R   0.510740 0.175140 0.960760 -0.587411
O32   O     O_R   0.489260 0.824860 0.039240 -0.632422
O33   O     O_R   0.989260 0.675140 0.039240 -0.588610
O34   O     O_R   0.010740 0.324860 0.960760 -0.615946
O35   O     O_R   0.010740 0.675140 0.960760 -0.615946
O36   O     O_R   0.989260 0.324860 0.039240 -0.588610
O37   O     O_R   0.455530 0.230360 0.850350 -0.641879
O38   O     O_R   0.544470 0.769640 0.149650 -0.647403
O39   O     O_R   0.544470 0.230360 0.149650 -0.647375
O40   O     O_R   0.455530 0.769640 0.850350 -0.641899
O41   O     O_R   0.955530 0.730360 0.850350 -0.647892
O42   O     O_R   0.044470 0.269640 0.149650 -0.640012
O43   O     O_R   0.044470 0.730360 0.149650 -0.640013
O44   O     O_R   0.955530 0.269640 0.850350 -0.647892
O45   O     O_R   0.364600 0.269590 0.960770 -0.630353
O46   O     O_R   0.635400 0.730410 0.039230 -0.633242
O47   O     O_R   0.635400 0.269590 0.039230 -0.633219
O48   O     O_R   0.364600 0.730410 0.960770 -0.630366
O49   O     O_R   0.864600 0.769590 0.960770 -0.634697
O50   O     O_R   0.135400 0.230410 0.039230 -0.632652
O51   O     O_R   0.135400 0.769590 0.039230 -0.632657
O52   O     O_R   0.864600 0.230410 0.960770 -0.634695
C9    C     C_R   0.360175 0.250346 0.000693 0.812898
C10   C     C_R   0.639823 0.749652 0.999304 0.809330
C11   C     C_R   0.639823 0.250348 0.999304 0.809399
C12   C     C_R   0.360175 0.749654 0.000693 0.812956
C13   C     C_R   0.860178 0.750345 0.000694 0.797301
C14   C     C_R   0.139829 0.249664 0.999322 0.813777
C15   C     C_R   0.139829 0.750336 0.999322 0.813777
C16   C     C_R   0.860178 0.249655 0.000694 0.797299
C17   C     C_R   0.408964 0.249991 0.817943 0.798987
C18   C     C_R   0.591032 0.750005 0.182058 0.789699
C19   C     C_R   0.591032 0.249994 0.182058 0.789780
C20   C     C_R   0.408964 0.750009 0.817943 0.798915
C21   C     C_R   0.908972 0.749997 0.817942 0.783276
C22   C     C_R   0.091030 0.250004 0.182058 0.790728
C23   C     C_R   0.091030 0.749996 0.182058 0.790728
C24   C     C_R   0.908972 0.250003 0.817942 0.783278
C25   C     C_R   0.499998 0.340979 0.000004 0.775181
C26   C     C_R   0.499998 0.659020 0.000004 0.775196
C27   C     C_R   0.000001 0.840979 0.999996 0.777149
C28   C     C_R   0.000002 0.159021 0.999997 0.777152
C29   C     C_R   0.500940 0.159091 0.000729 0.967133
C30   C     C_R   0.500946 0.840909 0.000733 0.966747
C31   C     C_R   0.999751 0.659026 0.999856 0.912960
C32   C     C_R   0.999751 0.340974 0.999856 0.912958
C33   C     C_R   0.553327 0.931814 0.031581 -0.201170
C34   C     C_R   0.442556 0.069562 0.975871 -0.208992
C35   C     C_R   0.442576 0.930437 0.976040 -0.209059
C36   C     C_R   0.553342 0.068192 0.031746 -0.201199
C37   C     C_R   0.950167 0.431726 0.988055 -0.200567
C38   C     C_R   0.048803 0.569206 0.999612 -0.217163
C39   C     C_R   0.048803 0.430794 0.999611 -0.217163
C40   C     C_R   0.950167 0.568274 0.988055 -0.200567
H17   H     H_    0.595569 0.946287 0.053738 0.187548
H18   H     H_    0.399349 0.056137 0.954693 0.188399
H19   H     H_    0.399382 0.943858 0.954990 0.188390
H20   H     H_    0.595596 0.053720 0.054028 0.187586
H21   H     H_    0.911667 0.445845 0.982115 0.180377
H22   H     H_    0.086892 0.555631 0.003443 0.187076
H23   H     H_    0.086891 0.444369 0.003442 0.187076
H24   H     H_    0.911667 0.554155 0.982115 0.180377
C41   C     C_R   0.555446 0.896546 0.029469 0.256011
C42   C     C_R   0.442765 0.104881 0.972696 0.266399
C43   C     C_R   0.442783 0.895118 0.972866 0.266533
C44   C     C_R   0.555466 0.103461 0.029639 0.255940
C45   C     C_R   0.950801 0.396578 0.992941 0.273958
C46   C     C_R   0.050867 0.604464 0.004718 0.281661
C47   C     C_R   0.050867 0.395537 0.004718 0.281661
C48   C     C_R   0.950801 0.603422 0.992941 0.273957
C49   C     C_R   0.499656 0.877931 0.999656 -0.259685
C50   C     C_R   0.499658 0.122071 0.999659 -0.259667
C51   C     C_R   0.001162 0.378095 0.000829 -0.264527
C52   C     C_R   0.001162 0.621905 0.000829 -0.264527
C53   C     C_R   0.497379 0.948634 0.004752 0.015669
C54   C     C_R   0.497376 0.051369 0.004750 0.015665
C55   C     C_R   0.998942 0.448728 0.991649 0.016792
C56   C     C_R   0.998942 0.551272 0.991649 0.016792
C57   C     C_1   0.496327 0.984831 0.005289 0.006114
C58   C     C_1   0.496326 0.015171 0.005289 0.006095
C59   C     C_1   0.998880 0.484851 0.989974 0.007369
C60   C     C_1   0.998880 0.515149 0.989974 0.007369
C61   C     C_R   0.448568 0.604008 0.949257 -0.213298
C62   C     C_R   0.551396 0.395990 0.050812 -0.213087
C63   C     C_R   0.551396 0.604010 0.050812 -0.213086
C64   C     C_R   0.448569 0.395991 0.949257 -0.213299
C65   C     C_R   0.948679 0.104011 0.949074 -0.212571
C66   C     C_R   0.051354 0.895990 0.050863 -0.213066
C67   C     C_R   0.051353 0.104010 0.050864 -0.213065
C68   C     C_R   0.948678 0.895989 0.949075 -0.212574
H25   H     H_    0.641264 0.403809 0.011062 0.138556
H26   H     H_    0.359331 0.596179 0.990008 0.138729
H27   H     H_    0.359328 0.403822 0.990002 0.138728
H28   H     H_    0.641263 0.596191 0.011060 0.138556
H29   H     H_    0.140473 0.903706 0.010116 0.138142
H30   H     H_    0.858946 0.096286 0.988871 0.138112
H31   H     H_    0.858946 0.903715 0.988875 0.138114
H32   H     H_    0.140477 0.096294 0.010126 0.138141
C69   C     C_R   0.621231 0.356915 0.957307 -0.113315
C70   C     C_R   0.379225 0.643185 0.043381 -0.114855
C71   C     C_R   0.379223 0.356816 0.043376 -0.114856
C72   C     C_R   0.621229 0.643085 0.957305 -0.113316
C73   C     C_R   0.120776 0.856780 0.956532 -0.112122
C74   C     C_R   0.878808 0.143114 0.042796 -0.112779
C75   C     C_R   0.878809 0.856886 0.042798 -0.112775
C76   C     C_R   0.120779 0.143219 0.956537 -0.112110
H33   H     H_    0.575373 0.364539 0.917263 0.125719
H34   H     H_    0.425146 0.635653 0.083422 0.126052
H35   H     H_    0.425144 0.364349 0.083418 0.126051
H36   H     H_    0.575372 0.635461 0.917262 0.125720
H37   H     H_    0.074921 0.864340 0.916376 0.126224
H38   H     H_    0.924616 0.135472 0.082929 0.126249
H39   H     H_    0.924618 0.864528 0.082930 0.126249
H40   H     H_    0.074925 0.135659 0.916380 0.126224
C77   C     C_R   0.643420 0.325023 0.955822 -0.121546
C78   C     C_R   0.356913 0.675073 0.044653 -0.120613
C79   C     C_R   0.356911 0.324927 0.044650 -0.120609
C80   C     C_R   0.643419 0.674977 0.955821 -0.121534
C81   C     C_R   0.143151 0.824915 0.955232 -0.118402
C82   C     C_R   0.856558 0.174983 0.044305 -0.117358
C83   C     C_R   0.856559 0.825017 0.044305 -0.117362
C84   C     C_R   0.143153 0.175084 0.955236 -0.118408
H41   H     H_    0.614455 0.308327 0.913977 0.100345
H42   H     H_    0.385850 0.691859 0.086340 0.101310
H43   H     H_    0.385849 0.308142 0.086338 0.101309
H44   H     H_    0.614454 0.691673 0.913976 0.100353
H45   H     H_    0.114327 0.808169 0.913427 0.102071
H46   H     H_    0.885428 0.191649 0.086244 0.102481
H47   H     H_    0.885429 0.808350 0.086243 0.102477
H48   H     H_    0.114330 0.191829 0.913428 0.102075
C85   C     C_R   0.702852 0.314876 0.007881 0.134675
C86   C     C_R   0.297398 0.685104 0.992591 0.134655
C87   C     C_R   0.297397 0.314896 0.992588 0.134656
C88   C     C_R   0.702852 0.685123 0.007881 0.134680
C89   C     C_R   0.202581 0.814853 0.007438 0.138748
C90   C     C_R   0.797188 0.185150 0.992134 0.139791
C91   C     C_R   0.797189 0.814850 0.992135 0.139777
C92   C     C_R   0.202583 0.185147 0.007442 0.138756
C93   C     C_R   0.739838 0.337346 0.060863 -0.110511
C94   C     C_R   0.260453 0.662515 0.939834 -0.110070
C95   C     C_R   0.260451 0.337484 0.939830 -0.110071
C96   C     C_R   0.739837 0.662653 0.060862 -0.110519
C97   C     C_R   0.239372 0.837373 0.060389 -0.123749
C98   C     C_R   0.760333 0.162734 0.938998 -0.123994
C99   C     C_R   0.760333 0.837267 0.939001 -0.123892
C100  C     C_R   0.239373 0.162628 0.060396 -0.123859
H49   H     H_    0.785814 0.330103 0.101344 0.137108
H50   H     H_    0.214415 0.669665 0.899355 0.133585
H51   H     H_    0.214414 0.330334 0.899352 0.133586
H52   H     H_    0.785813 0.669897 0.101342 0.137105
H53   H     H_    0.285332 0.830186 0.100993 0.129803
H54   H     H_    0.714418 0.170005 0.898417 0.130830
H55   H     H_    0.714418 0.829996 0.898421 0.130852
H56   H     H_    0.285332 0.169817 0.101001 0.129797
C101  C     C_R   0.717504 0.369249 0.062020 -0.122972
C102  C     C_R   0.282907 0.630614 0.938893 -0.117212
C103  C     C_R   0.282905 0.369385 0.938888 -0.117212
C104  C     C_R   0.717503 0.630751 0.062018 -0.122969
C105  C     C_R   0.216851 0.869248 0.061366 -0.127233
C106  C     C_R   0.782731 0.130856 0.937809 -0.130642
C107  C     C_R   0.782731 0.869145 0.937813 -0.130588
C108  C     C_R   0.216853 0.130753 0.061375 -0.127326
H57   H     H_    0.746153 0.386419 0.103007 0.135765
H58   H     H_    0.254287 0.613353 0.898078 0.135721
H59   H     H_    0.254285 0.386646 0.898073 0.135721
H60   H     H_    0.746151 0.613580 0.103005 0.135764
H61   H     H_    0.245346 0.886459 0.102335 0.132921
H62   H     H_    0.754187 0.113725 0.896701 0.132988
H63   H     H_    0.754187 0.886276 0.896706 0.132995
H64   H     H_    0.245347 0.113544 0.102346 0.132916
C109  C     C_R   0.658322 0.379041 0.010240 -0.101616
C110  C     C_R   0.342175 0.620943 0.990666 -0.102034
C111  C     C_R   0.342172 0.379057 0.990660 -0.102034
C112  C     C_R   0.658320 0.620959 0.010238 -0.101617
C113  C     C_R   0.157675 0.878960 0.009434 -0.097991
C114  C     C_R   0.841844 0.121037 0.989714 -0.099755
C115  C     C_R   0.841845 0.878964 0.989718 -0.099753
C116  C     C_R   0.157678 0.121041 0.009442 -0.097987
C117  C     C_R   0.282013 0.779824 0.008353 -0.215140
C118  C     C_R   0.717881 0.220185 0.991443 -0.217132
C119  C     C_R   0.717881 0.779815 0.991443 -0.217144
C120  C     C_R   0.282014 0.220176 0.008356 -0.215196
C121  C     C_R   0.782130 0.279827 0.008555 -0.218532
C122  C     C_R   0.217997 0.720148 0.991702 -0.212842
C123  C     C_R   0.217996 0.279852 0.991700 -0.212849
C124  C     C_R   0.782130 0.720173 0.008555 -0.218540
H65   H     H_    0.306102 0.803035 0.012781 0.180721
H66   H     H_    0.693704 0.196983 0.986838 0.189796
H67   H     H_    0.693704 0.803017 0.986838 0.189914
H68   H     H_    0.306104 0.196965 0.012785 0.180600
H69   H     H_    0.806315 0.303027 0.013156 0.193589
H70   H     H_    0.193902 0.696939 0.987289 0.193236
H71   H     H_    0.193901 0.303061 0.987286 0.193237
H72   H     H_    0.806315 0.696973 0.013156 0.193589
C125  C     C_R   0.304730 0.749044 0.001976 -0.059923
C126  C     C_R   0.695274 0.250955 0.998034 -0.059305
C127  C     C_R   0.695274 0.749045 0.998034 -0.059312
C128  C     C_R   0.304730 0.250956 0.001977 -0.059872
C129  C     C_R   0.804730 0.249058 0.001962 -0.058040
C130  C     C_R   0.195281 0.750929 0.998063 -0.063904
C131  C     C_R   0.195281 0.249071 0.998063 -0.063905
C132  C     C_R   0.804730 0.750942 0.001962 -0.058036
C133  C     C_R   0.272984 0.718698 0.994320 -0.012206
C134  C     C_R   0.727140 0.281284 0.005924 -0.011439
C135  C     C_R   0.727140 0.718716 0.005923 -0.011428
C136  C     C_R   0.272984 0.281302 0.994319 -0.012204
C137  C     C_R   0.772871 0.218732 0.994079 -0.010076
C138  C     C_R   0.227023 0.781270 0.005721 -0.009057
C139  C     C_R   0.227024 0.218730 0.005723 -0.009021
C140  C     C_R   0.772871 0.781268 0.994080 -0.010094
C141  C     C_R   0.785554 0.228488 0.637524 -0.164499
C142  C     C_R   0.214439 0.771516 0.362476 -0.163804
C143  C     C_R   0.214439 0.228484 0.362476 -0.163800
C144  C     C_R   0.785554 0.771512 0.637523 -0.164501
C145  C     C_R   0.285534 0.728502 0.637525 -0.162748
C146  C     C_R   0.714470 0.271496 0.362475 -0.163466
C147  C     C_R   0.714470 0.728504 0.362476 -0.163477
C148  C     C_R   0.285534 0.271498 0.637525 -0.162739
H73   H     H_    0.746231 0.211780 0.610586 0.136645
H74   H     H_    0.253756 0.788228 0.389413 0.136605
H75   H     H_    0.253755 0.211772 0.389414 0.136605
H76   H     H_    0.746231 0.788220 0.610586 0.136644
H77   H     H_    0.246234 0.711779 0.610588 0.136982
H78   H     H_    0.753785 0.288209 0.389413 0.136953
H79   H     H_    0.753786 0.711791 0.389413 0.136952
H80   H     H_    0.246234 0.288221 0.610588 0.136983
C149  C     C_R   0.820646 0.228468 0.707804 -0.192819
C150  C     C_R   0.179350 0.771534 0.292195 -0.191745
C151  C     C_R   0.179350 0.228466 0.292196 -0.191744
C152  C     C_R   0.820646 0.771532 0.707804 -0.192820
C153  C     C_R   0.320641 0.728472 0.707806 -0.190709
C154  C     C_R   0.679365 0.271525 0.292195 -0.191193
C155  C     C_R   0.679365 0.728475 0.292195 -0.191208
C156  C     C_R   0.320641 0.271528 0.707806 -0.190704
H81   H     H_    0.807686 0.211641 0.733980 0.161878
H82   H     H_    0.192305 0.788363 0.266020 0.161767
H83   H     H_    0.192305 0.211636 0.266020 0.161767
H84   H     H_    0.807686 0.788359 0.733980 0.161878
H85   H     H_    0.307715 0.711624 0.733982 0.161812
H86   H     H_    0.692308 0.288362 0.266019 0.162043
H87   H     H_    0.692308 0.711638 0.266019 0.162044
H88   H     H_    0.307716 0.288377 0.733982 0.161812
C157  C     C_R   0.871849 0.249976 0.743679 -0.006870
C158  C     C_R   0.128154 0.750022 0.256320 -0.009557
C159  C     C_R   0.128154 0.249978 0.256320 -0.009557
C160  C     C_R   0.871848 0.750024 0.743679 -0.006870
C161  C     C_R   0.371820 0.749995 0.743681 -0.008703
C162  C     C_R   0.628169 0.250013 0.256320 -0.007248
C163  C     C_R   0.628169 0.749987 0.256320 -0.007237
C164  C     C_R   0.371820 0.250005 0.743681 -0.008699
C165  C     C_R   0.887233 0.271466 0.707885 -0.188579
C166  C     C_R   0.112776 0.728526 0.292114 -0.184564
C167  C     C_R   0.112776 0.271473 0.292114 -0.184562
C168  C     C_R   0.887233 0.728534 0.707885 -0.188581
C169  C     C_R   0.387159 0.771516 0.707887 -0.182670
C170  C     C_R   0.612808 0.228506 0.292114 -0.186299
C171  C     C_R   0.612807 0.771493 0.292114 -0.186336
C172  C     C_R   0.387158 0.228483 0.707887 -0.182621
H89   H     H_    0.926397 0.288299 0.734119 0.165573
H90   H     H_    0.073619 0.711689 0.265879 0.168350
H91   H     H_    0.073619 0.288311 0.265879 0.168352
H92   H     H_    0.926397 0.711701 0.734119 0.165572
H93   H     H_    0.426299 0.788365 0.734121 0.165163
H94   H     H_    0.573652 0.211668 0.265880 0.164314
H95   H     H_    0.573651 0.788331 0.265880 0.164316
H96   H     H_    0.426298 0.211634 0.734121 0.165158
C173  C     C_R   0.852062 0.271433 0.637612 -0.162709
C174  C     C_R   0.147945 0.728561 0.362387 -0.162286
C175  C     C_R   0.147945 0.271438 0.362387 -0.162281
C176  C     C_R   0.852061 0.728567 0.637612 -0.162713
C177  C     C_R   0.351972 0.771493 0.637613 -0.162211
C178  C     C_R   0.647993 0.228531 0.362387 -0.161977
C179  C     C_R   0.647992 0.771468 0.362387 -0.161992
C180  C     C_R   0.351971 0.228507 0.637613 -0.162205
H97   H     H_    0.864486 0.288138 0.610747 0.138111
H98   H     H_    0.135524 0.711854 0.389252 0.138705
H99   H     H_    0.135524 0.288146 0.389252 0.138706
H100  H     H_    0.864486 0.711862 0.610747 0.138109
H101  H     H_    0.364365 0.788219 0.610748 0.137673
H102  H     H_    0.635584 0.211815 0.389253 0.137595
H103  H     H_    0.635583 0.788184 0.389252 0.137595
H104  H     H_    0.364363 0.211780 0.610748 0.137673
C181  C     C_R   0.801234 0.249961 0.602420 0.157367
C182  C     C_R   0.198763 0.750040 0.397579 0.156786
C183  C     C_R   0.198763 0.249960 0.397579 0.156785
C184  C     C_R   0.801234 0.750039 0.602420 0.157368
C185  C     C_R   0.301174 0.750001 0.602422 0.156816
C186  C     C_R   0.698810 0.250009 0.397579 0.157149
C187  C     C_R   0.698810 0.749990 0.397579 0.157153
C188  C     C_R   0.301174 0.249999 0.602422 0.156813
C189  C     C_1   0.765152 0.249973 0.530259 -0.059810
C190  C     C_1   0.234840 0.750031 0.469741 -0.059331
C191  C     C_1   0.234840 0.249969 0.469741 -0.059326
C192  C     C_1   0.765152 0.750026 0.530259 -0.059815
C193  C     C_1   0.265091 0.750014 0.530260 -0.059132
C194  C     C_1   0.734897 0.249993 0.469740 -0.059498
C195  C     C_1   0.734897 0.750006 0.469740 -0.059507
C196  C     C_1   0.265090 0.249985 0.530260 -0.059123
C197  C     C_1   0.499967 0.515144 0.000066 -0.065792
C198  C     C_1   0.499967 0.484855 0.000066 -0.065792
C199  C     C_1   0.000030 0.015145 0.999941 -0.065590
C200  C     C_1   0.000030 0.984855 0.999941 -0.065590
C201  C     C_R   0.448592 0.568836 0.949350 -0.183501
C202  C     C_R   0.551354 0.431163 0.050753 -0.183760
C203  C     C_R   0.551354 0.568837 0.050753 -0.183760
C204  C     C_R   0.448593 0.431164 0.949350 -0.183501
C205  C     C_R   0.948720 0.068838 0.949133 -0.183513
C206  C     C_R   0.051329 0.931163 0.050772 -0.183207
C207  C     C_R   0.051328 0.068837 0.050774 -0.183208
C208  C     C_R   0.948720 0.931162 0.949135 -0.183511
N1    N     N_R   0.614649 0.880326 0.059946 0.200005
O53   O     O_R   0.663158 0.894216 0.111324 -0.382561
O54   O     O_R   0.622075 0.854097 0.032223 -0.404512
N2    N     N_R   0.384976 0.122702 0.941653 0.210329
O55   O     O_R   0.338939 0.109670 0.941737 -0.387060
O56   O     O_R   0.375764 0.150096 0.907186 -0.413889
N3    N     N_R   0.385011 0.877292 0.941990 0.210396
O57   O     O_R   0.339069 0.890315 0.942279 -0.387136
O58   O     O_R   0.375700 0.849909 0.907464 -0.413887
N4    N     N_R   0.614681 0.119686 0.060272 0.200071
O59   O     O_R   0.663143 0.105776 0.111674 -0.382489
O60   O     O_R   0.622171 0.145957 0.032697 -0.404699
N5    N     N_R   0.898880 0.380108 0.987225 0.198537
O61   O     O_R   0.843533 0.387441 0.937004 -0.397267
O62   O     O_R   0.905582 0.364177 0.038736 -0.375576
N6    N     N_R   0.104367 0.621936 0.015784 0.218981
O63   O     O_R   0.135003 0.609835 0.991503 -0.396595
O64   O     O_R   0.127335 0.647332 0.057150 -0.410754
N7    N     N_R   0.104367 0.378064 0.015783 0.218981
O65   O     O_R   0.135003 0.390165 0.991501 -0.396595
O66   O     O_R   0.127334 0.352668 0.057149 -0.410755
N8    N     N_R   0.898880 0.619891 0.987224 0.198537
O67   O     O_R   0.843533 0.612558 0.937004 -0.397266
O68   O     O_R   0.905581 0.635823 0.038735 -0.375576

loop_
_geom_bond_atom_site_label_1
_geom_bond_atom_site_label_2
_geom_bond_distance
_ccdc_geom_bond_type
Zn6   O4    1.934878 S    
C36   C54   1.394158 A    
Zn1   O37   1.918546 S    
O37   C17   1.280403 A    
H1    C61   1.083021 S    
C6    C204  1.398218 A    
C67   C207  1.395485 A    
Zn7   O33   1.916582 S    
C8    C206  1.398225 A    
C127  C135  1.412842 A    
C70   H34   1.082427 S    
C75   H39   1.082427 S    
N6    O64   1.301508 A    
C185  C193  1.433555 S    
C24   C157  1.475294 S    
H3    C63   1.083021 S    
C29   C50   1.469080 S    
O31   C29   1.278015 A    
C187  C195  1.433547 S    
C69   H33   1.082425 S    
C119  C140  1.393419 A    
Zn14  O50   1.936032 S    
C98   H54   1.083121 S    
O49   C13   1.269923 A    
C54   C58   1.436578 S    
C82   C90   1.406881 A    
C88   C135  1.485553 S    
C183  C191  1.433557 S    
C37   C55   1.393858 A    
C38   C56   1.394751 A    
C69   C77   1.398291 A    
H25   C109  1.082104 S    
C106  C114  1.397116 A    
Zn12  O2    1.933425 S    
C90   C98   1.405596 A    
C131  C139  1.412635 A    
C33   C41   1.402305 A    
Zn8   O10   1.935148 S    
C171  H95   1.082924 S    
C172  C180  1.396044 A    
C146  C154  1.396187 A    
C16   C129  1.454209 S    
C4    C27   1.472397 S    
C155  C163  1.406508 A    
C168  C176  1.396040 A    
C118  C137  1.393421 A    
C117  H65   1.085001 S    
C11   C126  1.454318 S    
N4    O60   1.300537 A    
C96   H52   1.083126 S    
H9    C201  1.083539 S    
C90   C137  1.485422 S    
C147  C187  1.398401 A    
C7    C205  1.398224 A    
C100  H56   1.083119 S    
Zn2   O38   1.918544 S    
Zn10  O2    1.933424 S    
C86   C133  1.485617 S    
C104  C112  1.397096 A    
C88   C96   1.405676 A    
C4    C66   1.405500 A    
C176  H100  1.083591 S    
C123  H71   1.085065 S    
Zn5   O11   1.935148 S    
N1    O53   1.301547 A    
Zn6   O12   1.935144 S    
C186  C194  1.433549 S    
O35   C31   1.280620 A    
C105  H61   1.082295 S    
N3    O57   1.301604 A    
C119  C127  1.399438 A    
C6    C202  1.398218 A    
C97   C105  1.398383 A    
C74   C114  1.396999 A    
C155  H87   1.082939 S    
C64   C204  1.395481 A    
C81   H45   1.083031 S    
N7    O66   1.301510 A    
C107  C115  1.397117 A    
O6    C10   1.270634 A    
N2    O56   1.301380 A    
O12   C16   1.270547 A    
C95   C103  1.398354 A    
C13   C132  1.454210 S    
C14   C131  1.454170 S    
N5    O61   1.300993 A    
C15   C130  1.454170 S    
C123  C136  1.393558 A    
C93   H49   1.083126 S    
C151  H83   1.082940 S    
C173  C181  1.398285 A    
C152  C160  1.406510 A    
C153  C161  1.406504 A    
C147  H79   1.083585 S    
C84   H48   1.083031 S    
Zn15  O51   1.936034 S    
C143  C151  1.396188 A    
Zn14  O4    1.933424 S    
C144  H76   1.083587 S    
O19   C23   1.280518 A    
C156  H88   1.082939 S    
C121  H69   1.085040 S    
C101  C109  1.397096 A    
C65   C205  1.395488 A    
Zn7   O43   1.918545 S    
C189  C194  1.202257 T    
O32   C30   1.278772 A    
C170  H94   1.082924 S    
C191  C196  1.202263 T    
C43   N3    1.441936 S    
O10   C14   1.270518 A    
C74   H38   1.082425 S    
C165  H89   1.082924 S    
C76   C116  1.396990 A    
C9    C128  1.454339 S    
C141  H73   1.083584 S    
C10   C127  1.454316 S    
C78   C86   1.406926 A    
Zn8   O34   1.916581 S    
C154  C162  1.406508 A    
Zn9   O21   1.916095 S    
C20   C161  1.475277 S    
C120  C139  1.393449 A    
Zn4   O40   1.918546 S    
Zn11  O23   1.916095 S    
C121  C134  1.393472 A    
Zn12  O24   1.916099 S    
C102  C110  1.397091 A    
C3    C67   1.405500 A    
N7    O65   1.301514 A    
C39   C47   1.402553 A    
C4    C68   1.405488 A    
C162  C170  1.406522 A    
C5    C201  1.398217 A    
O28   C28   1.279825 A    
C117  C125  1.399444 A    
Zn3   O1    1.934875 S    
O20   C24   1.280515 A    
C178  H102  1.083593 S    
Zn9   O45   1.936029 S    
O45   C9    1.269908 A    
C158  C166  1.406527 A    
Zn11  O47   1.936034 S    
O47   C11   1.269893 A    
C148  C188  1.398402 A    
H27   C111  1.082105 S    
H2    C62   1.083023 S    
C17   C164  1.475275 S    
C105  C113  1.397117 A    
C144  C184  1.398400 A    
C148  H80   1.083585 S    
C18   C163  1.475287 S    
C132  C140  1.412657 A    
C19   C162  1.475285 S    
C174  C182  1.398287 A    
C71   H35   1.082426 S    
C97   H53   1.083117 S    
C21   C160  1.475292 S    
C85   C93   1.405678 A    
C22   C159  1.475288 S    
O41   C21   1.280417 A    
Zn12  O48   1.936029 S    
H30   C114  1.082092 S    
C30   C49   1.469115 S    
Zn9   O13   1.919139 S    
C7    C199  1.432580 S    
C121  C129  1.399365 A    
Zn1   O7    1.935148 S    
C157  C165  1.406525 A    
C80   C88   1.406908 A    
C145  C153  1.396185 A    
C108  C116  1.397117 A    
Zn15  O19   1.919136 S    
O23   C25   1.279833 A    
C55   C59   1.433703 S    
Zn16  O20   1.919138 S    
C166  C174  1.396044 A    
O11   C15   1.270518 A    
Zn15  O27   1.916095 S    
C146  C186  1.398402 A    
Zn7   O9    1.935146 S    
C129  C137  1.412658 A    
C83   C91   1.406881 A    
C2    C25   1.472421 S    
C160  C168  1.406527 A    
C142  C182  1.398404 A    
C179  C187  1.398284 A    
C125  C133  1.412866 A    
C163  C171  1.406521 A    
C170  C178  1.396038 A    
C177  C185  1.398285 A    
N8    O67   1.300995 A    
C161  C169  1.406522 A    
C142  C150  1.396188 A    
C31   C52   1.473072 S    
Zn10  O46   1.936032 S    
C71   C111  1.396986 A    
C78   H42   1.083022 S    
C56   C60   1.433703 S    
C69   C109  1.396993 A    
N3    O58   1.301378 A    
Zn6   O36   1.916580 S    
C87   C136  1.485617 S    
C3    C65   1.405488 A    
C95   H51   1.083120 S    
C102  H58   1.082293 S    
C192  C195  1.202259 T    
Zn2   O2    1.934878 S    
H28   C112  1.082104 S    
C46   C52   1.420344 A    
C75   C115  1.396997 A    
O42   C22   1.280408 A    
C2    C62   1.405498 A    
C73   H37   1.082424 S    
O17   C21   1.280517 A    
C43   C49   1.420239 A    
C72   C112  1.396992 A    
O51   C15   1.269918 A    
C33   H17   1.084105 S    
C62   C202  1.395480 A    
C91   C140  1.485427 S    
C35   H19   1.083883 S    
C92   C139  1.485471 S    
O48   C12   1.269910 A    
O38   C18   1.280413 A    
C150  C158  1.406508 A    
Zn4   O30   1.916581 S    
C42   N2    1.441951 S    
C40   C56   1.393857 A    
C143  C183  1.398402 A    
C46   N6    1.440251 S    
O40   C20   1.280402 A    
O13   C17   1.280515 A    
Zn3   O5    1.935146 S    
O15   C19   1.280515 A    
C199  C200  1.201720 T    
C166  H90   1.082928 S    
C79   C87   1.406925 A    
C87   C95   1.405703 A    
C33   C53   1.394155 A    
C77   C85   1.406907 A    
C8    C208  1.398226 A    
C80   H44   1.083023 S    
C44   C50   1.420553 A    
C119  H67   1.084984 S    
H15   C207  1.083540 S    
C169  H93   1.082924 S    
C120  C128  1.399444 A    
C120  H68   1.085001 S    
C81   C89   1.406891 A    
C179  H103  1.083590 S    
H16   C208  1.083541 S    
C59   C60   1.202104 T    
H26   C110  1.082106 S    
C79   H43   1.083022 S    
C72   H36   1.082427 S    
C89   C97   1.405603 A    
Zn14  O18   1.919137 S    
Zn10  O22   1.916099 S    
C93   C101  1.398351 A    
Zn2   O32   1.916580 S    
C180  C188  1.398289 A    
C122  C133  1.393560 A    
Zn13  O17   1.919139 S    
O18   C22   1.280517 A    
C1    C61   1.405509 A    
C176  C184  1.398283 A    
N6    O63   1.301517 A    
C118  C126  1.399435 A    
C141  C149  1.396190 A    
C188  C196  1.433555 S    
C76   H40   1.082424 S    
C123  C131  1.399371 A    
H6    C66   1.083024 S    
C143  H75   1.083586 S    
C144  C152  1.396190 A    
C35   C43   1.403468 A    
C99   H55   1.083122 S    
C36   C44   1.402329 A    
Zn5   O35   1.916579 S    
C42   C50   1.420235 A    
N5    O62   1.300670 A    
O29   C29   1.278744 A    
C70   C78   1.398288 A    
C91   C99   1.405592 A    
Zn15  O3    1.933426 S    
C38   C46   1.402553 A    
Zn3   O39   1.918545 S    
C74   C82   1.398281 A    
O27   C27   1.279807 A    
O14   C18   1.280510 A    
Zn16  O4    1.933425 S    
C98   C106  1.398375 A    
C175  H99   1.083593 S    
C82   H46   1.083035 S    
C73   C113  1.396990 A    
C12   C125  1.454339 S    
O16   C20   1.280510 A    
C39   H23   1.083970 S    
Zn8   O44   1.918546 S    
C47   N7    1.440251 S    
C40   C48   1.398651 A    
C48   C52   1.417622 A    
C37   H21   1.084304 S    
O5    C9    1.270627 A    
C36   H20   1.084101 S    
N4    O59   1.301555 A    
O7    C11   1.270632 A    
C35   C53   1.394466 A    
C41   C49   1.420550 A    
O33   C31   1.278436 A    
C5    C203  1.398219 A    
C101  H57   1.082293 S    
C130  C138  1.412638 A    
C94   C102  1.398352 A    
C172  H96   1.082925 S    
C57   C58   1.203751 T    
C103  C111  1.397092 A    
C126  C134  1.412842 A    
H31   C115  1.082093 S    
O44   C24   1.280414 A    
Zn13  O3    1.933428 S    
C76   C84   1.398283 A    
C149  C157  1.406510 A    
C96   C104  1.398350 A    
N1    O54   1.300533 A    
C44   N4    1.441560 S    
C53   C57   1.436571 S    
H7    C67   1.083025 S    
C190  C193  1.202263 T    
C128  C136  1.412867 A    
C180  H104  1.083588 S    
C167  C175  1.396044 A    
Zn6   O42   1.918544 S    
C63   C203  1.395480 A    
C1    C63   1.405499 A    
C2    C64   1.405509 A    
O21   C25   1.279808 A    
N2    O55   1.301595 A    
O9    C13   1.270544 A    
Zn13  O25   1.916095 S    
O30   C30   1.278023 A    
C124  C132  1.399361 A    
C146  H78   1.083585 S    
Zn1   O31   1.916579 S    
C99   C107  1.398377 A    
Zn3   O29   1.916582 S    
C156  C164  1.406505 A    
C83   H47   1.083031 S    
C149  H81   1.082936 S    
C75   C83   1.398287 A    
C8    C200  1.432580 S    
C37   C45   1.398651 A    
C182  C190  1.433557 S    
Zn5   O41   1.918546 S    
C117  C138  1.393449 A    
C107  H63   1.082293 S    
O25   C27   1.279826 A    
O46   C10   1.269893 A    
C159  C167  1.406529 A    
C177  H101  1.083590 S    
O43   C23   1.280408 A    
C89   C138  1.485472 S    
C124  C135  1.393473 A    
Zn16  O28   1.916099 S    
C68   C208  1.395488 A    
Zn9   O1    1.933428 S    
C85   C134  1.485549 S    
C173  H97   1.083591 S    
O39   C19   1.280410 A    
C45   C51   1.417623 A    
C153  H85   1.082938 S    
C92   C100  1.405602 A    
C175  C183  1.398286 A    
C148  C156  1.396185 A    
C47   C51   1.420344 A    
C86   C94   1.405704 A    
Zn1   O1    1.934876 S    
C40   H24   1.084303 S    
C142  H74   1.083583 S    
N8    O68   1.300671 A    
C118  H66   1.084987 S    
Zn4   O6    1.935148 S    
C184  C192  1.433549 S    
Zn7   O3    1.934875 S    
Zn8   O4    1.934873 S    
C34   C54   1.394459 A    
H29   C113  1.082099 S    
C6    C198  1.432560 S    
H14   C206  1.083538 S    
C122  C130  1.399372 A    
C174  H98   1.083591 S    
C66   C206  1.395489 A    
H11   C203  1.083541 S    
C32   C51   1.473072 S    
O8    C12   1.270629 A    
O24   C26   1.279809 A    
O22   C26   1.279832 A    
O34   C32   1.280620 A    
C154  H86   1.082940 S    
Zn14  O26   1.916099 S    
C145  C185  1.398404 A    
C122  H70   1.085062 S    
C1    C26   1.472421 S    
C150  H82   1.082938 S    
C171  C179  1.396040 A    
C141  C181  1.398403 A    
H32   C116  1.082101 S    
C39   C55   1.394748 A    
C3    C28   1.472401 S    
C84   C92   1.406894 A    
C106  H62   1.082294 S    
C167  H91   1.082925 S    
H12   C204  1.083541 S    
C48   N8    1.434249 S    
C178  C186  1.398282 A    
C169  C177  1.396044 A    
O52   C16   1.269923 A    
C197  C198  1.201708 T    
Zn2   O8    1.935144 S    
H4    C64   1.083021 S    
Zn13  O49   1.936029 S    
H5    C65   1.083024 S    
C70   C110  1.396986 A    
H10   C202  1.083541 S    
C77   H41   1.083024 S    
C34   C42   1.403471 A    
C5    C197  1.432560 S    
H8    C68   1.083025 S    
Zn16  O52   1.936029 S    
C151  C159  1.406507 A    
C168  H92   1.082926 S    
C103  H59   1.082294 S    
Zn12  O16   1.919138 S    
C94   H50   1.083122 S    
C71   C79   1.398289 A    
H13   C205  1.083539 S    
C124  H72   1.085035 S    
C181  C189  1.433549 S    
C23   C158  1.475288 S    
C152  H84   1.082938 S    
C41   N1    1.441524 S    
C72   C80   1.398289 A    
C165  C173  1.396040 A    
C73   C81   1.398286 A    
O36   C32   1.278435 A    
O50   C14   1.269918 A    
C7    C207  1.398224 A    
C104  H60   1.082293 S    
Zn11  O15   1.919136 S    
Zn11  O1    1.933426 S    
C145  H77   1.083587 S    
C108  H64   1.082291 S    
C100  C108  1.398386 A    
C164  C172  1.406522 A    
C147  C155  1.396187 A    
C34   H18   1.083886 S    
O26   C28   1.279804 A    
C45   N5    1.434247 S    
C38   H22   1.083968 S    
Zn4   O2    1.934873 S    
C61   C201  1.395481 A    
Zn5   O3    1.934876 S    
Zn10  O14   1.919137 S    
