data_mof_unit_59256.cif
_audit_creation_date              2013-03-05T16:47:42-0500
_audit_creation_method            fapswitch 2.2
_symmetry_space_group_name_H-M    P1
_symmetry_Int_Tables_number       1
_space_group_crystal_system       triclinic
_cell_length_a                    11.124578
_cell_length_b                    12.931152
_cell_length_c                    11.902526
_cell_angle_alpha                 98.912622
_cell_angle_beta                  94.820121
_cell_angle_gamma                 94.822876
_cell_volume                      1677.34681693

loop_
_atom_site_label
_atom_site_type_symbol
_atom_site_description
_atom_site_fract_x
_atom_site_fract_y
_atom_site_fract_z
_atom_type_partial_charge
O1    O     O_R   0.506570 0.354460 0.582000 -0.529497
O2    O     O_R   0.493430 0.645540 0.418000 -0.535210
O3    O     O_R   0.490940 0.341410 0.386200 -0.582721
O4    O     O_R   0.509060 0.658590 0.613800 -0.583799
C1    C     C_R   0.512578 0.300741 0.479210 0.855949
C2    C     C_R   0.487708 0.699313 0.520655 0.855401
O5    O     O_R   0.327460 0.506540 0.597900 -0.492907
O6    O     O_R   0.672540 0.493460 0.402100 -0.497538
O7    O     O_R   0.311830 0.493480 0.402100 -0.635126
O8    O     O_R   0.688170 0.506520 0.597900 -0.632632
C3    C     C_R   0.262666 0.502901 0.499519 0.849773
C4    C     C_R   0.737416 0.497263 0.500633 0.845858
Cu1   Cu    Cu3+1 0.509250 0.507730 0.615930 1.038995
Cu2   Cu    Cu3+1 0.490750 0.492270 0.384070 1.038211
C5    C     C_R   0.167333 0.628012 0.168480 -0.201922
C6    C     C_R   0.830024 0.374215 0.833242 -0.206794
H1    H     H_    0.195000 0.708669 0.160790 0.167272
H2    H     H_    0.802992 0.293975 0.843065 0.181954
C7    C     C_R   0.134973 0.605719 0.272520 -0.200049
C8    C     C_R   0.867225 0.395109 0.730109 -0.223741
H3    H     H_    0.135266 0.669756 0.343068 0.160416
H4    H     H_    0.870994 0.330237 0.661352 0.166001
C9    C     C_R   0.099388 0.502615 0.286153 -0.003744
C10   C     C_R   0.901111 0.498301 0.714981 0.004378
C11   C     C_R   0.092297 0.419704 0.192310 0.265428
C12   C     C_R   0.904302 0.582272 0.807458 0.239614
C13   C     C_R   0.117657 0.443788 0.083910 0.120037
C14   C     C_R   0.870311 0.559441 0.914079 0.134466
C15   C     C_R   0.158734 0.548465 0.073447 0.135073
C16   C     C_R   0.829916 0.455752 0.924778 0.199445
C17   C     C_R   0.924648 0.478846 0.397485 0.135447
C18   C     C_R   0.075648 0.521569 0.603247 0.139354
C19   C     C_R   0.871782 0.494704 0.501649 -0.096598
C20   C     C_R   0.128456 0.505808 0.499015 -0.095266
C21   C     C_R   0.948807 0.511568 0.605092 0.003251
C22   C     C_R   0.051528 0.488965 0.395750 -0.001758
C23   C     C_R   0.466513 0.812547 0.532540 -0.246214
C24   C     C_R   0.534713 0.187636 0.466590 -0.249147
C25   C     C_R   0.512335 0.015357 0.346758 0.092369
C26   C     C_R   0.491036 0.984874 0.652258 0.093565
C27   C     C_R   0.536476 0.125757 0.357779 0.231640
C28   C     C_R   0.464324 0.874670 0.641073 0.228447
C29   C     C_R   0.551319 0.138580 0.563666 0.213281
C30   C     C_R   0.452167 0.861475 0.435051 0.212047
C31   C     C_R   0.513346 0.030812 0.554478 -0.014987
C32   C     C_R   0.490310 0.969223 0.444468 -0.015089
N1    N     N_R   0.523180 0.519350 0.790130 -0.270982
N2    N     N_R   0.476820 0.480650 0.209870 -0.274254
C33   C     C_R   0.424854 0.372146 0.023902 0.087230
C34   C     C_R   0.571088 0.628275 0.976040 0.128091
C35   C     C_R   0.415928 0.392937 0.142194 0.313999
C36   C     C_R   0.580878 0.608227 0.857939 0.311410
C37   C     C_R   0.535420 0.555883 0.157236 0.487212
C38   C     C_R   0.465767 0.443003 0.842069 0.467752
C39   C     C_R   0.526115 0.546997 0.033984 -0.186596
C40   C     C_R   0.472819 0.452116 0.965452 -0.241095
N3    N     N_3   0.187973 0.574758 0.965748 -0.608221
H5    H     H_    0.207416 0.656004 0.971051 0.264213
H6    H     H_    0.267331 0.541481 0.946512 0.238355
N4    N     N_3   0.790891 0.432502 0.030067 -0.536775
H7    H     H_    0.844872 0.376815 0.056484 0.256375
H8    H     H_    0.702486 0.395954 0.013648 0.233704
N5    N     N_R   0.386719 0.360871 0.771790 0.135229
O9    O     O_R   0.271843 0.370941 0.756213 -0.404270
O10   O     O_R   0.423224 0.268900 0.741917 -0.354468
N6    N     N_R   0.620164 0.634996 0.225652 0.137450
O11   O     O_R   0.586984 0.726835 0.262977 -0.357150
O12   O     O_R   0.735215 0.625818 0.224061 -0.359186
N7    N     N_3   0.656290 0.683607 0.812408 -0.546006
H9    H     H_    0.609490 0.748110 0.801620 0.291622
H10   H     H_    0.684940 0.651434 0.735372 0.279200
N8    N     N_3   0.339811 0.318338 0.188215 -0.534842
H11   H     H_    0.385482 0.252861 0.197524 0.291823
H12   H     H_    0.313538 0.350057 0.266300 0.279293
N9    N     N_3   0.394879 0.264834 0.970398 -0.522033
H13   H     H_    0.470271 0.236511 0.933800 0.285318
H14   H     H_    0.318235 0.256400 0.912057 0.279365
N10   N     N_3   0.594940 0.736078 0.029936 -0.525223
H15   H     H_    0.674118 0.748088 0.085351 0.291519
H16   H     H_    0.519778 0.759178 0.070920 0.275667
N11   N     N_R   0.059516 0.312421 0.207213 0.110929
O13   O     O_R   0.090136 0.281205 0.303526 -0.355238
O14   O     O_R   0.996009 0.245843 0.126357 -0.322372
N12   N     N_R   0.938412 0.689043 0.792208 0.107489
O15   O     O_R   0.907910 0.720333 0.695920 -0.349451
O16   O     O_R   0.006063 0.753969 0.871587 -0.353386
N13   N     N_3   0.097777 0.361952 0.985835 -0.527375
H17   H     H_    0.115065 0.389733 0.910618 0.260766
H18   H     H_    0.157870 0.306135 0.997719 0.267312
N14   N     N_3   0.873800 0.640290 0.011594 -0.501091
H19   H     H_    0.831422 0.703203 0.986810 0.267605
H20   H     H_    0.964107 0.667271 0.038537 0.264496
N15   N     N_3   0.848440 0.450250 0.292195 -0.481897
H21   H     H_    0.874861 0.499204 0.235189 0.275600
H22   H     H_    0.858443 0.372526 0.258473 0.282365
N16   N     N_3   0.151810 0.548675 0.708639 -0.483695
H23   H     H_    0.126541 0.496850 0.763092 0.260819
H24   H     H_    0.140083 0.625199 0.745452 0.294331
N17   N     N_3   0.385157 0.806558 0.331106 -0.485286
H25   H     H_    0.338310 0.737919 0.346745 0.215894
H26   H     H_    0.316125 0.852232 0.309406 0.206853
N18   N     N_3   0.620863 0.193285 0.666305 -0.481808
H27   H     H_    0.690296 0.147504 0.686432 0.209243
H28   H     H_    0.666667 0.261974 0.649631 0.215080
N19   N     N_R   0.416341 0.827977 0.732710 0.127698
O17   O     O_R   0.451888 0.864910 0.839399 -0.382018
O18   O     O_R   0.325336 0.755514 0.709530 -0.343102
N20   N     N_R   0.581410 0.173063 0.265318 0.128276
O19   O     O_R   0.543356 0.136351 0.159113 -0.383159
O20   O     O_R   0.672416 0.245555 0.286897 -0.343852
N21   N     N_3   0.519093 0.948738 0.239578 -0.492646
H29   H     H_    0.451119 0.963762 0.179868 0.267603
H30   H     H_    0.604391 0.963568 0.211361 0.283767
N22   N     N_3   0.486696 0.051672 0.759760 -0.488588
H31   H     H_    0.401085 0.039213 0.788194 0.285096
H32   H     H_    0.553788 0.034568 0.819067 0.267082

loop_
_geom_bond_atom_site_label_1
_geom_bond_atom_site_label_2
_geom_bond_distance
_ccdc_geom_bond_type
N6    O12   1.296718 A    
N13   H17   1.041402 S    
N5    O10   1.296223 A    
N9    H13   1.044479 S    
N15   H21   1.040591 S    
C27   N20   1.443903 S    
C13   C15   1.419268 A    
C7    C9    1.396307 A    
N21   H29   1.044910 S    
C39   C40   1.417228 A    
N11   O13   1.301537 A    
N3    H5    1.045698 S    
C25   C27   1.413842 A    
C31   C32   1.414442 A    
C5    C7    1.383572 A    
N19   O18   1.300962 A    
O1    C1    1.319866 A    
C7    H3    1.083715 S    
N12   O16   1.300920 A    
C30   N17   1.440288 S    
N10   H16   1.044851 S    
N3    H6    1.041287 S    
C38   N5    1.430054 S    
C6    C16   1.393984 A    
C23   C28   1.414828 A    
N20   O19   1.301109 A    
N4    H8    1.043877 S    
O4    Cu1   1.955059 S    
N7    H10   1.033745 S    
C36   N7    1.431849 S    
N2    C35   1.374852 A    
C26   N22   1.435479 S    
C8    C10   1.398716 A    
C33   C35   1.405418 A    
N16   H24   1.041720 S    
C34   C36   1.404502 A    
C17   C19   1.410350 A    
C26   C28   1.414280 A    
C6    C8    1.385818 A    
C25   N21   1.435864 S    
N6    O11   1.296829 A    
N15   H22   1.041612 S    
Cu1   Cu2   2.724894 S    
C11   N11   1.446068 S    
O2    C2    1.318238 A    
C34   N10   1.434334 S    
N11   O14   1.301253 A    
C30   C32   1.406460 A    
C5    C15   1.396935 A    
C37   C39   1.447848 A    
C26   C31   1.416661 A    
C38   C40   1.449894 A    
C10   C21   1.480732 S    
C15   N3    1.432195 S    
N18   H27   1.046057 S    
C18   C21   1.408432 A    
N12   O15   1.301442 A    
C24   C27   1.415554 A    
N8    H12   1.032055 S    
Cu1   N1    2.047247 S    
N10   H15   1.040487 S    
Cu2   N2    2.047245 S    
C17   N15   1.432193 S    
C16   N4    1.426763 S    
N4    H7    1.043621 S    
C18   C20   1.410705 A    
O5    C3    1.314665 A    
O7    Cu2   2.020892 S    
O7    C3    1.316250 A    
N14   H20   1.042160 S    
N17   H25   1.041038 S    
O6    C4    1.316304 A    
N16   H23   1.040053 S    
C33   N9    1.433546 S    
C2    C23   1.489665 S    
N21   H30   1.045419 S    
N18   H28   1.040903 S    
C37   N6    1.431486 S    
N9    H14   1.040420 S    
O3    Cu2   1.955058 S    
O8    C4    1.315081 A    
C25   C32   1.416598 A    
O4    C2    1.311690 A    
C18   N16   1.431618 S    
C8    H4    1.083578 S    
N1    C38   1.383553 A    
O1    Cu1   1.957591 S    
C35   N8    1.432465 S    
C5    H1    1.082264 S    
O6    Cu2   2.014186 S    
N17   H26   1.046659 S    
C3    C20   1.496183 S    
C10   C12   1.417219 A    
N8    H11   1.038861 S    
O3    C1    1.310336 A    
O8    Cu1   2.020892 S    
N22   H32   1.044943 S    
N22   H31   1.045369 S    
N1    C36   1.373219 A    
N2    C37   1.383736 A    
C11   C13   1.418518 A    
C33   C40   1.424997 A    
N19   O17   1.301143 A    
C12   C14   1.420778 A    
C34   C39   1.422950 A    
C23   C30   1.409095 A    
N13   H18   1.041523 S    
C29   N18   1.439703 S    
C24   C29   1.408037 A    
C29   C31   1.406580 A    
C13   N13   1.437338 S    
C12   N12   1.443716 S    
N14   H19   1.042403 S    
C14   C16   1.406112 A    
C19   C21   1.416264 A    
N20   O20   1.300677 A    
C20   C22   1.414028 A    
C9    C11   1.415345 A    
N7    H9    1.038380 S    
O2    Cu2   1.957592 S    
C28   N19   1.444601 S    
N5    O9    1.296199 A    
O5    Cu1   2.014186 S    
C6    H2    1.082470 S    
C9    C22   1.479386 S    
C17   C22   1.408727 A    
C14   N14   1.432232 S    
C4    C19   1.496994 S    
C1    C24   1.490318 S    
