data_mof_unit_12301.cif
_audit_creation_date              2012-12-11T15:36:59-0500
_audit_creation_method            fapswitch 2.2
_symmetry_space_group_name_H-M    P1
_symmetry_Int_Tables_number       1
_space_group_crystal_system       triclinic
_cell_length_a                    15.048734
_cell_length_b                    15.066492
_cell_length_c                    34.822312
_cell_angle_alpha                 91.154702
_cell_angle_beta                  91.704803
_cell_angle_gamma                 60.188135
_cell_volume                      6847.30979738

loop_
_atom_site_label
_atom_site_type_symbol
_atom_type_description
_atom_site_fract_x
_atom_site_fract_y
_atom_site_fract_z
_atom_type_partial_charge
C1    C     C_R   0.610692 0.302685 0.444045 0.541946
C2    C     C_R   0.599702 0.098303 0.763607 -0.136953
C3    C     C_R   0.099525 0.764760 0.887844 -0.090430
C4    C     C_R   0.132833 0.754050 0.849906 0.153652
C5    C     C_R   0.129033 0.678190 0.826294 0.019573
C6    C     C_R   0.104204 0.608517 0.842035 -0.148667
C7    C     C_R   0.074567 0.618375 0.879977 -0.135028
C8    C     C_R   0.215779 0.584299 0.767078 -0.128020
C9    C     C_R   0.224741 0.579504 0.727361 -0.114889
C10   C     C_R   0.160270 0.665015 0.704809 0.025545
C11   C     C_R   0.086562 0.755386 0.722287 -0.128700
C12   C     C_R   0.076603 0.759678 0.762025 -0.131051
C13   C     C_R   0.601326 0.171330 0.788908 -0.014076
C14   C     C_R   0.642624 0.732297 0.160053 0.284404
C15   C     C_R   0.142147 0.674577 0.784600 0.012867
C16   C     C_R   0.195594 0.728123 0.645042 -0.121187
C17   C     C_R   0.228931 0.709956 0.607267 -0.129191
C18   C     C_R   0.207851 0.560374 0.604564 -0.124714
C19   C     C_R   0.175681 0.577996 0.642332 -0.122849
C20   C     C_R   0.173369 0.659460 0.663182 0.030874
C21   C     C_R   0.239652 0.623224 0.587345 0.023111
C22   C     C_R   0.673075 0.081226 0.906452 0.021283
C23   C     C_R   0.595343 0.071093 0.887074 -0.133967
C24   C     C_R   0.544190 0.204210 0.642272 -0.122690
C25   C     C_R   0.566322 0.106664 0.849425 -0.122981
C26   C     C_3   0.525399 0.745898 0.072526 -0.296442
C27   C     C_3   0.846150 0.541025 0.461353 -0.294028
C28   C     C_3   0.301736 0.844688 0.278239 -0.141231
C29   C     C_3   0.415594 0.656744 0.792249 -0.294828
C30   C     C_3   0.841100 0.714697 0.784519 -0.121217
C31   C     C_3   0.523914 0.874717 0.816026 -0.310542
C32   C     C_3   0.227728 0.847230 0.860130 -0.328491
C33   C     C_3   0.525792 0.694919 0.183403 -0.121952
C34   C     C_3   0.698706 0.353438 0.734458 -0.133335
C35   C     C_R   0.828927 0.636295 0.162504 -0.189365
C36   C     C_R   0.543590 0.229503 0.603920 -0.126785
C37   C     C_R   0.703941 0.228452 0.614988 -0.125117
C38   C     C_R   0.704401 0.203125 0.653316 -0.080823
C39   C     C_R   0.622077 0.195730 0.667545 0.060800
C40   C     C_R   0.621001 0.246641 0.590387 0.020069
C41   C     C_R   0.045580 0.739038 0.048581 0.538701
C42   C     C_R   0.735741 0.680427 0.181327 0.005490
C43   C     C_R   0.746882 0.745752 0.063787 0.554636
C44   C     C_R   0.751259 0.040346 0.050668 0.540489
C45   C     C_R   0.017009 0.722644 0.939742 0.545110
C46   C     C_R   0.717221 0.730176 0.954860 0.539149
C47   C     C_R   0.830829 0.651493 0.123421 -0.181578
C48   C     C_R   0.721312 0.024891 0.942146 0.542331
C49   C     C_R   0.783581 0.581776 0.242232 -0.135297
C50   C     C_R   0.774613 0.578020 0.281820 -0.114127
C51   C     C_R   0.718968 0.668799 0.303075 0.032942
C52   C     C_R   0.677449 0.763408 0.284403 -0.118749
C53   C     C_R   0.614878 0.152328 0.830758 0.036183
C54   C     C_R   0.685675 0.767012 0.244830 -0.071817
C55   C     C_R   0.736153 0.676186 0.223442 0.044050
C56   C     C_R   0.593241 0.727546 0.355493 -0.122888
C57   C     C_R   0.593534 0.610632 0.449557 0.553331
C58   C     C_R   0.563678 0.713514 0.391205 -0.152819
C59   C     C_R   0.737318 0.576245 0.404907 0.136315
C60   C     C_R   0.766002 0.590584 0.368575 -0.110692
C61   C     C_R   0.693696 0.664192 0.343344 0.008649
C62   C     C_R   0.633622 0.635388 0.415654 0.044258
C63   C     C_R   0.103153 0.728152 0.084879 0.018785
C64   C     C_R   0.686585 0.169426 0.851397 -0.119086
C65   C     C_R   0.146455 0.635098 0.104809 -0.131926
C66   C     C_R   0.171007 0.631632 0.143789 -0.124029
C67   C     C_R   0.154399 0.720573 0.163316 0.031247
C68   C     C_R   0.121982 0.811007 0.142757 -0.122250
C69   C     C_R   0.304041 0.591468 0.442334 0.543159
C70   C     C_R   0.096223 0.814921 0.103661 -0.130024
C71   C     C_R   0.226474 0.745033 0.225541 -0.104861
C72   C     C_R   0.235854 0.737730 0.265953 0.290644
C73   C     C_R   0.177119 0.704503 0.285885 0.038311
C74   C     C_R   0.106890 0.684745 0.265550 -0.176040
C75   C     C_R   0.715021 0.134642 0.888844 -0.122515
C76   C     C_R   0.098220 0.692605 0.225763 -0.136939
C77   C     C_R   0.159238 0.720843 0.205521 -0.016769
C78   C     C_R   0.211239 0.588154 0.341086 -0.127198
C79   C     C_R   0.239601 0.561311 0.379415 -0.129595
C80   C     C_R   0.227046 0.726002 0.391767 -0.130539
C81   C     C_R   0.605623 0.300149 0.553679 0.543737
C82   C     C_R   0.197944 0.753059 0.353457 -0.078929
C83   C     C_R   0.193718 0.682782 0.327500 0.060911
C84   C     C_R   0.251539 0.628485 0.404781 0.019932
C85   C     C_R   0.724624 0.097971 0.087074 0.022082
C86   C     C_R   0.603080 0.256122 0.773841 -0.105194
C87   C     C_R   0.800051 0.107221 0.108612 -0.127852
C88   C     C_R   0.784681 0.135758 0.147220 -0.125135
C89   C     C_R   0.693385 0.156439 0.164652 0.029647
C90   C     C_R   0.614358 0.156590 0.142210 -0.118347
C91   C     C_R   0.629934 0.127360 0.103698 -0.123723
C92   C     C_R   0.593820 0.242386 0.223263 -0.117489
C93   C     C_R   0.587508 0.606453 0.559093 0.536385
C94   C     C_R   0.584391 0.248595 0.263051 -0.111790
C95   C     C_R   0.665335 0.179104 0.286895 0.029421
C96   C     C_R   0.755755 0.103176 0.270252 -0.119562
C97   C     C_R   0.612123 0.263957 0.734203 0.291814
C98   C     C_R   0.765305 0.097243 0.230486 -0.115042
C99   C     C_R   0.684550 0.167013 0.206701 0.029194
C100  C     C_R   0.739730 0.185203 0.351124 -0.119453
C101  C     C_R   0.727003 0.213716 0.389728 -0.123383
C102  C     C_R   0.552349 0.245977 0.385563 -0.128404
C103  C     C_R   0.565151 0.217424 0.346914 -0.122695
C104  C     C_R   0.657572 0.190872 0.329019 0.032799
C105  C     C_R   0.298169 0.588881 0.551803 0.544540
C106  C     C_R   0.631783 0.248675 0.406834 0.021691
C107  C     C_R   0.692241 0.690492 0.919479 -0.007777
C108  C     C_R   0.612542 0.188985 0.709207 0.036293
C109  C     C_R   0.765640 0.596872 0.903519 -0.140731
C110  C     C_R   0.755156 0.572300 0.865455 -0.117544
C111  C     C_R   0.671687 0.641083 0.842596 0.079229
C112  C     C_R   0.593382 0.731552 0.859275 0.143083
C113  C     C_R   0.603484 0.754470 0.897810 -0.125739
C114  C     C_R   0.593588 0.614080 0.781489 0.129457
C115  C     C_R   0.588847 0.615051 0.741184 -0.103840
C116  C     C_R   0.662169 0.622777 0.719939 -0.065291
C117  C     C_R   0.739487 0.711734 0.102399 0.000811
C118  C     C_R   0.743505 0.626265 0.738781 -0.131890
C119  C     C_R   0.603974 0.107840 0.724038 -0.176445
C120  C     C_R   0.748073 0.630104 0.779165 0.251565
C121  C     C_R   0.672800 0.623969 0.800563 0.054649
C122  C     C_R   0.728052 0.551187 0.654956 -0.116233
C123  C     C_R   0.710663 0.548197 0.615393 -0.125736
C124  C     C_R   0.546004 0.702946 0.620973 -0.124386
C125  C     C_R   0.562726 0.704803 0.660449 -0.119038
C126  C     C_R   0.652345 0.627404 0.677795 0.035047
C127  C     C_R   0.617865 0.622286 0.598236 0.022002
C128  C     C_R   0.067964 0.699088 0.902624 -0.013883
C129  C     C_R   0.644137 0.748895 0.120409 0.155024
Cr1   Cr    Cr6+3 0.426010 0.422500 0.497000 1.006391
Cr2   Cr    Cr6+3 0.651300 0.426310 0.501970 1.027322
Cr3   Cr    Cr6+3 0.422670 0.651170 0.501050 1.005841
Cr4   Cr    Cr6+3 0.905130 0.911420 0.992650 1.006258
Cr5   Cr    Cr6+3 0.911860 0.682710 0.002320 1.007281
Cr6   Cr    Cr6+3 0.682710 0.906840 0.004710 1.019854
H1    H     H_    0.483924 0.760245 0.398607 0.137073
H2    H     H_    0.044981 0.674849 0.210596 0.122092
H3    H     H_    0.208259 0.532720 0.321583 0.101404
H4    H     H_    0.258236 0.485546 0.388512 0.123927
H5    H     H_    0.109175 0.880231 0.157517 0.101098
H6    H     H_    0.234838 0.779701 0.410739 0.117255
H7    H     H_    0.873803 0.085029 0.096550 0.122556
H8    H     H_    0.570341 0.121336 0.087662 0.124371
H9    H     H_    0.501375 0.220312 0.330592 0.099874
H10   H     H_    0.514672 0.309284 0.275203 0.110203
H11   H     H_    0.530748 0.297078 0.205434 0.102266
H12   H     H_    0.900673 0.594906 0.178521 0.118966
H13   H     H_    0.844548 0.543156 0.359803 0.094251
H14   H     H_    0.845967 0.136891 0.163946 0.101142
H15   H     H_    0.818849 0.048193 0.287991 0.102149
H16   H     H_    0.835148 0.036885 0.218261 0.108083
H17   H     H_    0.811721 0.165292 0.338018 0.100548
H18   H     H_    0.789813 0.214456 0.405461 0.129267
H19   H     H_    0.543310 0.172207 0.155069 0.106450
H20   H     H_    0.478240 0.271988 0.398026 0.123504
H21   H     H_    0.834584 0.545591 0.919603 0.128464
H22   H     H_    0.545786 0.826885 0.909600 0.122690
H23   H     H_    0.153697 0.566713 0.091091 0.124838
H24   H     H_    0.503993 0.764647 0.677742 0.103620
H25   H     H_    0.806326 0.504045 0.295399 0.104966
H26   H     H_    0.529757 0.606677 0.725907 0.148761
H27   H     H_    0.815379 0.502313 0.853077 0.128161
H28   H     H_    0.801686 0.628405 0.721931 0.114567
H29   H     H_    0.797765 0.490936 0.668033 0.098511
H30   H     H_    0.767307 0.485025 0.598653 0.117747
H31   H     H_    0.473642 0.761106 0.608772 0.125757
H32   H     H_    0.094194 0.826796 0.905615 0.126336
H33   H     H_    0.823129 0.511074 0.226010 0.102455
H34   H     H_    0.062974 0.887747 0.089097 0.122512
H35   H     H_    0.050399 0.566935 0.890734 0.142993
H36   H     H_    0.157500 0.525109 0.655942 0.104553
H37   H     H_    0.282940 0.509549 0.714215 0.125469
H38   H     H_    0.266294 0.517923 0.784178 0.114617
H39   H     H_    0.036235 0.821749 0.705157 0.105030
H40   H     H_    0.017844 0.829135 0.775247 0.121865
H41   H     H_    0.194123 0.791405 0.660917 0.102365
H42   H     H_    0.252589 0.759829 0.594651 0.121532
H43   H     H_    0.102132 0.549730 0.824217 0.130996
H44   H     H_    0.214212 0.493552 0.589810 0.126404
H45   H     H_    0.182049 0.827530 0.343812 0.121480
H46   H     H_    0.561504 0.030469 0.900062 0.121058
H47   H     H_    0.774420 0.144468 0.903222 0.126924
H48   H     H_    0.766477 0.194271 0.672339 0.108363
H49   H     H_    0.599614 0.315150 0.793026 0.112638
H50   H     H_    0.508991 0.094985 0.834347 0.096286
H51   H     H_    0.604411 0.049838 0.705017 0.110137
H52   H     H_    0.599605 0.031470 0.774439 0.107362
H53   H     H_    0.480547 0.197834 0.652761 0.102981
H54   H     H_    0.635793 0.834474 0.300238 0.100297
H55   H     H_    0.478967 0.242219 0.585582 0.123577
H56   H     H_    0.274925 0.764308 0.209498 0.095249
H57   H     H_    0.726067 0.203613 0.837820 0.097979
H58   H     H_    0.764967 0.240422 0.605395 0.122452
H59   H     H_    0.650568 0.840582 0.230709 0.136203
H60   H     H_    0.535492 0.784067 0.336448 0.116366
H61   H     H_    0.488467 0.855921 0.115249 0.281229
H62   H     H_    0.454866 0.797586 0.055775 0.140039
H63   H     H_    0.511652 0.690722 0.088316 0.125856
H64   H     H_    0.588173 0.703440 0.052013 0.152530
H65   H     H_    0.872944 0.441455 0.415688 0.236319
H66   H     H_    0.900229 0.477474 0.480292 0.132355
H67   H     H_    0.197431 0.560851 0.159254 0.106240
H68   H     H_    0.780240 0.595676 0.478779 0.153275
H69   H     H_    0.885945 0.580399 0.450278 0.131245
H70   H     H_    0.220582 0.907885 0.278706 0.094525
H71   H     H_    0.336980 0.843196 0.250505 0.126717
H72   H     H_    0.344343 0.861432 0.301096 0.135447
H73   H     H_    0.537713 0.584905 0.831646 0.252388
H74   H     H_    0.370043 0.641216 0.812823 0.147166
H75   H     H_    0.399765 0.635418 0.763241 0.157383
H76   H     H_    0.390377 0.739643 0.793278 0.164405
H77   H     H_    0.881765 0.735275 0.806945 0.155670
H78   H     H_    0.060316 0.660741 0.280488 0.114194
H79   H     H_    0.767094 0.785309 0.777909 0.098694
H80   H     H_    0.890289 0.688219 0.758917 0.122370
H81   H     H_    0.440793 0.839120 0.852508 0.233147
H82   H     H_    0.453055 0.927332 0.799635 0.128411
H83   H     H_    0.586348 0.834357 0.795286 0.160596
H84   H     H_    0.543934 0.920321 0.836243 0.134573
H85   H     H_    0.190222 0.807884 0.807406 0.252071
H86   H     H_    0.254763 0.891536 0.843796 0.130705
H87   H     H_    0.295624 0.776428 0.871023 0.143895
H88   H     H_    0.183021 0.896270 0.884424 0.147305
H89   H     H_    0.904707 0.621771 0.110251 0.148731
H90   H     H_    0.579993 0.636536 0.204091 0.137483
H91   H     H_    0.524157 0.657748 0.155676 0.108150
H92   H     H_    0.448288 0.729320 0.195537 0.138466
H93   H     H_    0.769722 0.277224 0.736094 0.088701
H94   H     H_    0.681325 0.390724 0.763199 0.135758
H95   H     H_    0.714563 0.401419 0.715217 0.150381
N1    N     N_2   0.550227 0.805784 0.099181 -0.485602
N2    N     N_2   0.812325 0.500406 0.429761 -0.496061
N3    N     N_2   0.523414 0.596638 0.802534 -0.514956
N4    N     N_2   0.507121 0.802702 0.837023 -0.521108
N5    N     N_2   0.164682 0.821856 0.835157 -0.524704
O1    O     O_R   0.324990 0.503440 0.453910 -0.522409
O2    O     O_R   0.675430 0.831160 0.051290 -0.475856
O3    O     O_R   0.698870 0.998880 0.039560 -0.499383
O4    O     O_R   0.522030 0.339050 0.458320 -0.505134
O5    O     O_R   0.811290 0.006780 0.950620 -0.517592
O6    O     O_R   0.980960 0.812920 0.953200 -0.502508
O7    O     O_R   0.001480 0.656720 0.955830 -0.515294
O8    O     O_R   0.809240 0.683250 0.968050 -0.499311
O9    O     O_R   0.652500 0.818540 0.967340 -0.524165
O10   O     O_R   0.677620 0.987170 0.961730 -0.502031
O11   O     O_3   0.833240 0.833660 0.999890 -0.236036
O12   O     O_R   0.639980 0.519500 0.542640 -0.503276
O13   O     O_R   0.676180 0.324490 0.458320 -0.511108
O14   O     O_R   0.643570 0.521510 0.464260 -0.459042
O15   O     O_R   0.504630 0.675350 0.460920 -0.531652
O16   O     O_R   0.339850 0.642450 0.459830 -0.500682
O17   O     O_R   0.321120 0.501280 0.538470 -0.521259
O18   O     O_R   0.518440 0.337050 0.536710 -0.501742
O19   O     O_R   0.672300 0.322330 0.542880 -0.519876
O20   O     O_3   0.311303 0.748585 0.285822 -0.566299
O21   O     O_3   0.827332 0.635328 0.798759 -0.573089
O22   O     O_3   0.549792 0.773210 0.178298 -0.589062
O23   O     O_R   0.500750 0.673190 0.545480 -0.522332
O24   O     O_3   0.613828 0.347582 0.719090 -0.561207
O25   O     O_R   0.336260 0.640450 0.538210 -0.502576
O26   O     O_3   0.499990 0.499990 0.500010 -0.236510
O27   O     O_R   0.834210 0.019400 0.034570 -0.523439
O28   O     O_R   0.002210 0.824620 0.031030 -0.503648
O29   O     O_R   0.024400 0.669340 0.039790 -0.521181
O30   O     O_R   0.830490 0.694950 0.045870 -0.512680

loop_
_geom_bond_atom_site_label_1
_geom_bond_atom_site_label_2
_ccdc_geom_bond_type
C58   C62   A    
C79   H4    S    
C47   H89   S    
C63   C65   A    
C122  C126  A    
C54   H59   S    
C111  C121  S    
C18   C21   A    
H81   N4    S    
C73   C74   A    
Cr6   O10   S    
H85   N5    S    
C22   C48   S    
C111  C112  A    
C51   C61   S    
C28   O20   S    
C46   O9    A    
C80   C84   A    
C35   C47   A    
C103  H9    S    
C93   C127  S    
C114  C115  A    
C85   C91   A    
Cr2   O19   S    
C3    H32   S    
C57   C62   S    
Cr3   O25   S    
Cr2   O14   S    
C76   H2    S    
C100  H17   S    
C27   H68   S    
C32   N5    S    
C24   C36   A    
C74   C76   A    
C89   C99   S    
C36   H55   S    
C5    C6    A    
C22   C75   A    
C26   H62   S    
C69   O1    A    
C25   C53   A    
C43   O30   A    
C37   C40   A    
C33   H90   S    
C30   H77   S    
C38   C39   A    
C42   C55   S    
C53   C64   A    
C45   C128  S    
C115  C116  A    
C81   O18   A    
C100  C104  A    
C24   C39   A    
C122  H29   S    
C82   H45   S    
C18   C19   A    
C88   H14   S    
C35   C42   A    
C86   C97   A    
C2    H52   S    
C107  C113  A    
C93   O12   A    
Cr4   O6    S    
C30   H80   S    
C110  C111  A    
C97   C108  A    
C78   C83   A    
Cr5   O7    S    
C95   C96   A    
C10   C20   S    
C8    C9    A    
C59   C62   A    
C96   C98   A    
C13   C86   A    
C63   C70   A    
Cr4   O5    S    
C101  H18   S    
C7    C128  A    
C109  H21   S    
C65   H23   S    
C43   O2    A    
C9    C10   A    
C31   H84   S    
C57   O15   A    
C1    C106  S    
C14   C42   A    
C31   H83   S    
C16   H41   S    
Cr5   O30   S    
C23   C25   A    
C66   C67   A    
C59   C60   A    
C116  C126  S    
C6    H43   S    
C86   H49   S    
C28   H70   S    
C114  C121  A    
C108  C119  A    
C34   H95   S    
C46   O8    A    
C59   N2    S    
C78   H3    S    
C22   C23   A    
C112  C113  A    
C48   O5    A    
C52   C54   A    
C28   H71   S    
C29   H76   S    
C114  N3    S    
C91   H8    S    
C98   H16   S    
C85   C87   A    
C110  H27   S    
C39   C108  S    
Cr1   O4    S    
C31   N4    S    
Cr5   O11   S    
C118  H28   S    
Cr3   O15   S    
C27   H69   S    
C36   C40   A    
C76   C77   A    
C49   H33   S    
C80   C82   A    
C33   H91   S    
Cr2   O13   S    
C32   H86   S    
C8    H38   S    
C16   C17   A    
Cr3   O23   S    
C50   H25   S    
C64   H57   S    
C92   H11   S    
C82   C83   A    
C1    O4    A    
C38   H48   S    
C51   C52   A    
C60   C61   A    
H61   N1    S    
C66   H67   S    
Cr6   O9    S    
C115  H26   S    
C34   H93   S    
C67   C68   A    
C120  O21   S    
C13   C53   S    
C37   C38   A    
C67   C77   S    
C30   H79   S    
C56   H60   S    
C123  C127  A    
C12   C15   A    
C41   O28   A    
Cr3   O16   S    
C16   C20   A    
C96   H15   S    
C46   C107  S    
C102  H20   S    
C92   C94   A    
C50   C51   A    
C94   C95   A    
C35   H12   S    
C29   H74   S    
C26   H64   S    
C2    C13   A    
C29   N3    S    
C25   H50   S    
C43   C117  S    
Cr4   O27   S    
C124  H31   S    
C29   H75   S    
C18   H44   S    
C49   C50   A    
C105  O25   A    
Cr1   O17   S    
C12   H40   S    
C74   H78   S    
C125  C126  A    
C81   O19   A    
C4    N5    S    
C30   O21   S    
Cr6   O11   S    
C68   H5    S    
C34   H94   S    
C90   H19   S    
C41   C63   S    
C72   O20   S    
C57   O14   A    
C3    C4    A    
C45   O6    A    
C71   C77   A    
C32   H88   S    
C117  C129  A    
C120  C121  A    
C97   O24   S    
C33   O22   S    
C17   H42   S    
C101  C106  A    
Cr4   O28   S    
C129  N1    S    
C54   C55   A    
C11   H39   S    
Cr5   O29   S    
C48   O10   A    
C79   C84   A    
C27   H66   S    
C40   C81   S    
C70   H34   S    
C41   O29   A    
C116  C118  A    
C105  O17   A    
C19   H36   S    
C4    C5    A    
C33   H92   S    
C14   O22   S    
C44   O3    A    
C80   H6    S    
C32   H87   S    
C2    C119  A    
C125  H24   S    
C23   H46   S    
C6    C7    A    
C1    O13   A    
C26   N1    S    
C8    C15   A    
H65   N2    S    
Cr4   O11   S    
Cr6   O3    S    
C24   H53   S    
C58   H1    S    
C113  H22   S    
C19   C20   A    
C3    C128  A    
C122  C123  A    
C119  H51   S    
C71   C72   A    
C69   C84   S    
C49   C55   A    
C109  C110  A    
Cr2   O12   S    
C95   C104  S    
C44   O27   A    
C78   C79   A    
C90   C91   A    
C107  C109  A    
C31   H82   S    
C94   H10   S    
C72   C73   A    
C112  N4    S    
H73   N3    S    
Cr1   O1    S    
C100  C101  A    
C64   C75   A    
C56   C58   A    
C34   O24   S    
C102  C106  A    
C52   H54   S    
C65   C66   A    
C87   H7    S    
C102  C103  A    
C26   H63   S    
C118  C120  A    
Cr5   O8    S    
C5    C15   S    
Cr1   O26   S    
C10   C11   A    
C69   O16   A    
C93   O23   A    
C123  H30   S    
Cr1   O18   S    
Cr6   O2    S    
C27   N2    S    
C47   C117  A    
C88   C89   A    
C92   C99   A    
C87   C88   A    
C68   C70   A    
C98   C99   A    
C7    H35   S    
C124  C127  A    
C103  C104  A    
C28   H72   S    
C56   C61   A    
C124  C125  A    
C9    H37   S    
C60   H13   S    
C71   H56   S    
C89   C90   A    
C75   H47   S    
C45   O7    A    
C73   C83   S    
C21   C105  S    
C44   C85   S    
C11   C12   A    
C37   H58   S    
Cr3   O26   S    
Cr2   O26   S    
C14   C129  A    
C17   C21   A    
