data_mof_unit_45878.cif
_audit_creation_date              2012-12-11T14:08:34-0500
_audit_creation_method            fapswitch 2.2
_symmetry_space_group_name_H-M    P1
_symmetry_Int_Tables_number       1
_space_group_crystal_system       triclinic
_cell_length_a                    28.119977
_cell_length_b                    7.160484
_cell_length_c                    17.35895
_cell_angle_alpha                 89.932229
_cell_angle_beta                  102.200451
_cell_angle_gamma                 89.971076
_cell_volume                      3416.32372237

loop_
_atom_site_label
_atom_site_type_symbol
_atom_type_description
_atom_site_fract_x
_atom_site_fract_y
_atom_site_fract_z
_atom_type_partial_charge
O1    O     O_R   0.000700 0.436510 0.857920 -0.537166
O2    O     O_R   0.999300 0.563490 0.142080 -0.538606
O3    O     O_R   0.999300 0.936510 0.642080 -0.536925
O4    O     O_R   0.000700 0.063490 0.357920 -0.538650
O5    O     O_R   0.930080 0.766380 0.721890 -0.515818
O6    O     O_R   0.069920 0.233620 0.278110 -0.517029
O7    O     O_R   0.069920 0.266380 0.778110 -0.518379
O8    O     O_R   0.930080 0.733620 0.221890 -0.519564
C1    C     C_R   0.910698 0.598242 0.706088 0.824464
C2    C     C_R   0.089606 0.402690 0.288912 0.822566
C3    C     C_R   0.089331 0.097891 0.793570 0.823693
C4    C     C_R   0.910350 0.902795 0.211382 0.819837
O9    O     O_R   0.996180 0.766230 0.862310 -0.553912
O10   O     O_R   0.003820 0.233770 0.137690 -0.553696
O11   O     O_R   0.003820 0.266230 0.637690 -0.554408
O12   O     O_R   0.996180 0.733770 0.362310 -0.553889
O13   O     O_R   0.065870 0.936460 0.783500 -0.522962
O14   O     O_R   0.934130 0.063540 0.216500 -0.520286
O15   O     O_R   0.934130 0.436460 0.716500 -0.521426
O16   O     O_R   0.065870 0.563540 0.283500 -0.518881
C5    C     C_R   0.999384 0.595783 0.894529 0.762899
C6    C     C_R   0.000706 0.404200 0.105491 0.754560
C7    C     C_R   0.000641 0.095890 0.605452 0.763561
C8    C     C_R   0.999261 0.904093 0.394524 0.755334
O17   O     O_3   0.022790 0.603020 0.723980 -0.378454
O18   O     O_3   0.977210 0.396980 0.276020 -0.375143
O19   O     O_3   0.977210 0.103020 0.776020 -0.375562
O20   O     O_3   0.022790 0.896980 0.223980 -0.371884
V1    V     V_3+5 0.995770 0.877900 0.754830 1.507612
V2    V     V_3+5 0.004230 0.122100 0.245170 1.507605
V3    V     V_3+5 0.004230 0.377900 0.745170 1.503064
V4    V     V_3+5 0.995770 0.622100 0.254830 1.501957
C9    C     C_2   0.993794 0.080151 0.518221 -0.038588
C10   C     C_2   0.005962 0.919640 0.481732 -0.036629
C11   C     C_2   0.006282 0.579948 0.981731 -0.036890
C12   C     C_2   0.993942 0.419851 0.018303 -0.035856
C13   C     C_R   0.680735 0.096382 0.095100 0.708325
C14   C     C_R   0.312670 0.933469 0.992011 0.732838
C15   C     C_R   0.319021 0.588998 0.416529 0.693757
C16   C     C_R   0.687274 0.452691 0.504857 0.716561
O21   O     O_2   0.709942 0.216966 0.067164 -0.500025
O22   O     O_2   0.282747 0.807136 0.014659 -0.496352
O23   O     O_2   0.289711 0.697496 0.449952 -0.514946
O24   O     O_2   0.717430 0.333488 0.478533 -0.502587
N1    N     N_R   0.700823 0.956005 0.144809 -0.510067
N2    N     N_R   0.293906 0.066636 0.937366 -0.512546
N3    N     N_R   0.299058 0.458723 0.361682 -0.518356
N4    N     N_R   0.705798 0.577307 0.563304 -0.519773
C17   C     C_R   0.672094 0.829420 0.172840 0.721178
C18   C     C_R   0.323158 0.201429 0.915875 0.723587
C19   C     C_R   0.328012 0.342922 0.328644 0.753515
C20   C     C_R   0.676274 0.706102 0.588191 0.750938
C21   C     C_R   0.781341 0.066829 0.214685 0.270267
C22   C     C_R   0.222142 0.936389 0.846323 0.255432
C23   C     C_R   0.218589 0.578408 0.294829 0.260965
C24   C     C_R   0.778178 0.435970 0.649779 0.249319
C25   C     C_R   0.832915 0.061988 0.226667 0.149527
C26   C     C_R   0.171698 0.943311 0.810496 0.162607
C27   C     C_R   0.167123 0.560351 0.274121 0.166923
C28   C     C_R   0.827965 0.447399 0.689288 0.167802
C29   C     C_R   0.827419 0.775822 0.148491 0.156183
C30   C     C_R   0.162848 0.222421 0.887243 0.151743
C31   C     C_R   0.172158 0.278946 0.355285 0.167874
C32   C     C_R   0.837162 0.728149 0.613573 0.162409
C33   C     C_R   0.775847 0.793750 0.129776 0.273696
C34   C     C_R   0.213171 0.214273 0.922937 0.268506
C35   C     C_R   0.223862 0.287234 0.368942 0.242852
C36   C     C_R   0.786423 0.726482 0.580526 0.248646
C37   C     C_R   0.753235 0.936715 0.164339 0.242987
C38   C     C_R   0.242218 0.069420 0.903423 0.242500
C39   C     C_R   0.246632 0.439912 0.340701 0.250383
C40   C     C_R   0.757464 0.578615 0.597570 0.245605
C41   C     C_R   0.599353 0.989617 0.101270 -0.107196
C42   C     C_R   0.394101 0.058776 0.000629 -0.108764
C43   C     C_R   0.400513 0.493958 0.405358 -0.131186
C44   C     C_R   0.605662 0.572975 0.499623 -0.135833
C45   C     C_R   0.629972 0.113630 0.071452 -0.045427
C46   C     C_R   0.362934 0.928316 0.025127 -0.039653
C47   C     C_R   0.369815 0.609398 0.439029 -0.045574
C48   C     C_R   0.636937 0.448399 0.471994 -0.059702
C49   C     C_R   0.609699 0.242352 0.013370 -0.214426
C50   C     C_R   0.382029 0.804351 0.086131 -0.195012
C51   C     C_R   0.390213 0.734085 0.498585 -0.220704
C52   C     C_R   0.617707 0.330490 0.408934 -0.224889
C53   C     C_R   0.620450 0.844150 0.152388 -0.181564
C54   C     C_R   0.373916 0.202694 0.947999 -0.152883
C55   C     C_R   0.379558 0.354286 0.351419 -0.130795
C56   C     C_R   0.625730 0.711245 0.554871 -0.117760
C57   C     C_R   0.856049 0.914091 0.194651 -0.181456
C58   C     C_R   0.142504 0.090442 0.829027 -0.178465
C59   C     C_R   0.143841 0.414150 0.306748 -0.178914
C60   C     C_R   0.857582 0.592071 0.670082 -0.177040
H1    H     H_    0.633220 0.326544 0.985303 0.172548
H2    H     H_    0.357659 0.717004 0.111107 0.179620
H3    H     H_    0.366811 0.812417 0.529021 0.171170
H4    H     H_    0.642016 0.248056 0.381790 0.179401
C61   C     C_R   0.476158 0.181602 0.006087 -0.012455
C62   C     C_R   0.516906 0.876584 0.104239 -0.009194
C63   C     C_R   0.523495 0.688147 0.499110 0.011751
C64   C     C_R   0.482933 0.391904 0.396504 0.020203
C65   C     C_R   0.465129 0.902970 0.083845 0.068487
C66   C     C_R   0.527571 0.153468 0.024633 0.066143
C67   C     C_R   0.534592 0.420730 0.415625 0.060601
C68   C     C_R   0.472201 0.657615 0.481837 0.061292
C69   C     C_R   0.445345 0.046238 0.029483 -0.078357
C70   C     C_R   0.547775 0.008862 0.078098 -0.073536
C71   C     C_R   0.554385 0.559060 0.472063 -0.081956
C72   C     C_R   0.452013 0.516815 0.426676 -0.072705
C73   C     C_R   0.454383 0.347677 0.969702 0.431945
C74   C     C_R   0.538968 0.712979 0.142990 0.448146
C75   C     C_R   0.545010 0.852347 0.536971 0.352307
C76   C     C_R   0.461246 0.230326 0.356065 0.354808
C77   C     C_R   0.404468 0.349891 0.933915 0.246862
C78   C     C_R   0.589432 0.708840 0.175220 0.247706
C79   C     C_R   0.595262 0.854553 0.572484 0.286601
C80   C     C_R   0.410343 0.224274 0.325286 0.278061
O25   O     O_2   0.302892 0.333448 0.863679 -0.484274
O26   O     O_2   0.693651 0.687992 0.218586 -0.477284
O27   O     O_2   0.695907 0.827668 0.645421 -0.460547
O28   O     O_2   0.306839 0.216886 0.274473 -0.453615
C81   C     C_R   0.559313 0.252754 0.985303 0.417629
C82   C     C_R   0.432089 0.801258 0.119912 0.400290
C83   C     C_R   0.440758 0.750320 0.523865 0.420845
C84   C     C_R   0.567407 0.325932 0.376736 0.446297
C85   C     C_3   0.967530 0.243429 0.471699 -0.709373
H5    H     H_    0.951452 0.339694 0.509362 0.191131
H6    H     H_    0.993313 0.326437 0.445161 0.223451
H7    H     H_    0.936700 0.192834 0.425463 0.229203
C86   C     C_3   0.031989 0.755871 0.528244 -0.707820
H8    H     H_    0.047963 0.659166 0.490623 0.191943
H9    H     H_    0.062871 0.805844 0.574538 0.220784
H10   H     H_    0.006058 0.673424 0.554693 0.223859
C87   C     C_3   0.032758 0.742602 0.028134 -0.712812
H11   H     H_    0.048938 0.838462 0.990387 0.191034
H12   H     H_    0.007096 0.826224 0.054668 0.224795
H13   H     H_    0.063531 0.691239 0.074359 0.225460
C88   C     C_3   0.967692 0.256721 0.971900 -0.708317
H14   H     H_    0.951606 0.160459 0.009607 0.191607
H15   H     H_    0.936870 0.307447 0.925582 0.219606
H16   H     H_    0.993506 0.173611 0.945480 0.224255
O29   O     O_3   0.850630 0.627808 0.121059 -0.631394
H17   H     H_    0.829100 0.517061 0.116113 0.315147
O30   O     O_3   0.132199 0.351186 0.910942 -0.635045
H18   H     H_    0.145315 0.384998 0.966675 0.300388
O31   O     O_3   0.148409 0.145096 0.390502 -0.629861
H19   H     H_    0.169965 0.104362 0.440400 0.308990
O32   O     O_3   0.867866 0.856671 0.589873 -0.632128
H20   H     H_    0.853805 0.896100 0.535094 0.301419
O33   O     O_3   0.746432 0.677391 0.076683 -0.599405
H21   H     H_    0.765403 0.627398 0.039327 0.321508
O34   O     O_3   0.235424 0.347174 0.976103 -0.597663
H22   H     H_    0.218111 0.467501 0.963599 0.338751
O35   O     O_3   0.253231 0.150697 0.410592 -0.607602
H23   H     H_    0.235461 0.030491 0.403485 0.337082
O36   O     O_3   0.763918 0.866435 0.531138 -0.605983
H24   H     H_    0.782314 0.984019 0.544604 0.329732
O37   O     O_3   0.150080 0.808847 0.757548 -0.629179
H25   H     H_    0.167004 0.688399 0.771866 0.315450
O38   O     O_3   0.861424 0.197483 0.270550 -0.632842
H26   H     H_    0.843333 0.317188 0.264054 0.311127
O39   O     O_3   0.848264 0.323383 0.748161 -0.628794
H27   H     H_    0.822347 0.274500 0.773376 0.310100
O40   O     O_3   0.138850 0.679853 0.220683 -0.631888
H28   H     H_    0.158554 0.728063 0.183995 0.304285
O41   O     O_3   0.253355 0.806629 0.824991 -0.597721
H29   H     H_    0.240193 0.765993 0.770156 0.320410
O42   O     O_3   0.757071 0.196112 0.251197 -0.596493
H30   H     H_    0.778516 0.234649 0.301487 0.323083
O43   O     O_3   0.748623 0.289234 0.661361 -0.594105
H31   H     H_    0.769003 0.176251 0.675003 0.329382
O44   O     O_3   0.242710 0.729249 0.271441 -0.599153
H32   H     H_    0.220699 0.838820 0.264441 0.323917
O45   O     O_3   0.386080 0.501880 0.888819 -0.611604
H33   H     H_    0.377153 0.455538 0.833835 0.335228
O46   O     O_3   0.607365 0.565781 0.226193 -0.620226
H34   H     H_    0.625586 0.625306 0.275146 0.329627
O47   O     O_3   0.615146 0.998943 0.621623 -0.591885
H35   H     H_    0.589444 0.054028 0.645809 0.314251
O48   O     O_3   0.390295 0.086090 0.272986 -0.600689
H36   H     H_    0.415067 0.045423 0.243570 0.313028
O49   O     O_3   0.481722 0.509818 0.975185 -0.607030
H37   H     H_    0.460970 0.617644 0.954060 0.333800
O50   O     O_3   0.511554 0.552283 0.142419 -0.597666
H38   H     H_    0.532827 0.443611 0.160299 0.347454
O51   O     O_3   0.517669 0.014537 0.530528 -0.611746
H39   H     H_    0.539561 0.124245 0.535996 0.300731
O52   O     O_3   0.489012 0.070503 0.356681 -0.609228
H40   H     H_    0.467685 0.958980 0.349846 0.316320
O53   O     O_3   0.541091 0.340056 0.914012 -0.612252
H41   H     H_    0.567976 0.399184 0.893931 0.306372
O54   O     O_3   0.448178 0.718837 0.192904 -0.616903
H42   H     H_    0.420490 0.658805 0.210456 0.299926
O55   O     O_3   0.459726 0.838466 0.594561 -0.610597
H43   H     H_    0.433028 0.892792 0.616646 0.304057
O56   O     O_3   0.550588 0.246619 0.303435 -0.606495
H44   H     H_    0.578132 0.190532 0.284080 0.304839

loop_
_geom_bond_atom_site_label_1
_geom_bond_atom_site_label_2
_ccdc_geom_bond_type
O17   V3    S    
O44   H32   S    
O1    C5    A    
O37   H25   S    
C62   C74   A    
C23   C27   A    
C24   O43   S    
O19   V1    S    
C18   O25   S    
O13   V1    S    
O43   H31   S    
O3    C7    A    
O32   H20   S    
C76   C80   A    
C30   O30   S    
C48   C52   A    
C36   O36   S    
C21   C37   A    
C11   C87   S    
C76   O52   S    
O31   H19   S    
C41   C70   A    
O4    V2    S    
C82   O54   S    
C68   C83   A    
C34   C38   A    
O49   H37   S    
O7    C3    A    
C88   H15   S    
O41   H29   S    
C25   C57   A    
C54   C77   A    
C50   H2    S    
C32   C36   A    
O9    V1    S    
C53   C78   A    
O10   V2    S    
C14   O22   S    
N4    C20   A    
C81   O53   S    
O4    C8    A    
O30   H18   S    
O1    V3    S    
C49   H1    S    
O2    V4    S    
C52   H4    S    
O3    V1    S    
C1    O15   A    
C11   C12   D    
C10   C86   S    
C2    O16   A    
C24   C40   A    
O2    C6    A    
C85   H7    S    
O34   H22   S    
C16   C48   A    
O14   V2    S    
N1    C17   A    
C66   C81   A    
C12   C88   S    
C44   C56   A    
C61   C66   A    
C34   O34   S    
C73   C77   A    
C86   H10   S    
C61   C69   A    
O11   C7    A    
C63   C68   A    
C25   O38   S    
O15   V3    S    
C43   C72   A    
O12   C8    A    
C13   O21   S    
C31   C59   A    
N4    C40   S    
C67   C84   A    
C1    C60   S    
C23   O44   S    
C21   O42   S    
O39   H27   S    
O5    V1    S    
C28   C60   A    
C65   C69   A    
C88   H16   S    
C31   C35   A    
C64   C72   A    
C75   O51   S    
C30   C34   A    
N1    C37   S    
O54   H42   S    
O8    V4    S    
C17   C53   A    
C4    C57   S    
C20   C56   A    
O7    V3    S    
C19   C55   A    
O42   H30   S    
C21   C25   A    
O18   V4    S    
N3    C19   A    
C14   C46   A    
C7    C9    S    
O45   H33   S    
C15   N3    A    
C13   C45   A    
C64   C67   A    
C8    C10   S    
O48   H36   S    
C49   C81   A    
C36   C40   A    
C15   C47   A    
O50   H38   S    
C20   O27   S    
O5    C1    A    
C87   H13   S    
C61   C73   A    
C46   C50   A    
C19   O28   S    
O38   H26   S    
C22   C38   A    
C45   C49   A    
O8    C4    A    
C63   C75   A    
C9    C85   S    
C28   O39   S    
O9    C5    A    
C27   C59   A    
C51   H3    S    
C42   C54   A    
C26   C58   A    
N3    C39   S    
C55   C80   A    
C79   O47   S    
O47   H35   S    
C29   O29   S    
C78   O46   S    
O6    V2    S    
C74   O50   S    
C64   C76   A    
C44   C71   A    
C32   O32   S    
C85   H5    S    
C22   C26   A    
C52   C84   A    
C32   C60   A    
C22   O41   S    
C13   N1    A    
C68   C72   A    
N2    C38   S    
C63   C71   A    
C77   O45   S    
C86   H8    S    
O16   V4    S    
C73   O49   S    
C16   N4    A    
C74   C78   A    
C3    O13   A    
C44   C48   A    
C26   O37   S    
C2    C59   S    
C75   C79   A    
O11   V3    S    
C5    C11   S    
O12   V4    S    
C62   C65   A    
C6    C12   S    
C88   H14   S    
N2    C18   A    
C65   C82   A    
C62   C70   A    
C35   O35   S    
O10   C6    A    
C56   C79   A    
O20   V2    S    
C41   C53   A    
O46   H34   S    
O33   H21   S    
C42   C69   A    
C47   C51   A    
C3    C58   S    
O51   H39   S    
C87   H11   S    
C33   C37   A    
C30   C58   A    
C84   O56   S    
C9    C10   D    
C66   C70   A    
C35   C39   A    
C33   O33   S    
O53   H41   S    
C29   C57   A    
C50   C82   A    
C14   N2    A    
O40   H28   S    
C27   O40   S    
O6    C2    A    
C18   C54   A    
O56   H44   S    
C17   O26   S    
C29   C33   A    
C16   O24   S    
C24   C28   A    
O52   H40   S    
O55   H43   S    
C42   C46   A    
C80   O48   S    
C4    O14   A    
O36   H24   S    
C85   H6    S    
C87   H12   S    
C41   C45   A    
C83   O55   S    
C67   C71   A    
C51   C83   A    
O35   H23   S    
O29   H17   S    
C43   C47   A    
C15   O23   S    
C31   O31   S    
C23   C39   A    
C43   C55   A    
C86   H9    S    
