data_mof_unit_67512.cif
_audit_creation_date              2013-03-05T15:41:20-0500
_audit_creation_method            fapswitch 2.2
_symmetry_space_group_name_H-M    P1
_symmetry_Int_Tables_number       1
_space_group_crystal_system       triclinic
_cell_length_a                    10.668719
_cell_length_b                    8.865948
_cell_length_c                    7.614309
_cell_angle_alpha                 104.262942
_cell_angle_beta                  95.188997
_cell_angle_gamma                 96.66531
_cell_volume                      687.984698213

loop_
_atom_site_label
_atom_site_type_symbol
_atom_site_description
_atom_site_fract_x
_atom_site_fract_y
_atom_site_fract_z
_atom_type_partial_charge
O1    O     O_R   0.509190 0.286130 0.619780 -0.566307
O2    O     O_R   0.490810 0.713870 0.380220 -0.566308
O3    O     O_R   0.485310 0.256770 0.308360 -0.578374
O4    O     O_R   0.514690 0.743230 0.691640 -0.578435
C1    C     C_R   0.496000 0.200364 0.452755 0.819249
C2    C     C_R   0.503999 0.799635 0.547245 0.819233
O5    O     O_R   0.328790 0.514640 0.655680 -0.542157
O6    O     O_R   0.671210 0.485360 0.344320 -0.542156
O7    O     O_R   0.304910 0.485280 0.344260 -0.535909
O8    O     O_R   0.695090 0.514720 0.655740 -0.535915
C3    C     C_R   0.260097 0.499637 0.499860 0.857450
C4    C     C_R   0.739903 0.500362 0.500140 0.857453
Cu1   Cu    Cu3+1 0.514140 0.517380 0.684380 1.154995
Cu2   Cu    Cu3+1 0.485860 0.482620 0.315620 1.155022
N1    N     N_2   0.464560 0.456420 0.038510 0.054448
N2    N     N_2   0.535440 0.543580 0.961490 0.054408
C5    C     C_3   0.058632 0.552000 0.672589 -0.221906
C6    C     C_3   0.941368 0.447999 0.327410 -0.221884
C7    C     C_3   0.956233 0.405700 0.599717 -0.176726
C8    C     C_3   0.043767 0.594299 0.400282 -0.176742
H1    H     H_    0.104524 0.605792 0.813759 0.229070
H2    H     H_    0.895476 0.394206 0.186241 0.229064
C9    C     C_3   0.876415 0.500000 0.501247 -0.185000
C10   C     C_3   0.123584 0.499999 0.498752 -0.185014
C11   C     C_3   0.977890 0.645353 0.571657 0.363756
C12   C     C_3   0.022110 0.354646 0.428343 0.363803
C13   C     C_2   0.486291 0.031859 0.428034 -0.227521
C14   C     C_2   0.513706 0.968140 0.571966 -0.227532
C15   C     C_1   0.909736 0.304161 0.712476 0.468740
N3    N     N_1   0.873178 0.224640 0.802130 -0.141846
C16   C     C_1   0.090263 0.695837 0.287523 0.468693
N4    N     N_1   0.126821 0.775358 0.197868 -0.141847
S1    S     S_3+6 0.956246 0.839927 0.684570 0.100740
O9    O     O_2   0.831912 0.876635 0.608802 -0.228282
O10   O     O_2   0.955961 0.852040 0.884544 -0.183248
O11   O     O_3   0.076203 0.969208 0.657214 -0.422362
H3    H     H_    0.154463 0.933472 0.702840 0.331246
S2    S     S_3+6 0.043755 0.160072 0.315432 0.100723
O12   O     O_2   0.044041 0.147958 0.115457 -0.183280
O13   O     O_2   0.168087 0.123363 0.391202 -0.228297
O14   O     O_3   0.923796 0.030793 0.342789 -0.422387
H4    H     H_    0.845540 0.066458 0.297022 0.331329
S3    S     S_3+6 0.318264 0.347027 0.940608 0.169045
O15   O     O_2   0.217740 0.452263 0.967032 -0.286126
O16   O     O_2   0.308507 0.261083 0.743576 -0.272301
O17   O     O_3   0.285953 0.210204 0.054156 -0.423214
H5    H     H_    0.323243 0.118014 0.989788 0.342754
S4    S     S_3+6 0.681737 0.652971 0.059394 0.169030
O18   O     O_2   0.691494 0.738916 0.256425 -0.272278
O19   O     O_2   0.782260 0.547733 0.032968 -0.286121
O20   O     O_3   0.714052 0.789797 0.945853 -0.423204
H6    H     H_    0.676638 0.881924 0.010109 0.342711
C17   C     C_1   0.438724 0.938957 0.243170 0.365048
N5    N     N_1   0.401061 0.865577 0.095905 -0.265196
C18   C     C_1   0.561269 0.061043 0.756831 0.365025
N6    N     N_1   0.598930 0.134425 0.904096 -0.265163

loop_
_geom_bond_atom_site_label_1
_geom_bond_atom_site_label_2
_geom_bond_distance
_ccdc_geom_bond_type
S4    O18   1.494079 D    
C7    C9    1.531331 S    
O7    Cu2   1.964471 S    
C13   C17   1.455954 S    
C17   N5    1.157769 T    
C15   N3    1.156153 T    
S3    O16   1.494081 D    
O14   H4    0.990667 S    
C16   N4    1.156153 T    
C6    C12   1.541713 S    
O6    C4    1.305679 A    
C5    C11   1.541714 S    
N2    S4    1.736184 S    
C18   N6    1.157769 T    
S4    O19   1.496660 D    
S1    O9    1.500870 D    
O3    C1    1.316593 A    
N1    S3    1.736181 S    
O20   H6    0.989924 S    
C6    H2    1.104804 S    
Cu1   Cu2   2.732917 S    
S2    O13   1.500869 D    
O7    C3    1.300297 A    
C4    C9    1.456059 S    
O2    C2    1.296803 A    
O3    Cu2   1.988785 S    
O8    C4    1.300297 A    
O1    C1    1.296803 A    
O11   H3    0.990647 S    
S1    O10   1.500130 D    
C14   C18   1.455955 S    
C10   C12   1.533260 S    
O5    C3    1.305680 A    
C6    C8    1.546147 S    
C9    C11   1.533260 S    
S3    O15   1.496661 D    
S2    O12   1.500131 D    
O2    Cu2   1.980280 S    
S3    O17   1.676754 S    
C2    C14   1.449155 S    
C5    C10   1.544078 S    
O1    Cu1   1.980279 S    
C8    C11   1.533067 S    
C6    C9    1.544078 S    
C7    C15   1.465568 S    
C8    C10   1.531331 S    
C3    C10   1.456058 S    
O5    Cu1   1.966394 S    
S1    O11   1.679396 S    
S2    O14   1.679395 S    
O4    C2    1.316593 A    
Cu1   N2    2.053585 S    
O4    Cu1   1.988785 S    
C7    C12   1.533067 S    
O17   H5    0.989902 S    
C12   S2    1.779320 S    
O6    Cu2   1.966396 S    
Cu2   N1    2.053585 S    
C5    C7    1.546147 S    
C1    C13   1.449155 S    
O8    Cu1   1.964471 S    
S4    O20   1.676743 S    
C5    H1    1.104804 S    
N1    N2    1.296452 D    
C11   S1    1.779324 S    
C13   C14   1.375215 D    
C8    C16   1.465567 S    
