data_mof_unit_41840.cif
_audit_creation_date              2012-12-11T17:02:22-0500
_audit_creation_method            fapswitch 2.2
_symmetry_space_group_name_H-M    P1
_symmetry_Int_Tables_number       1
_space_group_crystal_system       triclinic
_cell_length_a                    21.663641
_cell_length_b                    7.101001
_cell_length_c                    14.842642
_cell_angle_alpha                 90.015996
_cell_angle_beta                  106.178789
_cell_angle_gamma                 90.009209
_cell_volume                      2192.87035782

loop_
_atom_site_label
_atom_site_type_symbol
_atom_type_description
_atom_site_fract_x
_atom_site_fract_y
_atom_site_fract_z
_atom_type_partial_charge
O1    O     O_R   0.585850 0.505770 0.002130 -0.537459
O2    O     O_R   0.414150 0.005770 0.997870 -0.537455
O3    O     O_R   0.467530 0.173560 0.861970 -0.537502
O4    O     O_R   0.532470 0.673560 0.138030 -0.537621
C1    C     C_R   0.456229 0.344367 0.825279 0.687396
C2    C     C_R   0.543757 0.844466 0.174714 0.687617
O5    O     O_R   0.588690 0.175900 0.993250 -0.544722
O6    O     O_R   0.411310 0.675900 0.006750 -0.544715
O7    O     O_R   0.536170 0.007950 0.130090 -0.536337
O8    O     O_R   0.463830 0.507950 0.869910 -0.536538
C3    C     C_R   0.615161 0.344828 0.998556 0.688584
C4    C     C_R   0.384827 0.844802 0.001373 0.688449
O9    O     O_3   0.482630 0.339970 0.044740 -0.372877
O10   O     O_3   0.517370 0.839970 0.955260 -0.372968
V1    V     V_3+5 0.503220 0.064200 0.991700 1.408754
V2    V     V_3+5 0.496780 0.564200 0.008300 1.408692
C5    C     C_R   0.290283 0.019159 0.028943 0.093596
C6    C     C_R   0.709694 0.519047 0.970762 0.093427
C7    C     C_R   0.316600 0.854763 0.003088 -0.098689
C8    C     C_R   0.683369 0.354764 0.996726 -0.098781
C9    C     C_R   0.275358 0.699712 0.977727 -0.199355
C10   C     C_R   0.724583 0.199713 0.022066 -0.199219
H1    H     H_    0.292920 0.575265 0.952622 0.148334
H2    H     H_    0.706992 0.075296 0.047142 0.148558
C11   C     C_R   0.210199 0.710284 0.976724 -0.185165
C12   C     C_R   0.789745 0.210246 0.023087 -0.185257
H3    H     H_    0.179271 0.591056 0.951293 0.137115
H4    H     H_    0.820650 0.091031 0.048528 0.137171
C13   C     C_R   0.184179 0.877499 0.001966 -0.090459
C14   C     C_R   0.815795 0.377425 0.997869 -0.090549
C15   C     C_R   0.226396 0.028638 0.032008 0.062812
C16   C     C_R   0.773590 0.528478 0.967723 0.063191
C17   C     C_3   0.218900 0.225746 0.997004 -0.417480
C18   C     C_3   0.781099 0.725718 0.002600 -0.417323
C19   C     C_3   0.286953 0.212182 0.987775 -0.019826
C20   C     C_3   0.713042 0.712219 0.011815 -0.019430
H5    H     H_    0.214646 0.324524 0.053065 0.148101
H6    H     H_    0.785368 0.824304 0.946492 0.147898
H7    H     H_    0.180657 0.240639 0.929498 0.181303
H8    H     H_    0.819336 0.740826 0.070105 0.181223
H9    H     H_    0.321587 0.309300 0.034872 0.141837
H10   H     H_    0.678427 0.809243 0.964677 0.141677
C21   C     C_R   0.926419 0.886572 0.723699 -0.030062
C22   C     C_R   0.073513 0.387131 0.276373 -0.030760
C23   C     C_R   0.569872 0.851406 0.276996 -0.030162
C24   C     C_R   0.430142 0.350691 0.722975 -0.030767
C25   C     C_R   0.936415 0.922667 0.566880 -0.164879
C26   C     C_R   0.063879 0.431814 0.432924 -0.164862
C27   C     C_R   0.964597 0.914997 0.663234 -0.177001
C28   C     C_R   0.035602 0.421597 0.336654 -0.176489
C29   C     C_R   0.859822 0.866360 0.687962 -0.211105
C30   C     C_R   0.139959 0.363321 0.312259 -0.211278
C31   C     C_R   0.829589 0.877402 0.590285 0.082642
C32   C     C_R   0.170331 0.377247 0.409825 0.082523
C33   C     C_R   0.869520 0.905657 0.530083 0.141136
C34   C     C_R   0.130657 0.411704 0.469812 0.140985
C35   C     C_R   0.761396 0.863950 0.550615 0.055944
C36   C     C_R   0.238454 0.361276 0.449543 0.055963
C37   C     C_R   0.734484 0.879130 0.451158 0.071212
C38   C     C_R   0.265557 0.380328 0.548811 0.071184
C39   C     C_R   0.776661 0.906975 0.394802 -0.188744
C40   C     C_R   0.223626 0.414272 0.604956 -0.188654
C41   C     C_R   0.842590 0.919269 0.433613 -0.206925
C42   C     C_R   0.157754 0.428818 0.566116 -0.206831
C43   C     C_R   0.719215 0.836389 0.606973 -0.183424
C44   C     C_R   0.280387 0.327614 0.393391 -0.183438
C45   C     C_R   0.653289 0.822777 0.567928 -0.194672
C46   C     C_R   0.346252 0.312072 0.432440 -0.194789
C47   C     C_R   0.626428 0.835180 0.471300 0.102156
C48   C     C_R   0.373290 0.328285 0.528888 0.102128
C49   C     C_R   0.666319 0.864622 0.411397 0.087630
C50   C     C_R   0.333658 0.363568 0.588603 0.087542
C51   C     C_R   0.559643 0.816342 0.434302 -0.178229
C52   C     C_R   0.439977 0.307118 0.565916 -0.178196
C53   C     C_R   0.530855 0.822515 0.337516 0.153759
C54   C     C_R   0.468899 0.316298 0.662596 0.153993
C55   C     C_R   0.636257 0.875320 0.313841 -0.263403
C56   C     C_R   0.363879 0.377241 0.686042 -0.263541
H11   H     H_    0.872868 0.941055 0.387367 0.122446
H12   H     H_    0.127667 0.455429 0.612178 0.122479
H13   H     H_    0.622975 0.800750 0.614105 0.120457
H14   H     H_    0.376371 0.285361 0.386426 0.120405
H15   H     H_    0.966903 0.944904 0.521011 0.117957
H16   H     H_    0.033592 0.458914 0.478612 0.118008
H17   H     H_    0.016115 0.932643 0.690760 0.104954
H18   H     H_    0.984232 0.442297 0.309015 0.105229
H19   H     H_    0.833283 0.847037 0.738768 0.093678
H20   H     H_    0.166338 0.339736 0.261591 0.094111
H21   H     H_    0.760555 0.920638 0.319792 0.122090
H22   H     H_    0.239902 0.431342 0.679799 0.121826
H23   H     H_    0.735394 0.823768 0.682123 0.120639
H24   H     H_    0.264049 0.311521 0.318413 0.120652
H25   H     H_    0.529685 0.794187 0.481029 0.126131
H26   H     H_    0.469733 0.280469 0.519329 0.126155
O11   O     O_R   0.036080 0.231270 0.130120 -0.538149
O12   O     O_R   0.963920 0.731270 0.869880 -0.538103
O13   O     O_R   0.911300 0.558970 0.006750 -0.541691
O14   O     O_R   0.088700 0.058970 0.993250 -0.541675
C57   C     C_R   0.884905 0.389921 0.001581 0.687339
C58   C     C_R   0.115087 0.889944 0.998369 0.687221
O15   O     O_R   0.032450 0.561140 0.138040 -0.538494
O16   O     O_R   0.967550 0.061140 0.861960 -0.538496
O17   O     O_R   0.085870 0.728910 0.002130 -0.540937
O18   O     O_R   0.914130 0.228910 0.997870 -0.540995
C59   C     C_R   0.044938 0.392797 0.174914 0.691860
C60   C     C_R   0.955060 0.892717 0.825105 0.691852
O19   O     O_3   0.017320 0.394650 0.955270 -0.374903
O20   O     O_3   0.982680 0.894650 0.044730 -0.374972
V3    V     V_3+5 0.996780 0.670490 0.008300 1.408434
V4    V     V_3+5 0.003220 0.170490 0.991700 1.408436
C61   C     C_3   0.288615 0.213896 0.884654 -0.747806
H27   H     H_    0.263763 0.088939 0.845842 0.219136
H28   H     H_    0.264064 0.340865 0.848228 0.183480
H29   H     H_    0.338955 0.215995 0.880999 0.215841
C62   C     C_3   0.711375 0.714196 0.114918 -0.748975
H30   H     H_    0.736145 0.589227 0.153761 0.219159
H31   H     H_    0.736010 0.841128 0.151314 0.183395
H32   H     H_    0.661030 0.716568 0.118534 0.215947
H33   H     H_    0.663001 0.897965 0.263696 0.106429
H34   H     H_    0.337301 0.403465 0.736090 0.106682
C63   C     C_3   0.458944 0.798306 0.302444 -0.788630
H35   H     H_    0.440318 0.810582 0.225138 0.189478
H36   H     H_    0.445392 0.657507 0.323395 0.211171
H37   H     H_    0.435001 0.908106 0.334116 0.205785
C64   C     C_3   0.540672 0.288962 0.697727 -0.788026
H38   H     H_    0.559497 0.304564 0.774861 0.189634
H39   H     H_    0.553366 0.146022 0.678269 0.210157
H40   H     H_    0.565172 0.395096 0.664771 0.206611

loop_
_geom_bond_atom_site_label_1
_geom_bond_atom_site_label_2
_ccdc_geom_bond_type
C44   C46   A    
O14   V4    S    
C2    C23   S    
C51   C53   A    
C52   H26   S    
C20   H10   S    
C61   H27   S    
O1    C3    A    
C51   H25   S    
O2    C4    A    
C2    O7    A    
C24   C54   A    
O3    V1    S    
C25   C27   A    
C41   H11   S    
C22   C59   S    
O5    C3    A    
C17   H7    S    
C52   C54   A    
C18   H8    S    
C7    C9    A    
C35   C37   A    
C38   C50   A    
C36   C38   A    
C62   H30   S    
O20   V3    S    
C38   C40   A    
C47   C49   A    
C63   H37   S    
C50   C56   A    
O11   C59   A    
C17   C19   S    
C36   C44   A    
C39   H21   S    
C62   H31   S    
C33   C41   A    
C48   C52   A    
C64   H40   S    
C40   C42   A    
C15   C17   S    
C47   C51   A    
C25   H15   S    
C14   C16   A    
C18   C20   S    
C26   C34   A    
C22   C30   A    
O5    V1    S    
C57   O18   A    
O6    V2    S    
C53   C63   S    
C11   C13   A    
C54   C64   S    
C42   H12   S    
O13   C57   A    
C30   C32   A    
C31   C33   A    
O15   C59   A    
C32   C34   A    
C3    C8    S    
C37   C39   A    
O12   C60   A    
C27   H17   S    
C30   H20   S    
O4    C2    A    
C29   H19   S    
C24   C56   A    
C31   C35   A    
C21   C27   A    
C44   H24   S    
C43   C45   A    
C14   C57   S    
C58   O17   A    
C17   H5    S    
C26   H16   S    
C29   C31   A    
C21   C60   S    
C16   C18   S    
O4    V2    S    
C56   H34   S    
O13   V3    S    
O6    C4    A    
C62   H32   S    
C34   C42   A    
C61   H28   S    
O1    V2    S    
O2    V1    S    
C63   H35   S    
O12   V3    S    
C8    C10   A    
C45   H13   S    
O14   C58   A    
C9    H1    S    
C64   H38   S    
C5    C15   A    
O19   V4    S    
C10   H2    S    
O16   V4    S    
C6    C16   A    
O3    C1    A    
C49   C55   A    
C19   C61   S    
C25   C33   A    
C32   C36   A    
C22   C28   A    
C43   H23   S    
C9    C11   A    
C13   C58   S    
C18   H6    S    
C39   C41   A    
C35   C43   A    
C55   H33   S    
O11   V4    S    
C48   C50   A    
C12   C14   A    
C11   H3    S    
C1    C24   S    
C12   H4    S    
C23   C53   A    
O17   V3    S    
C46   H14   S    
O7    V1    S    
C1    O8    A    
C13   C15   A    
O8    V2    S    
O18   V4    S    
C21   C29   A    
O19   V3    S    
C6    C20   S    
C40   H22   S    
C4    C7    S    
C26   C28   A    
C5    C7    A    
O20   V4    S    
O16   C60   A    
C61   H29   S    
C6    C8    A    
C19   H9    S    
C63   H36   S    
C28   H18   S    
C46   C48   A    
C10   C12   A    
O9    V2    S    
C64   H39   S    
O10   V1    S    
C23   C55   A    
C5    C19   S    
C45   C47   A    
C20   C62   S    
O15   V3    S    
C37   C49   A    
