data_mof_unit_41541.cif
_audit_creation_date              2012-12-10T18:03:18-0500
_audit_creation_method            fapswitch 2.2
_symmetry_space_group_name_H-M    P1
_symmetry_Int_Tables_number       1
_space_group_crystal_system       triclinic
_cell_length_a                    10.824883
_cell_length_b                    9.514623
_cell_length_c                    15.093559
_cell_angle_alpha                 89.9985
_cell_angle_beta                  90.071474
_cell_angle_gamma                 89.999387
_cell_volume                      1554.55508062

loop_
_atom_site_label
_atom_site_type_symbol
_atom_type_description
_atom_site_fract_x
_atom_site_fract_y
_atom_site_fract_z
_atom_type_partial_charge
C1    C     C_R   0.262049 0.499997 0.499978 0.767534
C2    C     C_R   0.737951 0.499996 0.500022 0.767437
C3    C     C_R   0.499161 0.499921 0.329891 0.844450
C4    C     C_R   0.500840 0.499919 0.670108 0.844341
C5    C     C_R   0.433672 0.074450 0.438381 -0.003723
C6    C     C_R   0.565935 0.925646 0.561787 -0.020521
C7    C     C_R   0.566330 0.074442 0.561618 -0.003797
C8    C     C_R   0.434069 0.925654 0.438211 -0.020529
C9    C     C_R   0.063852 0.372297 0.499524 -0.202836
C10   C     C_R   0.936151 0.627661 0.499563 -0.194867
C11   C     C_R   0.936150 0.372296 0.500417 -0.202873
C12   C     C_R   0.063846 0.627661 0.500504 -0.195013
C13   C     C_R   0.433723 0.603546 0.093950 -0.249101
C14   C     C_R   0.435147 0.396954 0.906024 -0.250359
C15   C     C_R   0.566403 0.603473 0.906035 -0.248926
C16   C     C_R   0.564819 0.396894 0.093979 -0.250354
C17   C     C_R   0.429372 0.601060 0.186303 0.386156
C18   C     C_R   0.432806 0.397424 0.813677 0.377757
C19   C     C_R   0.570736 0.600987 0.813685 0.386122
C20   C     C_R   0.567145 0.397360 0.186327 0.377688
C21   C     C_R   0.498740 0.499619 0.233075 -0.251732
C22   C     C_R   0.501284 0.499612 0.766921 -0.251784
C23   C     C_R   0.500050 0.500926 0.048145 0.008747
C24   C     C_R   0.500004 0.500920 0.951849 0.008679
C25   C     C_R   0.871779 0.499982 0.500001 -0.010686
C26   C     C_R   0.128220 0.499983 0.500001 -0.010664
Cu1   Cu    Cu3+1 0.500000 0.640660 0.500000 0.965575
Cu2   Cu    Cu3+1 0.500000 0.359340 0.500000 0.962260
H1    H     H_    0.380336 0.130485 0.389092 0.128861
H2    H     H_    0.618240 0.869718 0.611478 0.163213
H3    H     H_    0.619668 0.130472 0.610905 0.128845
H4    H     H_    0.381771 0.869734 0.388517 0.163266
H5    H     H_    0.382156 0.682835 0.057977 0.165695
H6    H     H_    0.384587 0.316894 0.941963 0.165344
H7    H     H_    0.618038 0.682710 0.942001 0.165736
H8    H     H_    0.615316 0.316777 0.058047 0.165345
H9    H     H_    0.111836 0.272433 0.498803 0.149433
H10   H     H_    0.888168 0.727526 0.498799 0.149370
H11   H     H_    0.888168 0.272431 0.501089 0.149451
H12   H     H_    0.111826 0.727526 0.501322 0.149354
N1    N     N_R   0.500000 0.852070 0.500000 -0.169094
N2    N     N_R   0.500000 0.147930 0.500000 -0.163501
O1    O     O_R   0.319640 0.618740 0.499990 -0.590904
O2    O     O_R   0.680360 0.381260 0.500010 -0.595446
O3    O     O_R   0.680360 0.618740 0.500010 -0.590861
O4    O     O_R   0.319640 0.381260 0.499990 -0.595406
O5    O     O_R   0.499990 0.618780 0.371460 -0.551349
O6    O     O_R   0.500010 0.381220 0.628540 -0.550406
O7    O     O_R   0.500010 0.618780 0.628540 -0.551408
O8    O     O_R   0.499990 0.381220 0.371460 -0.550397
O9    O     O_3   0.356727 0.698041 0.230319 -0.567338
C27   C     C_3   0.236487 0.641654 0.238543 0.075505
H13   H     H_    0.237326 0.546377 0.281484 0.126718
H14   H     H_    0.197069 0.613954 0.172520 0.133546
C28   C     C_3   0.152022 0.750250 0.280828 -0.798796
H15   H     H_    0.148937 0.846696 0.239441 0.244907
H16   H     H_    0.057149 0.706849 0.286820 0.204138
H17   H     H_    0.186124 0.777726 0.347899 0.237588
O10   O     O_3   0.367956 0.293524 0.769652 -0.553913
C29   C     C_3   0.246067 0.341092 0.755239 0.089860
H18   H     H_    0.245231 0.438186 0.713914 0.123696
H19   H     H_    0.198500 0.362349 0.819298 0.127210
C30   C     C_3   0.174152 0.227883 0.706227 -0.769767
H20   H     H_    0.169323 0.131007 0.747123 0.242202
H21   H     H_    0.078833 0.265243 0.692497 0.193399
H22   H     H_    0.220442 0.202998 0.642506 0.258949
O11   O     O_3   0.643438 0.697915 0.769670 -0.567360
C31   C     C_3   0.763567 0.641296 0.761246 0.075585
H23   H     H_    0.762502 0.546303 0.718064 0.126741
H24   H     H_    0.803010 0.613064 0.827175 0.133436
C32   C     C_3   0.848191 0.749970 0.719199 -0.798661
H25   H     H_    0.851573 0.846089 0.760873 0.244873
H26   H     H_    0.942954 0.706339 0.712981 0.204139
H27   H     H_    0.814020 0.778062 0.652246 0.237540
O12   O     O_3   0.631888 0.293377 0.230359 -0.553909
C33   C     C_3   0.753823 0.340783 0.244773 0.089910
H28   H     H_    0.754756 0.437905 0.286067 0.123688
H29   H     H_    0.801427 0.361922 0.180713 0.127213
C34   C     C_3   0.825601 0.227506 0.293832 -0.769754
H30   H     H_    0.830325 0.130589 0.252971 0.242220
H31   H     H_    0.920959 0.264734 0.307557 0.193359
H32   H     H_    0.779271 0.202743 0.357558 0.258956

loop_
_geom_bond_atom_site_label_1
_geom_bond_atom_site_label_2
_ccdc_geom_bond_type
C5    N2    A    
C30   H21   S    
C14   C18   A    
C33   C34   S    
C28   H15   S    
C17   O9    S    
C15   C19   A    
Cu2   O4    S    
C29   C30   S    
C33   H29   S    
C1    O4    A    
C11   C25   A    
C14   C24   A    
C13   C23   A    
C29   H19   S    
C7    N2    A    
Cu2   N2    S    
C32   H27   S    
Cu2   O8    S    
C1    O1    A    
C2    O2    A    
C31   H23   S    
C6    N1    A    
C23   C24   S    
C19   O11   S    
C27   C28   S    
Cu1   O3    S    
C30   H22   S    
O10   C29   S    
O11   C31   S    
C15   H7    S    
C3    O8    A    
C27   H14   S    
C9    C26   A    
C5    H1    S    
C2    O3    A    
C7    H3    S    
O9    C27   S    
C8    H4    S    
C19   C22   A    
C33   H28   S    
C34   H31   S    
Cu2   O2    S    
C17   C21   A    
C30   H20   S    
C20   O12   S    
C12   C26   A    
C29   H18   S    
C12   H12   S    
O12   C33   S    
C13   H5    S    
C5    C8    A    
C4    C22   S    
Cu1   N1    S    
C16   C20   A    
C9    H9    S    
C8    N1    A    
C11   H11   S    
C9    C11   A    
C10   C12   A    
C10   C25   A    
C15   C24   A    
C6    H2    S    
C16   C23   A    
C28   H16   S    
C1    C26   S    
C3    C21   S    
C27   H13   S    
C32   H26   S    
C4    O6    A    
Cu1   O5    S    
Cu2   O6    S    
C18   C22   A    
C14   H6    S    
C34   H32   S    
C6    C7    A    
C13   C17   A    
C4    O7    A    
C10   H10   S    
C32   H25   S    
C16   H8    S    
C31   C32   S    
C3    O5    A    
C2    C25   S    
C34   H30   S    
Cu1   O1    S    
C18   O10   S    
C20   C21   A    
C31   H24   S    
C28   H17   S    
Cu1   Cu2   S    
Cu1   O7    S    
