data_mof_unit_9168.cif
_audit_creation_date              2013-03-05T16:21:02-0500
_audit_creation_method            fapswitch 2.2
_symmetry_space_group_name_H-M    P1
_symmetry_Int_Tables_number       1
_space_group_crystal_system       triclinic
_cell_length_a                    8.311154
_cell_length_b                    18.877765
_cell_length_c                    19.254226
_cell_angle_alpha                 104.958064
_cell_angle_beta                  92.064144
_cell_angle_gamma                 92.397119
_cell_volume                      2912.56242927

loop_
_atom_site_label
_atom_site_type_symbol
_atom_site_description
_atom_site_fract_x
_atom_site_fract_y
_atom_site_fract_z
_atom_type_partial_charge
P1    P     P_3+3 0.941030 0.670050 0.569830 0.455047
O1    O     O_2   0.114280 0.679350 0.549180 -0.365273
O2    O     O_3   0.866400 0.589600 0.543550 -0.401978
O3    O     O_3   0.362150 0.623490 0.415650 -0.394379
O4    O     O_2   0.255786 0.752532 0.485182 -0.414820
O5    O     O_3   0.962743 0.693256 0.664026 -0.560036
O6    O     O_3   0.328727 0.750937 0.358129 -0.596958
H1    H     H_    0.525306 0.692196 0.310985 -0.125417
C1    C     C_3   0.305376 0.668287 0.242539 -0.859878
H2    H     H_    0.287185 0.616837 0.259404 0.230361
H3    H     H_    0.188024 0.692981 0.238185 0.294976
P2    P     P_3+3 0.370400 0.428500 0.331430 0.583832
P3    P     P_3+3 0.884994 0.603843 0.295426 0.496166
O7    O     O_2   0.197490 0.449210 0.322030 -0.347343
O8    O     O_3   0.950520 0.583920 0.376610 -0.331756
O9    O     O_2   0.008869 0.567359 0.242185 -0.376940
O10   O     O_3   0.360313 0.333413 0.301007 -0.495313
O11   O     O_3   0.914443 0.695910 0.294089 -0.517964
C2    C     C_3   0.933201 0.740184 0.364514 0.408518
H4    H     H_    0.020216 0.717929 0.397261 0.161370
H5    H     H_    0.814732 0.744140 0.388630 0.036569
C3    C     C_3   0.996328 0.816901 0.363375 -0.751584
H6    H     H_    0.053389 0.845915 0.416610 0.195501
H7    H     H_    0.087337 0.813831 0.322199 0.305868
C4    C     C_3   0.916215 0.246053 0.300922 0.099869
H8    H     H_    0.018245 0.266660 0.275521 0.176388
H9    H     H_    0.964233 0.213046 0.336031 0.019219
C5    C     C_3   0.803451 0.195804 0.242100 0.060685
H10   H     H_    0.815274 0.138113 0.244548 0.162240
H11   H     H_    0.676331 0.209463 0.251576 0.167762
Ba1   Ba    Ba6+2 0.155460 0.532000 0.467920 1.628994
C6    C     C_3   0.996333 0.630880 0.687434 0.438141
H12   H     H_    0.110622 0.609161 0.665682 0.081110
H13   H     H_    0.898327 0.587609 0.670176 0.137705
C7    C     C_3   0.010780 0.652123 0.769284 -0.964547
H14   H     H_    0.117362 0.690603 0.788555 0.278187
H15   H     H_    0.024107 0.602552 0.789337 0.216767
H16   H     H_    0.900411 0.678911 0.791381 0.271311
C8    C     C_3   0.316508 0.301655 0.355626 0.179744
H17   H     H_    0.190528 0.312740 0.368934 0.016026
H18   H     H_    0.393949 0.323716 0.405470 0.101706
C9    C     C_3   0.339373 0.219364 0.330537 0.112700
H19   H     H_    0.271412 0.192146 0.365901 0.062986
H20   H     H_    0.469224 0.211433 0.338653 0.100401
P4    P     P_3+3 0.869270 0.329940 0.430110 0.568740
O12   O     O_2   0.696020 0.320600 0.450800 -0.350580
O13   O     O_3   0.943900 0.410390 0.456390 -0.314372
O14   O     O_3   0.448150 0.376500 0.584290 -0.362041
O15   O     O_3   0.835433 0.307663 0.336988 -0.465629
P5    P     P_3+3 0.884525 0.411617 0.711535 0.487931
O16   O     O_3   0.365880 0.544470 0.588730 -0.407037
O17   O     O_3   0.859790 0.416060 0.623340 -0.365786
O18   O     O_2   0.765724 0.466582 0.752146 -0.392202
O19   O     O_3   0.809872 0.324638 0.714892 -0.427953
Ba2   Ba    Ba6+2 0.654730 0.467990 0.532020 1.623064
P6    P     P_3+3 0.385330 0.719757 0.433232 0.401287
C10   C     C_3   0.418428 0.720890 0.298134 1.033886
H21   H     H_    0.354217 0.655670 0.188215 0.225555
O20   O     O_3   0.444420 0.455520 0.411210 -0.374669
C11   C     C_3   0.500097 0.698482 0.653482 0.408664
H22   H     H_    0.623449 0.680013 0.641277 0.095005
H23   H     H_    0.419679 0.681465 0.604010 0.124002
C12   C     C_3   0.508326 0.781908 0.678422 -0.909511
H24   H     H_    0.590130 0.800939 0.727216 0.278797
H25   H     H_    0.554776 0.805569 0.635515 0.222576
H26   H     H_    0.386144 0.801744 0.691137 0.256884
P7    P     P_3+3 0.432048 0.574138 0.680054 0.432179
O21   O     O_2   0.612810 0.550740 0.677950 -0.373467
O22   O     O_3   0.439367 0.670138 0.708461 -0.560012
H27   H     H_    0.897128 0.849472 0.350647 0.270577
C13   C     C_3   0.928221 0.274254 0.690553 0.372313
H28   H     H_    0.980816 0.281651 0.640384 0.053267
H29   H     H_    0.024354 0.280411 0.733540 0.032930
C14   C     C_3   0.853611 0.196450 0.674107 -0.700032
H30   H     H_    0.761623 0.187157 0.628945 0.265074
H31   H     H_    0.948893 0.156647 0.658869 0.180626
H32   H     H_    0.796592 0.186834 0.722224 0.303847
P8    P     P_3+3 0.430460 0.282414 0.574464 0.463522
C15   C     C_3   0.391018 0.311763 0.710778 0.381688
H33   H     H_    0.264920 0.314173 0.690899 -0.108149
O23   O     O_2   0.566993 0.248000 0.527118 -0.402905
O24   O     O_3   0.480334 0.266429 0.658095 -0.489420
H34   H     H_    0.447900 0.368349 0.726497 0.126541
H35   H     H_    0.299693 0.311024 0.815018 0.055403
C16   C     C_3   0.384585 0.280682 0.776651 -0.075082
H36   H     H_    0.338015 0.222438 0.759471 0.162070
C17   C     C_R   0.994733 0.959659 0.546593 0.010355
C18   C     C_R   0.090600 0.915128 0.577857 0.053156
C19   C     C_R   0.245015 0.941801 0.606573 -0.277157
C20   C     C_R   0.306244 0.011810 0.604597 0.334648
C21   C     C_R   0.212199 0.055826 0.570607 -0.061776
C22   C     C_R   0.055315 0.029981 0.542368 -0.000364
C23   C     C_R   0.272091 0.124205 0.563056 -0.192446
C24   C     C_R   0.175832 0.170101 0.533327 -0.038154
C25   C     C_R   0.019537 0.144070 0.503829 0.038424
C26   C     C_R   0.960158 0.073553 0.508471 0.042359
C27   C     C_R   0.231166 0.241956 0.533576 0.160742
C28   C     C_R   0.131324 0.287046 0.505371 -0.509797
C29   C     C_R   0.979586 0.262152 0.471734 0.152338
C30   C     C_R   0.923250 0.187984 0.469634 -0.030354
C31   C     C_R   0.838745 0.933479 0.518921 0.054682
C32   C     C_R   0.781490 0.861217 0.518728 0.013236
C33   C     C_R   0.881911 0.814202 0.545805 -0.073587
C34   C     C_R   0.032476 0.844051 0.579164 -0.090262
H37   H     H_    0.318186 0.908265 0.631710 0.177556
H38   H     H_    0.175085 0.342469 0.507802 0.167881
H39   H     H_    0.395857 0.141077 0.579415 0.209216
H40   H     H_    0.107922 0.811936 0.604745 0.172737
C35   C     C_R   0.775689 0.155531 0.434516 -0.104688
C36   C     C_R   0.714215 0.086063 0.440376 -0.025943
C37   C     C_R   0.804854 0.046586 0.479899 -0.019743
C38   C     C_R   0.742814 0.977869 0.487481 0.060290
C39   C     C_R   0.562981 0.054439 0.407778 0.322192
C40   C     C_R   0.494546 0.992417 0.424750 -0.254597
C41   C     C_R   0.585129 0.952609 0.461915 0.091647
C42   C     C_R   0.625251 0.835350 0.488965 -0.017807
C43   C     C_R   0.524657 0.883931 0.466503 -0.100828
C44   C     C_R   0.577254 0.760669 0.479037 0.187661
C45   C     C_R   0.679017 0.713777 0.502006 -0.548701
C46   C     C_R   0.828630 0.738847 0.536342 0.228811
H41   H     H_    0.704836 0.185378 0.404767 0.149195
H42   H     H_    0.377194 0.969694 0.400987 0.193086
H43   H     H_    0.401482 0.867418 0.447659 0.174999
H44   H     H_    0.639440 0.656741 0.494008 0.184986
C47   C     C_R   0.339328 0.542219 0.810753 -0.313545
H45   H     H_    0.418345 0.589032 0.837450 0.155462
C48   C     C_R   0.312277 0.527598 0.735827 0.285690
C49   C     C_R   0.156861 0.439188 0.810383 -0.347110
H46   H     H_    0.106609 0.396817 0.832804 0.150276
C50   C     C_R   0.094467 0.442118 0.742926 0.187290
C51   C     C_R   0.601155 0.573328 0.198924 -0.403764
H47   H     H_    0.635742 0.622021 0.182305 0.211115
C52   C     C_R   0.685910 0.559448 0.258127 0.143219
C53   C     C_R   0.418888 0.469078 0.196239 -0.283603
H48   H     H_    0.332814 0.424506 0.171292 0.168000
C54   C     C_R   0.471316 0.475596 0.268071 0.177542
C55   C     C_R   0.273706 0.493384 0.849207 0.116512
C56   C     C_R   0.184035 0.479623 0.702832 -0.417378
H49   H     H_    0.147318 0.475509 0.647390 0.148753
C57   C     C_R   0.482616 0.519906 0.158521 0.084293
C58   C     C_R   0.628204 0.501860 0.283618 0.206473
C59   C     C_R   0.049937 0.466821 0.959069 -0.189060
C60   C     C_R   0.947554 0.441179 0.003342 -0.075090
C61   C     C_R   0.992991 0.452148 0.074791 -0.065178
C62   C     C_R   0.144085 0.484485 0.100043 -0.147220
C63   C     C_R   0.264647 0.495123 0.053284 0.058429
C64   C     C_R   0.214648 0.486790 0.979280 0.098764
C65   C     C_R   0.427679 0.517170 0.079954 -0.027006
C66   C     C_R   0.537495 0.533623 0.029280 0.096489
C67   C     C_R   0.488601 0.520987 0.954513 0.078978
C68   C     C_R   0.325962 0.499725 0.928420 -0.044872
C69   C     C_R   0.699342 0.560932 0.049297 -0.157720
C70   C     C_R   0.796872 0.585878 0.002453 -0.068720
C71   C     C_R   0.753576 0.567195 0.930007 -0.138595
C72   C     C_R   0.608885 0.527968 0.906279 -0.099346
H50   H     H_    0.992306 0.474209 0.911053 0.152694
H51   H     H_    0.825437 0.421463 0.984413 0.177005
H52   H     H_    0.905825 0.440916 0.111285 0.192890
H53   H     H_    0.163502 0.501763 0.156740 0.193773
H54   H     H_    0.761650 0.559499 0.098265 0.151392
H55   H     H_    0.916081 0.610491 0.020742 0.148885
H56   H     H_    0.837699 0.577743 0.891747 0.143521
H57   H     H_    0.592192 0.503742 0.849588 0.188809
N1    N     N_R   0.842704 0.201593 0.170331 0.284323
O25   O     O_R   0.821168 0.262025 0.151537 -0.326180
O26   O     O_R   0.888103 0.144412 0.122879 -0.246984
S1    S     S_3+6 0.280060 0.175908 0.237037 0.074097
O27   O     O_2   0.140285 0.122093 0.234393 -0.207688
O28   O     O_2   0.416473 0.133935 0.200398 -0.187457
O29   O     O_3   0.226792 0.235704 0.189831 -0.485856
H58   H     H_    0.326112 0.247560 0.167223 0.386668
S2    S     S_3+6 0.488805 0.793548 0.260990 -0.016407
O30   O     O_2   0.607601 0.843751 0.313326 -0.334223
O31   O     O_2   0.569859 0.762463 0.191977 -0.271553
O32   O     O_3   0.332092 0.841366 0.244561 -0.504767
H59   H     H_    0.381170 0.887390 0.237075 0.413763
N2    N     N_R   0.542781 0.286326 0.813548 0.298329
O33   O     O_R   0.604017 0.228042 0.825455 -0.305161
O34   O     O_R   0.611683 0.350546 0.843989 -0.392201
N3    N     N_R   0.461613 0.037671 0.639430 0.232530
O35   O     O_R   0.479695 0.102526 0.684027 -0.378187
O36   O     O_R   0.573798 0.991553 0.639140 -0.406036
N4    N     N_R   0.491669 0.075214 0.347898 0.219438
O37   O     O_R   0.585012 0.083952 0.297770 -0.394427
O38   O     O_R   0.338670 0.059935 0.331321 -0.365763
S3    S     S_3+6 0.757336 0.433866 0.285993 0.034178
O39   O     O_2   0.805238 0.450166 0.363541 -0.209021
O40   O     O_2   0.665923 0.360897 0.259136 -0.279740
O41   O     O_3   0.919703 0.433647 0.236904 -0.513194
H60   H     H_    0.964752 0.385061 0.232482 0.385939

loop_
_geom_bond_atom_site_label_1
_geom_bond_atom_site_label_2
_geom_bond_distance
_ccdc_geom_bond_type
O14   Ba2   2.778016 S    
O5    C6    1.400001 S    
C17   C18   1.409469 A    
C12   H25   1.109100 S    
C23   C24   1.413986 A    
Ba2   O20   2.812724 S    
C41   C43   1.396089 A    
O4    P6    1.535048 D    
C25   C26   1.425929 A    
C22   C26   1.422120 A    
O7    Ba1   2.881867 S    
C49   C55   1.420702 A    
C49   H46   1.078829 S    
C57   C65   1.551609 S    
C15   O24   1.404145 S    
C69   H54   1.066311 S    
C62   C63   1.412947 A    
C8    H18   1.111524 S    
P4    O12   1.522978 D    
N3    O35   1.300572 A    
C31   C38   1.409729 A    
P5    O19   1.748612 S    
C14   H31   1.109274 S    
P3    O11   1.751931 S    
C11   C12   1.521115 S    
C5    H10   1.110448 S    
C2    H5    1.100831 S    
C1    H21   1.107074 S    
N4    O38   1.301768 A    
C53   C57   1.439979 A    
C62   H53   1.059822 S    
O29   H58   0.990808 S    
Ba1   O20   2.951189 S    
C60   C61   1.373670 A    
C27   C28   1.404727 A    
P1    Ba1   3.437818 S    
C42   C43   1.403559 A    
C11   H23   1.111519 S    
P1    O1    1.522620 D    
O10   C8    1.390216 S    
O14   P8    1.736301 S    
C44   C45   1.390074 A    
C51   C57   1.431608 A    
P5    C50   1.844378 S    
C32   C33   1.423245 A    
C17   C31   1.403425 A    
P2    O20   1.580963 S    
O2    Ba2   2.790240 S    
O19   C13   1.404691 S    
C2    H4    1.107433 S    
N3    O36   1.301189 A    
N2    O34   1.300823 A    
C14   H32   1.107737 S    
C45   H44   1.082748 S    
O12   Ba2   2.859611 S    
P5    O17   1.727060 S    
C48   C56   1.390429 A    
C8    C9    1.525354 S    
C33   C34   1.411476 A    
C1    H2    1.107121 S    
O1    Ba1   2.859049 S    
O16   Ba2   2.950414 S    
C21   C22   1.411585 A    
O17   Ba2   2.787638 S    
C10   S2    1.790079 S    
C18   C19   1.399073 A    
C12   H26   1.110735 S    
C30   C35   1.414268 A    
S1    O27   1.501492 D    
Ba1   O13   2.789696 S    
C17   C22   1.423087 A    
O3    P6    1.761456 S    
O6    C10   1.403961 S    
C24   C25   1.414507 A    
C9    H20   1.106783 S    
O6    P6    1.752817 S    
C18   C34   1.413659 A    
S2    O31   1.502956 D    
C60   H51   1.083132 S    
S1    O29   1.684885 S    
C63   C65   1.437100 A    
P4    O13   1.564977 S    
C26   C37   1.406111 A    
C20   N3    1.439255 S    
P5    O18   1.544498 D    
C14   H30   1.110666 S    
C63   C64   1.436633 A    
C12   H24   1.110529 S    
P7    O21   1.582538 D    
C31   C32   1.424888 A    
C7    H16   1.110873 S    
H35   C16   1.106573 S    
S1    O28   1.501701 D    
P4    C29   1.922271 S    
C66   C69   1.423306 A    
C19   C20   1.406465 A    
C8    H17   1.102593 S    
C13   H29   1.109898 S    
Ba2   O21   2.882128 S    
C25   C30   1.435413 A    
O11   C2    1.396555 S    
C53   C54   1.407883 A    
C24   C27   1.412733 A    
C72   H57   1.070491 S    
C4    H8    1.100060 S    
C16   H36   1.111567 S    
C36   C37   1.414351 A    
C70   H55   1.083243 S    
C11   H22   1.110307 S    
P1    O2    1.564974 S    
P1    C46   1.861597 S    
C6    H13   1.107201 S    
P2    O10   1.735906 S    
C64   C68   1.429778 A    
N4    O37   1.298485 A    
C6    C7    1.521486 S    
C54   C58   1.369967 A    
P7    C48   1.845765 S    
H1    C10   1.112335 S    
C21   C23   1.408383 A    
P8    O24   1.751859 S    
C29   C30   1.447696 A    
P4    O15   1.742202 S    
C2    C3    1.525392 S    
P8    C27   1.853784 S    
O16   P7    1.761866 S    
C65   C66   1.441640 A    
O2    Ba1   2.954258 S    
C1    H3    1.108123 S    
C36   C39   1.420282 A    
C71   C72   1.383656 A    
Ba1   Ba2   4.584998 S    
P2    O7    1.521711 D    
N2    O33   1.300321 A    
C67   C72   1.413622 A    
P3    O8    1.772202 S    
P2    Ba1   3.448864 S    
C47   H45   1.081260 S    
C3    H7    1.107769 S    
C9    H19   1.109375 S    
S3    O40   1.502849 D    
C51   H47   1.079968 S    
C50   C56   1.389560 A    
C34   H40   1.080298 S    
S2    O30   1.498497 D    
C5    N1    1.461283 S    
O13   Ba2   2.955030 S    
C39   C40   1.398681 A    
P7    O22   1.750387 S    
N1    O25   1.299988 A    
C37   C38   1.420281 A    
C7    H15   1.108676 S    
C3    H6    1.108591 S    
P3    C52   1.855693 S    
C59   C64   1.417839 A    
C71   H56   1.082747 S    
Ba1   O16   2.813262 S    
C61   C62   1.387329 A    
C51   C52   1.405719 A    
C49   C50   1.396384 A    
C13   C14   1.520412 S    
C45   C46   1.391863 A    
S2    O32   1.681484 S    
O8    Ba1   2.786801 S    
C53   H48   1.080155 S    
C58   S3    1.715657 S    
C4    H9    1.106024 S    
C52   C58   1.378975 A    
C28   H38   1.082045 S    
C15   C16   1.530430 S    
C47   C55   1.426515 A    
C6    H12   1.103799 S    
S3    O41   1.674727 S    
C5    H11   1.108320 S    
S3    O39   1.480653 D    
C13   H28   1.112917 S    
O32   H59   0.990586 S    
C35   C36   1.420571 A    
C23   H39   1.075280 S    
P6    C44   1.833765 S    
P8    O23   1.539871 D    
C35   H41   1.078142 S    
C20   C21   1.424037 A    
C39   N4    1.427575 S    
C11   O22   1.403541 S    
C40   H42   1.084508 S    
N1    O26   1.300818 A    
C33   C46   1.435462 A    
C42   C44   1.411228 A    
C1    C10   1.521689 S    
C40   C41   1.389135 A    
C43   H43   1.079352 S    
O41   H60   0.989638 S    
C4    O15   1.402741 S    
O3    Ba1   2.778571 S    
C32   C42   1.414883 A    
C56   H49   1.081860 S    
C4    C5    1.534745 S    
C15   H33   1.109508 S    
C15   H34   1.112091 S    
C9    S1    1.815707 S    
C69   C70   1.390084 A    
P4    Ba2   3.438340 S    
C16   N2    1.458301 S    
C28   C29   1.401855 A    
P2    C54   1.885043 S    
P3    O9    1.534945 D    
C19   H37   1.083544 S    
P1    O5    1.753150 S    
C47   C48   1.404939 A    
C59   C60   1.384153 A    
C55   C68   1.543647 S    
C7    H14   1.110577 S    
C59   H50   1.069508 S    
C70   C71   1.377983 A    
C66   C67   1.437673 A    
C61   H52   1.079012 S    
C3    H27   1.106119 S    
C38   C41   1.402608 A    
C67   C68   1.429069 A    
