data_mof_unit_62860.cif
_audit_creation_date              2012-12-10T17:06:01-0500
_audit_creation_method            fapswitch 2.2
_symmetry_space_group_name_H-M    P1
_symmetry_Int_Tables_number       1
_space_group_crystal_system       triclinic
_cell_length_a                    11.549131
_cell_length_b                    10.751832
_cell_length_c                    10.036996
_cell_angle_alpha                 90.034047
_cell_angle_beta                  90.0011
_cell_angle_gamma                 90.077919
_cell_volume                      1246.33574277

loop_
_atom_site_label
_atom_site_type_symbol
_atom_type_description
_atom_site_fract_x
_atom_site_fract_y
_atom_site_fract_z
_atom_type_partial_charge
C1    C     C_R   0.497696 0.262706 0.499808 0.929411
C2    C     C_2   0.514310 0.868754 0.500047 -0.329619
C3    C     C_2   0.506743 0.066915 0.387845 -0.157373
C4    C     C_2   0.487702 0.131121 0.499561 -0.326580
C5    C     C_2   0.563115 0.575009 0.925034 -0.120365
C6    C     C_2   0.558194 0.579489 0.074990 -0.126035
C7    C     C_R   0.281962 0.499999 0.499987 0.904540
C8    C     C_R   0.502775 0.737279 0.499969 0.927505
C9    C     C_R   0.718034 0.499972 0.500011 0.900583
C10   C     C_1   0.161487 0.500025 0.499965 -0.182932
C11   C     C_1   0.059323 0.500043 0.499976 0.003016
C12   C     C_1   0.940665 0.500045 0.500008 0.002775
C13   C     C_1   0.838503 0.500020 0.500026 -0.184260
C14   C     C_2   0.500000 0.933031 0.387526 -0.158939
H1    H     H_    0.483935 0.887370 0.292667 0.173568
H2    H     H_    0.537710 0.911414 0.594157 0.150307
H3    H     H_    0.461577 0.088367 0.592604 0.150604
H4    H     H_    0.441795 0.444583 0.897776 0.164055
H5    H     H_    0.607302 0.652103 0.124519 0.159307
H6    H     H_    0.459437 0.428708 0.102140 0.163094
N1    N     N_2   0.501210 0.501330 0.852150 -0.189671
N2    N     N_2   0.501250 0.501360 0.147810 -0.190825
O1    O     O_R   0.499980 0.319060 0.613040 -0.616856
O2    O     O_R   0.500020 0.319100 0.386900 -0.616579
O3    O     O_R   0.334430 0.499990 0.613070 -0.608622
O4    O     O_R   0.334470 0.500030 0.386930 -0.606046
O5    O     O_R   0.499980 0.680900 0.613100 -0.616860
O6    O     O_R   0.500020 0.680940 0.386960 -0.615174
O7    O     O_R   0.665530 0.499970 0.613070 -0.606885
O8    O     O_R   0.665570 0.500010 0.386930 -0.605819
Zn1   Zn    Zn3+2 0.499980 0.499970 0.650990 0.949824
Zn2   Zn    Zn3+2 0.500020 0.500030 0.349010 0.947592
H7    H     H_    0.526075 0.112722 0.293937 0.173353
H8    H     H_    0.621251 0.639443 0.875547 0.159905

loop_
_geom_bond_atom_site_label_1
_geom_bond_atom_site_label_2
_ccdc_geom_bond_type
O3    Zn1   S    
C7    C10   S    
C11   C12   S    
O2    Zn2   S    
O4    Zn2   S    
H4    N1    S    
C2    H2    S    
C7    O3    A    
C9    O7    A    
C1    C4    S    
C5    H8    S    
C7    O4    A    
O7    Zn1   S    
O8    Zn2   S    
C6    H5    S    
N1    Zn1   S    
C3    C14   S    
N2    Zn2   S    
C9    O8    A    
C2    C14   D    
C4    H3    S    
H6    N2    S    
C1    O1    A    
C5    C6    S    
C8    O6    A    
C10   C11   T    
C3    H7    S    
O5    Zn1   S    
C3    C4    D    
C6    N2    D    
O6    Zn2   S    
C5    N1    D    
C12   C13   T    
C1    O2    A    
C8    O5    A    
C9    C13   S    
C14   H1    S    
C2    C8    S    
O1    Zn1   S    
