data_mof_unit_17666.cif
_audit_creation_date              2013-03-05T16:54:31-0500
_audit_creation_method            fapswitch 2.2
_symmetry_space_group_name_H-M    P1
_symmetry_Int_Tables_number       1
_space_group_crystal_system       triclinic
_cell_length_a                    17.449611
_cell_length_b                    16.857744
_cell_length_c                    10.869028
_cell_angle_alpha                 90.425649
_cell_angle_beta                  92.675993
_cell_angle_gamma                 87.972261
_cell_volume                      3191.70511576

loop_
_atom_site_label
_atom_site_type_symbol
_atom_site_description
_atom_site_fract_x
_atom_site_fract_y
_atom_site_fract_z
_atom_type_partial_charge
O1    O     O_R   0.389110 0.566570 0.499990 -0.609367
O2    O     O_R   0.610890 0.566570 0.500010 -0.596488
O3    O     O_R   0.389090 0.433480 0.499980 -0.572657
O4    O     O_R   0.610910 0.433480 0.500020 -0.613964
C1    C     C_R   0.353083 0.500913 0.498693 0.969233
C2    C     C_R   0.646296 0.499666 0.487069 0.873966
O5    O     O_R   0.500000 0.566560 0.316760 -0.593938
O6    O     O_R   0.500000 0.566560 0.683240 -0.587596
O7    O     O_R   0.499970 0.433470 0.316760 -0.591268
O8    O     O_R   0.500030 0.433470 0.683240 -0.560085
C3    C     C_R   0.507028 0.499744 0.260322 0.910130
C4    C     C_R   0.499399 0.500609 0.740732 0.910131
Zn1   Zn    Zn3+2 0.500000 0.588860 0.500000 1.010338
Zn2   Zn    Zn3+2 0.500000 0.411140 0.500000 1.015675
C5    C     C_R   0.533657 0.647531 0.119379 -0.190996
C6    C     C_R   0.455961 0.642511 0.891768 -0.154503
H1    H     H_    0.569192 0.649672 0.203145 0.195501
H2    H     H_    0.421137 0.641041 0.807020 0.212640
C7    C     C_R   0.509415 0.719096 0.063057 0.258648
C8    C     C_R   0.462738 0.715586 0.953343 0.258016
C9    C     C_R   0.491403 0.572498 0.941744 -0.026405
C10   C     C_R   0.516258 0.573778 0.065130 -0.048515
C11   C     C_R   0.521473 0.500743 0.129045 -0.274656
C12   C     C_R   0.505947 0.501887 0.874185 -0.273169
C13   C     C_R   0.534677 0.429489 0.063052 0.357265
C14   C     C_R   0.538619 0.434217 0.935420 0.389775
C15   C     C_R   0.851687 0.560593 0.463246 0.173144
C16   C     C_R   0.144411 0.519864 0.569697 0.175967
C17   C     C_R   0.771970 0.568113 0.472326 0.363605
C18   C     C_R   0.222862 0.537476 0.570571 0.379823
C19   C     C_R   0.726998 0.500915 0.451583 -0.236242
C20   C     C_R   0.269953 0.499584 0.485508 -0.266423
C21   C     C_R   0.757743 0.438886 0.381121 -0.437779
C22   C     C_R   0.238676 0.449996 0.394180 -0.315097
H3    H     H_    0.719183 0.399211 0.335502 0.148514
H4    H     H_    0.275368 0.421580 0.328275 0.205827
C23   C     C_R   0.837398 0.430582 0.366022 0.491099
C24   C     C_R   0.160689 0.436510 0.386890 0.473958
C25   C     C_R   0.883830 0.488954 0.418819 -0.157853
C26   C     C_R   0.113196 0.473603 0.471998 -0.201430
C27   C     C_1   0.964565 0.475398 0.432419 0.183204
C28   C     C_1   0.032452 0.470736 0.450367 0.148802
C29   C     C_R   0.442300 0.833860 0.429913 0.279434
C30   C     C_R   0.540509 0.831361 0.594005 0.258605
C31   C     C_R   0.448335 0.748973 0.423188 0.442180
C32   C     C_R   0.541651 0.746621 0.590630 0.446700
N1    N     N_R   0.500000 0.707230 0.500000 -0.200168
C33   C     C_R   0.491045 0.875378 0.511804 -0.160129
C34   C     C_1   0.489201 0.963230 0.511818 0.079827
C35   C     C_1   0.489778 0.035944 0.509628 0.148430
C36   C     C_R   0.432493 0.170587 0.454362 0.246528
C37   C     C_R   0.558991 0.161387 0.552619 0.281137
C38   C     C_R   0.438650 0.254555 0.445212 0.389788
C39   C     C_R   0.560658 0.246499 0.550847 0.402703
N2    N     N_R   0.500000 0.292770 0.500000 -0.211080
C40   C     C_R   0.493550 0.123342 0.505742 -0.216185
O9    O     O_3   0.530453 0.356192 0.119435 -0.612817
C41   C     C_3   0.602369 0.315240 0.125288 0.179523
H5    H     H_    0.649047 0.354545 0.158207 0.088503
H6    H     H_    0.614876 0.288538 0.035018 0.220681
C42   C     C_3   0.599409 0.245685 0.212581 -0.952688
H7    H     H_    0.561078 0.200070 0.172440 0.261369
H8    H     H_    0.657741 0.218298 0.229071 0.201606
H9    H     H_    0.576860 0.266409 0.300753 0.243306
O10   O     O_3   0.578303 0.375220 0.872682 -0.586838
C43   C     C_3   0.650316 0.404154 0.840093 0.138894
H10   H     H_    0.666690 0.460791 0.887037 0.083278
H11   H     H_    0.648421 0.415171 0.739581 0.208114
C44   C     C_3   0.714438 0.342768 0.870016 -0.849113
H12   H     H_    0.698710 0.283587 0.833451 0.303828
H13   H     H_    0.768231 0.360872 0.829345 0.222313
H14   H     H_    0.725878 0.338967 0.970766 0.203103
O11   O     O_3   0.367550 0.134344 0.407445 -0.598105
C45   C     C_3   0.310792 0.140432 0.495801 0.137842
H15   H     H_    0.291202 0.203420 0.508520 0.165072
H16   H     H_    0.332590 0.115711 0.586230 0.144848
C46   C     C_3   0.241967 0.093270 0.451583 -0.847459
H17   H     H_    0.259154 0.029517 0.442230 0.282017
H18   H     H_    0.196273 0.099258 0.519137 0.214523
H19   H     H_    0.218808 0.115789 0.361084 0.248270
O12   O     O_3   0.618013 0.116430 0.612557 -0.576703
C47   C     C_3   0.670119 0.083322 0.527365 0.074824
H20   H     H_    0.726052 0.111915 0.543530 0.168984
H21   H     H_    0.650735 0.090684 0.428531 0.116726
C48   C     C_3   0.688017 0.995657 0.550250 -0.758329
H22   H     H_    0.639757 0.960021 0.515701 0.274964
H23   H     H_    0.738799 0.976298 0.498300 0.201073
H24   H     H_    0.701668 0.984554 0.649345 0.283027
O13   O     O_3   0.380769 0.297984 0.382288 -0.593669
C49   C     C_3   0.387021 0.287678 0.253344 0.207170
H25   H     H_    0.432135 0.243205 0.226241 0.150451
H26   H     H_    0.400642 0.345466 0.213441 0.205358
C50   C     C_3   0.310853 0.263387 0.193014 -0.873216
H27   H     H_    0.266732 0.311581 0.202171 0.264390
H28   H     H_    0.317875 0.252008 0.093342 0.227160
H29   H     H_    0.290978 0.208654 0.235229 0.288753
O14   O     O_3   0.625013 0.282231 0.600276 -0.545531
C51   C     C_3   0.682799 0.276716 0.513243 0.161478
H30   H     H_    0.668764 0.317736 0.438579 0.158773
H31   H     H_    0.686733 0.220480 0.462660 0.068717
C52   C     C_3   0.760839 0.292505 0.574575 -0.824108
H32   H     H_    0.773722 0.249803 0.650597 0.253341
H33   H     H_    0.806008 0.284814 0.506509 0.232348
H34   H     H_    0.761559 0.354080 0.611065 0.254798
N3    N     N_R   0.534562 0.792829 0.116719 0.180865
O15   O     O_R   0.570340 0.793643 0.224431 -0.485348
O16   O     O_R   0.526794 0.859006 0.056332 -0.453670
N4    N     N_R   0.422031 0.784275 0.903350 0.202311
O17   O     O_R   0.416931 0.794994 0.784983 -0.482191
O18   O     O_R   0.378584 0.827931 0.972539 -0.420303
N5    N     N_R   0.898832 0.626647 0.495961 0.250848
O19   O     O_R   0.954289 0.645439 0.426860 -0.386648
O20   O     O_R   0.882212 0.672533 0.588507 -0.322209
N6    N     N_R   0.099379 0.544369 0.672010 0.208368
O21   O     O_R   0.129429 0.540346 0.783759 -0.343954
O22   O     O_R   0.029030 0.571397 0.655268 -0.347205
O23   O     O_3   0.738554 0.642227 0.493450 -0.616293
C53   C     C_3   0.732754 0.684384 0.380912 0.138520
H35   H     H_    0.683839 0.662729 0.322483 0.146474
H36   H     H_    0.785861 0.678130 0.327851 0.148454
C54   C     C_3   0.719418 0.772495 0.406485 -0.723264
H37   H     H_    0.764229 0.793901 0.473397 0.264942
H38   H     H_    0.721936 0.806378 0.319641 0.235332
H39   H     H_    0.662138 0.783505 0.444038 0.235092
O24   O     O_3   0.254339 0.590547 0.654733 -0.588731
C55   C     C_3   0.221921 0.667433 0.630469 0.087910
H40   H     H_    0.168081 0.676907 0.679933 0.219621
H41   H     H_    0.209250 0.678616 0.530322 0.104988
C56   C     C_3   0.277727 0.728565 0.676975 -0.702512
H42   H     H_    0.332765 0.719301 0.630709 0.254506
H43   H     H_    0.254005 0.789258 0.656337 0.219123
H44   H     H_    0.287608 0.722302 0.778143 0.289486
O25   O     O_3   0.873013 0.365048 0.310043 -0.602808
C57   C     C_3   0.825461 0.329351 0.218148 0.093969
H45   H     H_    0.795575 0.374794 0.157435 0.134361
H46   H     H_    0.783115 0.291915 0.261490 0.131710
C58   C     C_3   0.874195 0.275633 0.137804 -0.816265
H47   H     H_    0.905374 0.229547 0.195134 0.254900
H48   H     H_    0.836843 0.245872 0.067377 0.210220
H49   H     H_    0.916109 0.311231 0.090260 0.265801
O26   O     O_3   0.131111 0.388417 0.294000 -0.584476
C59   C     C_3   0.125457 0.311142 0.341546 0.094450
H50   H     H_    0.083893 0.310758 0.416249 0.149729
H51   H     H_    0.182355 0.287297 0.378175 0.151319
C60   C     C_3   0.096859 0.256149 0.239252 -0.790265
H52   H     H_    0.138011 0.252978 0.164396 0.256365
H53   H     H_    0.090585 0.195624 0.276261 0.202295
H54   H     H_    0.040357 0.278703 0.200857 0.277282
O27   O     O_3   0.382876 0.875870 0.368201 -0.636086
C61   C     C_3   0.407214 0.900724 0.253770 0.211350
H55   H     H_    0.410813 0.848690 0.192078 0.237861
H56   H     H_    0.463651 0.929785 0.261834 0.176290
C62   C     C_3   0.348210 0.959922 0.197214 -0.774583
H57   H     H_    0.343964 0.013550 0.256437 0.282639
H58   H     H_    0.365837 0.977794 0.104854 0.246649
H59   H     H_    0.291106 0.932887 0.187491 0.253490
O28   O     O_3   0.591232 0.870582 0.672870 -0.652413
C63   C     C_3   0.553352 0.897739 0.777597 0.230848
H60   H     H_    0.547922 0.846950 0.839425 0.232263
H61   H     H_    0.495484 0.925351 0.755061 0.175600
C64   C     C_3   0.601042 0.959502 0.845470 -0.804151
H62   H     H_    0.603975 0.013181 0.787983 0.284509
H63   H     H_    0.573932 0.977438 0.932180 0.254943
H64   H     H_    0.659924 0.934969 0.867764 0.254952
O29   O     O_3   0.408291 0.708002 0.331069 -0.575888
C65   C     C_3   0.327819 0.713517 0.344473 0.111719
H65   H     H_    0.307314 0.763087 0.403939 0.160533
H66   H     H_    0.309086 0.658305 0.385777 0.168799
C66   C     C_3   0.286848 0.720042 0.218054 -0.759371
H67   H     H_    0.306923 0.671021 0.157304 0.265012
H68   H     H_    0.223979 0.716103 0.227234 0.215711
H69   H     H_    0.298067 0.777591 0.175150 0.272618
O30   O     O_3   0.567643 0.704830 0.694637 -0.589989
C67   C     C_3   0.648420 0.702078 0.710402 0.210316
H70   H     H_    0.677532 0.748944 0.660453 0.188538
H71   H     H_    0.669719 0.643108 0.679353 0.208537
C68   C     C_3   0.671468 0.707753 0.846930 -0.851806
H72   H     H_    0.643446 0.661060 0.898620 0.246705
H73   H     H_    0.734681 0.699051 0.860199 0.237190
H74   H     H_    0.654727 0.766793 0.884419 0.268667

loop_
_geom_bond_atom_site_label_1
_geom_bond_atom_site_label_2
_geom_bond_distance
_ccdc_geom_bond_type
C43   H11   1.108278 S    
C50   H27   1.106524 S    
C15   C17   1.400328 A    
C27   C28   1.191445 T    
C39   N2    1.388368 A    
C7    C8    1.414430 A    
C64   H64   1.110673 S    
C57   C58   1.519500 S    
N6    O21   1.301560 A    
C49   H25   1.115877 S    
O27   C61   1.404448 S    
C25   C27   1.420242 S    
C46   H17   1.110745 S    
C5    C7    1.399941 A    
C58   H48   1.110547 S    
O29   C65   1.418205 S    
C45   H16   1.115507 S    
O1    C1    1.291769 A    
O12   C47   1.424994 S    
C12   C14   1.413922 A    
C46   H19   1.110197 S    
C43   C44   1.522390 S    
C16   C26   1.412874 A    
C41   H6    1.104264 S    
C51   H30   1.083755 S    
O14   C51   1.414698 S    
N4    O17   1.298986 A    
C42   H8    1.110083 S    
C36   C40   1.404394 A    
O11   C45   1.412035 S    
C3    C11   1.460821 S    
C44   H13   1.109371 S    
O2    Zn1   1.958032 S    
C53   H35   1.110451 S    
C54   H39   1.106311 S    
C63   C64   1.520977 S    
C64   H63   1.109377 S    
C67   H70   1.112434 S    
C63   H61   1.114295 S    
C5    C10   1.408816 A    
C62   H57   1.108244 S    
N5    O19   1.301532 A    
C30   C32   1.428190 A    
C68   H73   1.110430 S    
C45   C46   1.520990 S    
C19   C21   1.398064 A    
C39   O14   1.378124 S    
C62   H58   1.110401 S    
C29   C33   1.402766 A    
C42   H7    1.110490 S    
C29   O27   1.384493 S    
C6    C8    1.403591 A    
C1    C20   1.451911 S    
C41   C42   1.517603 S    
C38   N2    1.378135 A    
Zn2   N2    1.995451 S    
C18   O24   1.383690 S    
C15   N5    1.440403 S    
C52   H33   1.109578 S    
O30   C67   1.411102 S    
C9    C10   1.390324 A    
C65   H66   1.102793 S    
C30   O28   1.384720 S    
C66   H68   1.110553 S    
C59   C60   1.519959 S    
O2    C2    1.276702 A    
C13   O9    1.389125 S    
C17   C19   1.411555 A    
C60   H53   1.110393 S    
C37   C39   1.436418 A    
C60   H52   1.109803 S    
C53   H36   1.115602 S    
C31   N1    1.377868 A    
C50   H28   1.110438 S    
C58   H49   1.110427 S    
C32   O30   1.386110 S    
C45   H15   1.113547 S    
C48   H23   1.110896 S    
C18   C20   1.401103 A    
C52   H32   1.109740 S    
C43   H10   1.118932 S    
O4    C2    1.305829 A    
O8    Zn2   2.024132 S    
C15   C25   1.405323 A    
Zn1   N1    1.995451 S    
C57   H46   1.111803 S    
C55   C56   1.511012 S    
C41   H5    1.112610 S    
C48   H22   1.101810 S    
C17   O23   1.382167 S    
C61   C62   1.520242 S    
C35   C40   1.478130 S    
O28   C63   1.408282 S    
C36   C38   1.427914 A    
C53   C54   1.520903 S    
C20   C22   1.396917 A    
C63   H60   1.101759 S    
C42   H9    1.102642 S    
O5    C3    1.283359 A    
O7    Zn2   2.029621 S    
O25   C57   1.413237 S    
N3    O16   1.298301 A    
C49   H26   1.107205 S    
C37   O12   1.396060 S    
O6    C4    1.280004 A    
C68   H74   1.107470 S    
C46   H18   1.110379 S    
N5    O20   1.301569 A    
C66   H67   1.111126 S    
C62   H59   1.110570 S    
C29   C31   1.432726 A    
O7    C3    1.290980 A    
C67   C68   1.522437 S    
C54   H37   1.110654 S    
O3    Zn2   1.958506 S    
O8    C4    1.288742 A    
C7    N3    1.442799 S    
C33   C34   1.480193 S    
C68   H72   1.110756 S    
C50   H29   1.107222 S    
C47   H21   1.117525 S    
C38   O13   1.383643 S    
C65   H65   1.111972 S    
C24   O26   1.382685 S    
C61   H56   1.114885 S    
O1    Zn1   1.984138 S    
C47   C48   1.519521 S    
C60   H54   1.108221 S    
C49   C50   1.522264 S    
C21   C23   1.409139 A    
C56   H42   1.110375 S    
C58   H47   1.110623 S    
C48   H24   1.108030 S    
C5    H1    1.078481 S    
C32   N1    1.377355 A    
C55   H41   1.116635 S    
C22   C24   1.386156 A    
C14   O10   1.385258 S    
C10   C11   1.416194 A    
C36   O11   1.381282 S    
C44   H14   1.105819 S    
O3    C1    1.279095 A    
N6    O22   1.299383 A    
C6    C9    1.413169 A    
C57   H45   1.114179 S    
C52   H34   1.108726 S    
C51   C52   1.519173 S    
N3    O15   1.301019 A    
C4    C12   1.449733 S    
C51   H31   1.094037 S    
C56   H44   1.110285 S    
C16   C18   1.410581 A    
C13   C14   1.395160 A    
C23   C25   1.399514 A    
C64   H62   1.107494 S    
O23   C53   1.416947 S    
C24   C26   1.399922 A    
O9    C41   1.409720 S    
O24   C55   1.417299 S    
C55   H40   1.110169 S    
C16   N6    1.441030 S    
C26   C28   1.420038 S    
C21   H3    1.068499 S    
N4    O18   1.299017 A    
C2    C19   1.478246 S    
C22   H4    1.080990 S    
O10   C43   1.424761 S    
O4    Zn2   1.984665 S    
C44   H12   1.109902 S    
C23   O25   1.397731 S    
C67   H71   1.104911 S    
C54   H38   1.110332 S    
O6    Zn1   2.029550 S    
C30   C33   1.409383 A    
O5    Zn1   2.024062 S    
C11   C13   1.411897 A    
C65   C66   1.521909 S    
C6    H2    1.080196 S    
C34   C35   1.226610 T    
C9    C12   1.415463 A    
C59   H50   1.113887 S    
C61   H55   1.101936 S    
C66   H69   1.107091 S    
C47   H20   1.109872 S    
O13   C49   1.419717 S    
O26   C59   1.413383 S    
C31   O29   1.387916 S    
C59   H51   1.114914 S    
C37   C40   1.402690 A    
C8    N4    1.433782 S    
C56   H43   1.110507 S    
