data_mof_unit_11944.cif
_audit_creation_date              2012-12-10T18:06:46-0500
_audit_creation_method            fapswitch 2.2
_symmetry_space_group_name_H-M    P1
_symmetry_Int_Tables_number       1
_space_group_crystal_system       triclinic
_cell_length_a                    12.596816
_cell_length_b                    13.030973
_cell_length_c                    15.398512
_cell_angle_alpha                 83.376054
_cell_angle_beta                  99.658483
_cell_angle_gamma                 96.536609
_cell_volume                      2463.63567084

loop_
_atom_site_label
_atom_site_type_symbol
_atom_type_description
_atom_site_fract_x
_atom_site_fract_y
_atom_site_fract_z
_atom_type_partial_charge
C1    C     C_R   0.442109 0.308357 0.506516 0.888227
C2    C     C_R   0.415692 0.455901 0.098695 -0.014163
C3    C     C_R   0.314075 0.490971 0.058752 -0.047882
C4    C     C_R   0.483299 0.419081 0.046570 0.067676
C5    C     C_R   0.454535 0.430998 0.953959 -0.010611
C6    C     C_R   0.345959 0.445483 0.916802 -0.067491
C7    C     C_R   0.277155 0.480229 0.967992 0.504619
C8    C     C_R   0.579872 0.372672 0.082973 -0.180050
C9    C     C_R   0.652098 0.352668 0.028992 -0.227631
C10   C     C_R   0.633049 0.383752 0.938520 0.154947
C11   C     C_R   0.535454 0.426544 0.901553 0.138787
C12   C     C_R   0.433686 0.510881 0.335434 0.908027
C13   C     C_R   0.710426 0.375121 0.884391 -0.193609
C14   C     C_R   0.691546 0.410716 0.794385 -0.169292
C15   C     C_R   0.524835 0.472599 0.814869 -0.219986
C16   C     C_R   0.636667 0.943988 0.357016 0.443845
C17   C     C_R   0.578899 0.802310 0.461102 -0.253684
C18   C     C_R   0.325928 0.157273 0.559886 -0.352189
C19   C     C_R   0.291300 0.051585 0.564672 0.595962
C20   C     C_R   0.344460 0.984524 0.525668 -0.015506
C21   C     C_R   0.431241 0.026025 0.478670 0.024093
C22   C     C_R   0.445322 0.133869 0.456708 0.068856
C23   C     C_R   0.554891 0.692183 0.486816 0.941890
C24   C     C_R   0.505377 0.966150 0.452938 0.064420
C25   C     C_R   0.567733 0.007077 0.385917 -0.012373
C26   C     C_R   0.558807 0.109593 0.349045 -0.192006
C27   C     C_R   0.501479 0.173429 0.386243 -0.194007
C28   C     C_R   0.524369 0.869385 0.496818 -0.373949
C29   C     C_R   0.635816 0.838585 0.390304 0.423733
C30   C     C_R   0.402523 0.198848 0.505860 -0.193441
C31   C     C_R   0.141608 0.642743 0.624115 -0.276285
C32   C     C_R   0.756669 0.379584 0.395501 0.048670
C33   C     C_R   0.851719 0.350073 0.376565 -0.269186
C34   C     C_R   0.564791 0.485269 0.664434 0.859364
C35   C     C_R   0.949830 0.392517 0.419631 -0.191489
C36   C     C_R   0.952787 0.466733 0.480701 0.014846
C37   C     C_R   0.853776 0.493026 0.498301 0.155239
C38   C     C_R   0.049295 0.516624 0.523648 -0.088535
C39   C     C_R   0.045596 0.591182 0.583763 0.062949
C40   C     C_R   0.946395 0.613850 0.601968 0.461257
C41   C     C_R   0.851780 0.564103 0.559495 -0.328867
C42   C     C_R   0.150427 0.496701 0.508056 -0.005917
C43   C     C_R   0.238685 0.621592 0.603197 -0.016636
C44   C     C_R   0.388915 0.505846 0.240826 -0.189059
C45   C     C_R   0.597783 0.459648 0.759490 -0.074731
C46   C     C_R   0.251748 0.535125 0.110838 0.043458
C47   C     C_R   0.286079 0.536550 0.202696 0.470250
C48   C     C_R   0.451664 0.466690 0.188365 -0.298587
H1    H     H_    0.784556 0.340258 0.911400 0.149920
H2    H     H_    0.599751 0.142301 0.294261 0.175348
H3    H     H_    0.491244 0.842341 0.556559 0.182703
H4    H     H_    0.291466 0.206828 0.597457 0.190968
H5    H     H_    0.499534 0.253380 0.358266 0.143769
H6    H     H_    0.314138 0.659548 0.633979 0.123838
H7    H     H_    0.459336 0.520048 0.789782 0.167283
H8    H     H_    0.141981 0.699519 0.670329 0.194026
H9    H     H_    0.162283 0.438509 0.467649 0.108159
H10   H     H_    0.679718 0.346839 0.362818 0.114982
H11   H     H_    0.021100 0.365790 0.403311 0.120587
H12   H     H_    0.849495 0.294566 0.328990 0.136408
H13   H     H_    0.777804 0.582775 0.575688 0.229037
H14   H     H_    0.749330 0.399480 0.752418 0.170253
H15   H     H_    0.725313 0.317627 0.058735 0.147564
H16   H     H_    0.531261 0.447541 0.218445 0.181778
H17   H     H_    0.600509 0.348721 0.152656 0.131800
N1    N     N_R   0.239390 0.551900 0.544730 -0.091282
N2    N     N_R   0.759950 0.448600 0.455730 -0.111028
O1    O     O_R   0.374950 0.371210 0.521360 -0.622252
O2    O     O_R   0.542050 0.338030 0.492790 -0.612028
O3    O     O_R   0.368720 0.526070 0.390200 -0.567534
O4    O     O_R   0.535820 0.492890 0.361630 -0.621371
O5    O     O_R   0.457950 0.661970 0.507210 -0.615649
O6    O     O_R   0.625050 0.628790 0.478640 -0.600216
O7    O     O_R   0.464180 0.507110 0.638370 -0.616322
O8    O     O_R   0.631280 0.473930 0.609800 -0.630920
Zn1   Zn    Zn3+2 0.388420 0.522150 0.519080 0.948554
Zn2   Zn    Zn3+2 0.611580 0.477850 0.480920 0.941013
O9    O     O_3   0.169982 0.491391 0.932072 -0.600534
C49   C     C_3   0.161912 0.581732 0.871556 -0.263611
H18   H     H_    0.123851 0.558780 0.805443 0.191486
H19   H     H_    0.240088 0.629587 0.865145 0.126090
H20   H     H_    0.107202 0.631855 0.892437 0.211329
O10   O     O_3   0.674192 0.768603 0.344753 -0.564935
C50   C     C_3   0.786894 0.766954 0.370576 -0.202414
H21   H     H_    0.815555 0.782782 0.440542 0.097650
H22   H     H_    0.830388 0.822596 0.325461 0.185343
H23   H     H_    0.808535 0.688406 0.363780 0.184110
O11   O     O_3   0.696227 0.981239 0.290345 -0.575318
C51   C     C_3   0.793626 0.034969 0.328452 -0.374714
H24   H     H_    0.839702 0.985957 0.382585 0.139305
H25   H     H_    0.778672 0.107220 0.354343 0.160618
H26   H     H_    0.845456 0.057496 0.276489 0.202082
N3    N     N_3   0.296757 0.879216 0.523251 -0.433217
H27   H     H_    0.314523 0.845405 0.469746 0.218458
H28   H     H_    0.324192 0.837215 0.583119 0.189341
O12   O     O_3   0.210924 0.011520 0.613695 -0.590477
C52   C     C_3   0.110109 0.036054 0.565369 -0.321827
H29   H     H_    0.094643 0.004163 0.499850 0.159908
H30   H     H_    0.104146 0.121275 0.556767 0.158512
H31   H     H_    0.045444 0.999870 0.603036 0.186525
O13   O     O_3   0.942558 0.677898 0.667010 -0.606499
C53   C     C_3   0.905162 0.772651 0.626872 -0.340821
H32   H     H_    0.953063 0.808449 0.574611 0.155988
H33   H     H_    0.915284 0.827697 0.678143 0.202924
H34   H     H_    0.817538 0.762364 0.599696 0.158434
N4    N     N_3   0.158218 0.586113 0.069698 -0.400791
H35   H     H_    0.088985 0.546386 0.090721 0.205119
H36   H     H_    0.166887 0.661794 0.088010 0.209771
O14   O     O_3   0.223257 0.578031 0.252698 -0.591447
C54   C     C_3   0.146671 0.498668 0.280397 -0.296546
H37   H     H_    0.096475 0.532222 0.320444 0.198296
H38   H     H_    0.186692 0.433816 0.321586 0.151978
H39   H     H_    0.090938 0.466786 0.224099 0.138306
N5    N     N_3   0.302361 0.411953 0.831128 -0.437385
H40   H     H_    0.274957 0.474996 0.788481 0.189160
H41   H     H_    0.236569 0.356551 0.837660 0.226465

loop_
_geom_bond_atom_site_label_1
_geom_bond_atom_site_label_2
_ccdc_geom_bond_type
C20   N3    S    
N3    H27   S    
C17   C29   A    
O2    Zn2   S    
C35   C36   A    
N2    Zn2   S    
C50   H23   S    
C32   H10   S    
C4    C8    A    
C52   H29   S    
C18   H4    S    
C26   C27   A    
O13   C53   S    
C31   C43   A    
C36   C37   A    
C50   H22   S    
C29   O10   S    
C3    C7    A    
C26   H2    S    
C5    C6    A    
C28   H3    S    
C48   H16   S    
N4    H35   S    
C14   H14   S    
C46   N4    S    
C1    O1    A    
C53   H34   S    
C35   H11   S    
C18   C19   A    
C54   H37   S    
C6    N5    S    
C40   O13   S    
C11   C15   A    
C19   C20   A    
C8    C9    A    
C18   C30   A    
C41   H13   S    
C31   H8    S    
C51   H25   S    
C9    C10   A    
C44   C47   A    
O5    Zn1   S    
C34   O8    A    
C8    H17   S    
N3    H28   S    
C21   C22   A    
C23   O6    A    
C42   H9    S    
C52   H30   S    
N5    H40   S    
C14   C45   A    
C50   H21   S    
C39   C40   A    
C49   H19   S    
O9    C49   S    
C2    C48   A    
C16   C29   A    
C47   O14   S    
C1    O2    A    
C15   H7    S    
C2    C4    A    
C43   H6    S    
O10   C50   S    
N1    Zn1   S    
O12   C52   S    
C20   C21   A    
C34   C45   S    
C17   C23   S    
C24   C25   A    
C51   H26   S    
C53   H33   S    
O8    Zn2   S    
C54   H39   S    
O7    Zn1   S    
C34   O7    A    
C32   N2    A    
C13   H1    S    
C40   C41   A    
C12   O4    A    
C33   H12   S    
C22   C27   A    
C7    O9    S    
C5    C11   A    
O3    Zn1   S    
C15   C45   A    
O4    Zn2   S    
C52   H31   S    
C42   N1    A    
C16   C25   A    
C12   O3    A    
C46   C47   A    
C22   C30   A    
C9    H15   S    
C17   C28   A    
C23   O5    A    
C24   C28   A    
C4    C5    A    
C10   C13   A    
C49   H20   S    
N5    H41   S    
C27   H5    S    
C38   C42   A    
C6    C7    A    
O1    Zn1   S    
C3    C46   A    
C32   C33   A    
C36   C38   A    
C2    C3    A    
C25   C26   A    
C12   C44   S    
O14   C54   S    
C38   C39   A    
N4    H36   S    
C43   N1    A    
C37   N2    A    
C1    C30   S    
C33   C35   A    
C31   C39   A    
C37   C41   A    
C53   H32   S    
C54   H38   S    
C10   C11   A    
C49   H18   S    
O11   C51   S    
C21   C24   A    
C16   O11   S    
O6    Zn2   S    
C51   H24   S    
C13   C14   A    
C19   O12   S    
C44   C48   A    
