data_mof_unit_15736.cif
_audit_creation_date              2013-03-05T15:45:14-0500
_audit_creation_method            fapswitch 2.2
_symmetry_space_group_name_H-M    P1
_symmetry_Int_Tables_number       1
_space_group_crystal_system       triclinic
_cell_length_a                    8.226402
_cell_length_b                    12.77866
_cell_length_c                    19.061567
_cell_angle_alpha                 94.702529
_cell_angle_beta                  94.534031
_cell_angle_gamma                 97.861476
_cell_volume                      1969.99751258

loop_
_atom_site_label
_atom_site_type_symbol
_atom_site_description
_atom_site_fract_x
_atom_site_fract_y
_atom_site_fract_z
_atom_type_partial_charge
P1    P     P_3+3 0.986780 0.745970 0.554690 0.506054
O1    O     O_2   0.160820 0.763040 0.533820 -0.311407
O2    O     O_3   0.890970 0.628600 0.535400 -0.430965
O3    O     O_3   0.385950 0.698560 0.408070 -0.406186
O4    O     O_2   0.299047 0.884334 0.450771 -0.360365
O5    O     O_3   0.009243 0.768502 0.646744 -0.514491
O6    O     O_3   0.382113 0.868739 0.322114 -0.482671
H1    H     H_    0.318927 0.711823 0.280856 0.150727
C1    C     C_3   0.369540 0.813331 0.199252 -0.806937
H2    H     H_    0.241212 0.830588 0.191156 0.299859
H3    H     H_    0.455242 0.884455 0.189425 0.278265
P2    P     P_3+3 0.341450 0.417130 0.341310 0.492639
P3    P     P_3+3 0.930642 0.639765 0.281262 0.445991
O7    O     O_2   0.172860 0.449730 0.330520 -0.379575
O8    O     O_3   0.962080 0.644700 0.373110 -0.381555
O9    O     O_2   0.058015 0.576045 0.248948 -0.406748
O10   O     O_3   0.298288 0.280238 0.321564 -0.506424
O11   O     O_3   0.981159 0.769027 0.257953 -0.508158
C2    C     C_3   0.908635 0.839708 0.302401 0.398886
H4    H     H_    0.005147 0.883208 0.342365 0.119713
H5    H     H_    0.807816 0.800870 0.331099 0.033340
C3    C     C_3   0.835735 0.918683 0.258255 -0.869259
H6    H     H_    0.776061 0.973916 0.292447 0.248558
H7    H     H_    0.932978 0.965048 0.231933 0.300429
C4    C     C_3   0.768472 0.317588 0.320579 0.272674
H8    H     H_    0.643359 0.334676 0.329532 0.096865
H9    H     H_    0.860334 0.387498 0.340869 0.093550
C5    C     C_3   0.784178 0.298091 0.241404 -0.119030
H10   H     H_    0.776620 0.372300 0.215696 0.069834
H11   H     H_    0.907140 0.274338 0.233557 0.149169
Ba1   Ba    Ba6+2 0.160910 0.552960 0.466220 1.581518
C6    C     C_3   0.043062 0.678784 0.678449 0.428963
H12   H     H_    0.157214 0.654502 0.660113 0.086569
H13   H     H_    0.939666 0.612833 0.666385 0.109571
C7    C     C_3   0.065495 0.709024 0.757923 -0.869664
H14   H     H_    0.178474 0.767722 0.771789 0.269224
H15   H     H_    0.075893 0.638877 0.787014 0.214613
H16   H     H_    0.957313 0.744309 0.775101 0.279126
C8    C     C_3   0.252353 0.231501 0.381411 0.282150
H17   H     H_    0.148918 0.266196 0.403249 0.041375
H18   H     H_    0.358005 0.241334 0.422341 0.128037
C9    C     C_3   0.198519 0.113231 0.359884 -0.141480
H19   H     H_    0.067085 0.100543 0.338294 0.110134
H20   H     H_    0.209207 0.067758 0.406793 0.093670
P4    P     P_3+3 0.823520 0.254020 0.445250 0.477382
O12   O     O_2   0.649470 0.236890 0.466160 -0.352087
O13   O     O_3   0.919320 0.371390 0.464540 -0.410637
O14   O     O_3   0.424350 0.301430 0.591880 -0.359381
O15   O     O_3   0.796787 0.226448 0.353066 -0.553375
P5    P     P_3+3 0.873061 0.363095 0.719211 0.522420
O16   O     O_3   0.382770 0.553920 0.582990 -0.398976
O17   O     O_3   0.848220 0.355290 0.626830 -0.365701
O18   O     O_2   0.737503 0.423250 0.747338 -0.298479
O19   O     O_3   0.819587 0.234985 0.743772 -0.464692
Ba2   Ba    Ba6+2 0.649260 0.447030 0.533730 1.609579
P6    P     P_3+3 0.427950 0.836516 0.408128 0.484893
C10   C     C_3   0.405308 0.784072 0.274005 0.455491
H21   H     H_    0.533864 0.766731 0.280614 0.000304
H22   H     H_    0.384131 0.746050 0.161024 0.183054
O20   O     O_3   0.427530 0.446070 0.416950 -0.408069
C11   C     C_3   0.596711 0.771794 0.635632 0.452832
H23   H     H_    0.689056 0.721822 0.619146 0.085105
H24   H     H_    0.515125 0.782786 0.588359 0.109511
C12   C     C_3   0.688473 0.878690 0.667513 -0.830184
H25   H     H_    0.766147 0.868928 0.716257 0.272120
H26   H     H_    0.767659 0.916072 0.629826 0.210704
H27   H     H_    0.600055 0.932954 0.680594 0.280530
P7    P     P_3+3 0.464831 0.589527 0.670455 0.502734
O21   O     O_2   0.637430 0.550200 0.669460 -0.357413
O22   O     O_3   0.501377 0.727905 0.686631 -0.526553
H28   H     H_    0.742667 0.875628 0.216866 0.249151
C13   C     C_3   0.947750 0.174470 0.734317 0.438130
H29   H     H_    0.904733 0.109979 0.691591 0.121004
H30   H     H_    0.062586 0.219775 0.719158 0.006988
C14   C     C_3   0.986175 0.125615 0.802819 -0.958883
H31   H     H_    0.085544 0.076017 0.797174 0.259018
H32   H     H_    0.026330 0.189352 0.846358 0.234834
H33   H     H_    0.874972 0.074862 0.816670 0.267278
P8    P     P_3+3 0.381150 0.163880 0.590789 0.526170
C15   C     C_3   0.420742 0.139844 0.726773 1.243472
H34   H     H_    0.287257 0.143946 0.718472 -0.167465
O23   O     O_2   0.468189 0.120037 0.528550 -0.363713
O24   O     O_3   0.486920 0.115831 0.662442 -0.519169
H35   H     H_    0.384497 0.057500 0.823065 0.210392
C16   C     C_3   0.445918 0.049496 0.773607 -0.986881
H36   H     H_    0.579312 0.048732 0.787207 0.248450
H37   H     H_    0.392200 0.971412 0.746095 0.290859
C17   C     C_R   0.072278 0.185324 0.529804 -0.528247
C18   C     C_R   0.734104 0.818583 0.475594 -0.520288
C19   C     C_R   0.703448 0.997200 0.449381 -0.154839
C20   C     C_R   0.639482 0.889349 0.446793 0.229772
C21   C     C_R   0.886864 0.852936 0.513188 0.269075
C22   C     C_R   0.949033 0.965558 0.521755 -0.206110
C23   C     C_R   0.857782 0.038103 0.486329 -0.095961
C24   C     C_R   0.921152 0.149875 0.491534 0.275191
C25   C     C_R   0.162237 0.116228 0.563084 0.050677
C26   C     C_R   0.097511 0.009510 0.563856 0.301710
H38   H     H_    0.629527 0.048569 0.423834 0.215204
H39   H     H_    0.124991 0.267880 0.531020 0.180237
H40   H     H_    0.684278 0.735191 0.471297 0.168612
C27   C     C_R   0.616807 0.540587 0.298986 -0.547695
C28   C     C_R   0.459800 0.487063 0.277008 0.328751
C29   C     C_R   0.400139 0.479968 0.205512 -0.192744
C30   C     C_R   0.498109 0.526907 0.155793 0.004696
C31   C     C_R   0.659175 0.577180 0.178656 -0.279090
C32   C     C_R   0.718670 0.581961 0.249916 0.250414
C33   C     C_R   0.459751 0.611794 0.042390 -0.185672
C34   C     C_R   0.400166 0.607264 0.971260 -0.043509
C35   C     C_R   0.320480 0.511382 0.935106 0.206358
C36   C     C_R   0.291793 0.421977 0.973284 -0.201853
C37   C     C_R   0.347003 0.427335 0.045062 -0.145055
C38   C     C_R   0.433891 0.521929 0.080191 0.153693
C39   C     C_R   0.119782 0.445492 0.829740 -0.302285
C40   C     C_R   0.078103 0.428500 0.756693 0.213614
C41   C     C_R   0.341000 0.525607 0.735806 0.188616
C42   C     C_R   0.385498 0.544320 0.809410 0.215921
C43   C     C_R   0.274102 0.502355 0.857247 -0.156443
C44   C     C_R   0.190949 0.464850 0.710467 -0.528911
H41   H     H_    0.419220 0.678510 0.944164 0.149463
H42   H     H_    0.525824 0.685950 0.067855 0.132424
H43   H     H_    0.277636 0.438491 0.188910 0.153780
H44   H     H_    0.231199 0.346775 0.947041 0.124979
H45   H     H_    0.326389 0.356469 0.072530 0.157949
H46   H     H_    0.031351 0.415347 0.865026 0.170327
H47   H     H_    0.739040 0.610631 0.141157 0.163716
H48   H     H_    0.157300 0.451335 0.654058 0.171050
H49   H     H_    0.663236 0.544969 0.354029 0.174468
N1    N     N_R   0.654272 0.215662 0.208271 0.299060
O25   O     O_R   0.503090 0.234936 0.199903 -0.342678
O26   O     O_R   0.690804 0.125567 0.181913 -0.342791
N2    N     N_R   0.299888 0.074949 0.306474 0.329763
O27   O     O_R   0.234145 0.042195 0.242844 -0.335155
O28   O     O_R   0.459211 0.086707 0.319317 -0.322966
O29   O     O_3   0.506957 0.237883 0.758053 -0.590263
C45   C     C_3   0.452186 0.270278 0.823691 0.197696
H50   H     H_    0.332039 0.226742 0.835091 0.039571
H51   H     H_    0.434782 0.353202 0.821991 0.160479
C46   C     C_3   0.585240 0.266545 0.883552 -0.733461
H52   H     H_    0.701360 0.316254 0.873676 0.280033
H53   H     H_    0.544801 0.297652 0.934370 0.211296
H54   H     H_    0.609796 0.184152 0.888261 0.235536
N3    N     N_R   0.168290 0.954550 0.617654 0.245777
O30   O     O_R   0.312420 0.925565 0.611885 -0.381184
O31   O     O_R   0.114413 0.963964 0.679828 -0.470897
N4    N     N_R   0.547693 0.596415 0.834806 0.239195
O32   O     O_R   0.647696 0.546911 0.871606 -0.400919
O33   O     O_R   0.591882 0.695612 0.825551 -0.387420

loop_
_geom_bond_atom_site_label_1
_geom_bond_atom_site_label_2
_geom_bond_distance
_ccdc_geom_bond_type
C11   O22   1.401501 S    
O14   Ba2   2.798978 S    
O5    C6    1.389720 S    
C17   C25   1.387822 A    
C22   C23   1.446272 A    
C45   C46   1.525795 S    
C33   C38   1.405780 A    
C3    H28   1.108774 S    
O4    P6    1.546171 D    
C2    H4    1.110787 S    
O7    Ba1   2.820776 S    
N1    O25   1.300661 A    
N4    O32   1.301116 A    
C19   C20   1.401830 A    
C35   C43   1.493934 S    
C45   H50   1.112191 S    
C8    H18   1.107576 S    
P4    O12   1.508523 D    
C34   C35   1.405807 A    
C4    C5    1.527881 S    
P5    O19   1.747542 S    
P3    O11   1.749358 S    
O14   P8    1.743042 S    
C5    H10   1.109397 S    
C7    H15   1.101494 S    
O11   C2    1.411181 S    
C15   O24   1.408465 S    
C42   N4    1.435226 S    
C41   C42   1.414027 A    
P1    Ba1   3.412539 S    
C15   O29   1.412685 S    
C42   C43   1.427106 A    
P1    O1    1.508148 D    
O10   C8    1.397240 S    
C11   H24   1.110451 S    
C36   C37   1.400298 A    
O2    Ba2   2.837958 S    
P6    C20   1.849699 S    
C37   C38   1.405588 A    
P7    O21   1.570612 D    
O12   Ba2   2.881723 S    
P5    O17   1.749666 S    
C33   C34   1.398654 A    
C9    N2    1.461285 S    
C18   C20   1.389759 A    
C1    H2    1.109241 S    
O16   Ba2   2.913358 S    
O17   Ba2   2.758494 S    
C16   H37   1.105837 S    
C17   C24   1.389720 A    
Ba1   O13   2.837357 S    
Ba2   O20   2.762219 S    
O3    P6    1.749332 S    
C34   H41   1.082156 S    
C28   C29   1.402921 A    
C9    H20   1.109796 S    
O6    P6    1.747939 S    
C13   C14   1.522188 S    
C30   C31   1.410031 A    
N4    O33   1.300326 A    
C19   C23   1.413465 A    
C8    C9    1.528108 S    
P4    O13   1.595679 S    
P5    O18   1.543820 D    
C12   H27   1.100161 S    
C18   H40   1.082214 S    
C37   H45   1.082935 S    
P1    O5    1.745662 S    
O3    Ba1   2.799621 S    
C27   C28   1.391893 A    
C2    C3    1.520283 S    
H35   C16   1.108239 S    
C13   H30   1.109982 S    
C8    H17   1.105801 S    
C30   C38   1.488395 S    
C15   H34   1.106001 S    
C4    H8    1.104196 S    
C16   H36   1.108991 S    
O1    Ba1   2.881088 S    
P1    O2    1.595708 S    
C7    H14   1.110967 S    
C6    H13   1.108077 S    
Ba1   O20   2.914326 S    
P2    O10   1.740339 S    
C11   C12   1.521293 S    
C14   H31   1.107231 S    
C6    C7    1.522696 S    
P2    C28   1.838232 S    
C15   C16   1.542062 S    
H1    C10   1.108771 S    
C1    H3    1.109806 S    
P4    O15   1.753954 S    
C41   C44   1.393499 A    
C25   C26   1.396190 A    
C7    H16   1.110933 S    
C23   C24   1.444495 A    
Ba2   O21   2.820806 S    
C18   C21   1.393034 A    
O2    Ba1   2.906123 S    
C14   H32   1.110621 S    
C40   C44   1.390112 A    
C46   H53   1.109507 S    
C39   C43   1.412258 A    
P2    O7    1.505425 D    
P1    C21   1.884582 S    
P3    O8    1.744110 S    
P2    Ba1   3.387371 S    
C3    H7    1.106912 S    
C9    H19   1.111517 S    
N2    O27   1.299967 A    
C29   H43   1.082865 S    
C22   C26   1.426483 A    
C33   H42   1.082129 S    
P3    C32   1.831362 S    
N3    O31   1.299894 A    
O13   Ba2   2.907051 S    
C39   C40   1.399299 A    
C27   C32   1.392986 A    
C45   H51   1.091243 S    
C2    H5    1.112236 S    
C3    H6    1.110801 S    
Ba1   O16   2.762710 S    
C13   H29   1.110083 S    
N2    O28   1.299883 A    
C46   H54   1.108247 S    
N1    O26   1.300726 A    
P8    O23   1.539194 D    
O8    Ba1   2.757973 S    
O29   C45   1.412462 S    
C4    H9    1.109596 S    
C31   C32   1.400516 A    
C31   H47   1.082958 S    
Ba1   Ba2   4.536896 S    
C6    H12   1.101854 S    
C5    H11   1.112737 S    
P8    C25   1.841120 S    
C35   C36   1.407221 A    
C36   H44   1.083001 S    
P8    O24   1.759338 S    
C10   H21   1.109512 S    
C39   H46   1.083138 S    
C12   H25   1.110888 S    
C21   C22   1.451326 A    
C27   H49   1.082134 S    
C19   H38   1.073591 S    
C1    C10   1.519179 S    
O16   P7    1.748154 S    
C11   H23   1.105071 S    
C14   H33   1.109570 S    
C4    O15   1.401350 S    
C26   N3    1.421053 S    
C17   H39   1.082026 S    
C46   H52   1.110613 S    
P7    C41   1.842958 S    
P2    O20   1.548082 S    
O19   C13   1.404386 S    
P4    Ba2   3.413225 S    
P7    O22   1.750085 S    
P3    O9    1.547105 D    
C29   C30   1.410396 A    
N3    O30   1.299679 A    
C44   H48   1.082609 S    
P5    C40   1.838493 S    
C1    H22   1.106310 S    
O6    C10   1.403341 S    
C5    N1    1.458326 S    
C12   H26   1.101699 S    
P4    C24   1.888759 S    
