data_mof_unit_47270.cif
_audit_creation_date              2012-10-26T17:12:31-0400
_audit_creation_method            fapswitch 2.2
_symmetry_space_group_name_H-M    P1
_symmetry_Int_Tables_number       1
_space_group_crystal_system       triclinic
_cell_length_a                    16.751883
_cell_length_b                    16.813557
_cell_length_c                    16.740555
_cell_angle_alpha                 67.685061
_cell_angle_beta                  67.669897
_cell_angle_gamma                 67.700801
_cell_volume                      3879.53523133

loop_
_atom_site_label
_atom_site_type_symbol
_atom_type_description
_atom_site_fract_x
_atom_site_fract_y
_atom_site_fract_z
_atom_type_partial_charge
C1    C     C_R   0.013975 0.831479 0.569936 0.860859
C2    C     C_R   0.028380 0.564501 0.828059 0.828116
C3    C     C_3   0.406074 0.724198 0.212078 -0.339336
C4    C     C_3   0.857080 0.684637 0.192926 -0.263560
C5    C     C_3   0.207777 0.413872 0.710765 -0.341249
C6    C     C_R   0.172200 0.969775 0.436027 0.840285
C7    C     C_R   0.827896 0.029298 0.564110 0.839831
C8    C     C_R   0.514959 0.927685 0.740584 0.505768
C9    C     C_R   0.552288 0.926842 0.293990 0.517203
C10   C     C_R   0.927281 0.740723 0.513920 0.502907
C11   C     C_R   0.930252 0.293348 0.551873 0.505586
C12   C     C_R   0.727981 0.491515 0.962990 0.505515
C13   C     C_R   0.296522 0.546786 0.935053 0.508704
C14   C     C_R   0.300106 0.907149 0.553458 0.495877
C15   C     C_R   0.971782 0.171778 0.435358 0.813075
C16   C     C_R   0.697465 0.065666 0.454883 0.527721
C17   C     C_R   0.505848 0.267859 0.046428 0.501058
C18   C     C_R   0.450523 0.702680 0.073697 0.528062
C19   C     C_R   0.906596 0.552524 0.300483 0.495234
C20   C     C_R   0.066577 0.456742 0.696537 0.517712
C21   C     C_R   0.555123 0.986424 0.553770 0.003546
C22   C     C_R   0.464242 0.952533 0.463569 0.012797
C23   C     C_R   0.985518 0.554464 0.555245 0.008157
C24   C     C_R   0.953109 0.463409 0.464140 0.013871
C25   C     C_R   0.542381 0.548021 0.017246 0.013075
C26   C     C_R   0.830616 0.569045 0.016159 0.840138
C27   C     C_R   0.447356 0.453261 0.998211 0.015586
C28   C     C_R   0.587548 0.999340 0.460154 0.000985
C29   C     C_R   0.430042 0.941157 0.556868 0.036928
C30   C     C_R   0.999935 0.461024 0.587163 0.001534
C31   C     C_R   0.940320 0.556566 0.430384 0.034325
C32   C     C_R   0.451132 0.586924 0.019648 0.002206
C33   C     C_R   0.533185 0.410079 0.011516 0.006333
C34   C     C_R   0.547950 0.971802 0.417591 -0.000844
C35   C     C_R   0.480656 0.950295 0.603276 0.013662
C36   C     C_R   0.408665 0.544459 0.995364 0.009035
C37   C     C_R   0.171552 0.435446 0.971902 0.828796
C38   C     C_R   0.585307 0.461902 0.005039 0.009123
C39   C     C_R   0.973287 0.417859 0.547453 0.008030
C40   C     C_R   0.948990 0.603309 0.480946 0.015522
C41   C     C_R   0.464456 0.917908 0.697071 -0.291054
C42   C     C_R   0.593360 0.953662 0.334104 -0.286578
C43   C     C_R   0.916567 0.696799 0.464368 -0.293745
C44   C     C_R   0.956873 0.333945 0.592577 -0.284866
C45   C     C_R   0.678894 0.434420 0.976859 -0.286108
C46   C     C_R   0.333594 0.590955 0.962036 -0.291266
C47   C     C_R   0.349406 0.915838 0.601028 -0.326218
C48   C     C_R   0.569721 0.014739 0.831205 0.841431
C49   C     C_R   0.656869 0.041501 0.411578 -0.282919
C50   C     C_R   0.561422 0.316748 0.037158 -0.291444
C51   C     C_R   0.405352 0.663807 0.049819 -0.274139
C52   C     C_R   0.914387 0.600179 0.350071 -0.323836
C53   C     C_R   0.043102 0.413104 0.655865 -0.282875
C54   C     C_R   0.573574 0.983066 0.693301 -0.030786
C55   C     C_R   0.457317 0.940775 0.325083 -0.055065
C56   C     C_R   0.981905 0.693941 0.573316 -0.025261
C57   C     C_R   0.943064 0.324513 0.456986 -0.036702
C58   C     C_R   0.686447 0.564605 0.001923 -0.042156
C59   C     C_R   0.435611 0.971161 0.171831 0.814933
C60   C     C_R   0.321061 0.451174 0.960413 -0.030180
C61   C     C_R   0.327736 0.934023 0.458079 0.007447
C62   C     C_R   0.676663 0.038214 0.550162 -0.017590
C63   C     C_R   0.433004 0.310554 0.006731 -0.033945
C64   C     C_R   0.546405 0.677091 0.048607 -0.034693
C65   C     C_R   0.934247 0.457523 0.327859 0.003599
C66   C     C_R   0.037289 0.551529 0.676558 -0.041897
C67   C     C_R   0.611309 0.011549 0.737085 -0.103820
C68   C     C_R   0.402959 0.951791 0.271269 -0.128531
C69   C     C_R   0.009873 0.737796 0.611594 -0.098719
C70   C     C_R   0.430577 0.169019 0.985080 0.822063
C71   C     C_R   0.953153 0.271021 0.402702 -0.121567
C72   C     C_R   0.735036 0.608728 0.016727 -0.109929
C73   C     C_R   0.269242 0.399918 0.961651 -0.118626
C74   C     C_R   0.272348 0.949207 0.403233 -0.096710
C75   C     C_R   0.729376 0.040316 0.599451 -0.125414
C76   C     C_R   0.390392 0.263679 0.987206 -0.115863
C77   C     C_R   0.598998 0.730237 0.042518 -0.123876
C78   C     C_R   0.949589 0.402976 0.272347 -0.096168
C79   C     C_R   0.038337 0.600568 0.729764 -0.119705
C80   C     C_R   0.690885 0.036220 0.690271 -0.315507
C81   C     C_R   0.564169 0.828316 0.029373 0.839935
C82   C     C_R   0.311731 0.956669 0.311404 -0.298134
C83   C     C_R   0.033662 0.691193 0.691702 -0.289641
C84   C     C_R   0.957339 0.311383 0.311570 -0.292169
C85   C     C_R   0.690889 0.692087 0.033939 -0.293768
C86   C     C_R   0.307763 0.308762 0.968064 -0.289992
C87   C     C_R   0.600588 0.004522 0.598817 -0.080121
C88   C     C_R   0.415892 0.943283 0.415405 -0.065027
C89   C     C_R   0.003164 0.599781 0.600715 -0.075889
C90   C     C_R   0.944387 0.414949 0.415753 -0.060863
C91   C     C_R   0.591681 0.595957 0.024291 -0.071919
C92   C     C_R   0.969945 0.435977 0.172138 0.840017
C93   C     C_R   0.400652 0.404971 0.987672 -0.054778
C94   C     C_3   0.597025 0.798571 0.815040 -0.352733
C95   C     C_3   0.603496 0.793353 0.260762 -0.325376
C96   C     C_3   0.790135 0.818032 0.583997 -0.343079
C97   C     C_3   0.796177 0.259955 0.603776 -0.305480
C98   C     C_3   0.805892 0.550784 0.821132 -0.317632
C99   C     C_3   0.282035 0.590329 0.793564 -0.346087
C100  C     C_3   0.195103 0.854268 0.687245 -0.264854
C101  C     C_3   0.712311 0.206427 0.408221 -0.345308
C102  C     C_3   0.450068 0.183103 0.185262 -0.302212
Cu1   Cu    Cu3+1 0.995180 0.995180 0.424630 1.031615
Cu2   Cu    Cu3+1 0.004820 0.004820 0.575370 0.993276
Cu3   Cu    Cu3+1 0.995180 0.424630 0.995180 1.036810
Cu4   Cu    Cu3+1 0.004820 0.575370 0.004820 0.980344
Cu5   Cu    Cu3+1 0.424630 0.995180 0.995180 1.028150
Cu6   Cu    Cu3+1 0.575370 0.004820 0.004820 1.028959
H1    H     H_    0.420173 0.875744 0.737452 0.163100
H2    H     H_    0.333096 0.689202 0.062935 0.165006
H3    H     H_    0.900195 0.671576 0.325390 0.140222
H4    H     H_    0.063841 0.340741 0.675300 0.168267
H5    H     H_    0.725776 0.047542 0.726066 0.191482
H6    H     H_    0.269722 0.969764 0.269591 0.194157
H7    H     H_    0.044440 0.726835 0.727015 0.182523
H8    H     H_    0.970066 0.269915 0.269508 0.193185
H9    H     H_    0.729456 0.729671 0.036680 0.182407
H10   H     H_    0.271190 0.271547 0.961465 0.193607
H11   H     H_    0.653329 0.815806 0.818238 0.159504
H12   H     H_    0.663853 0.950583 0.304234 0.168597
H13   H     H_    0.616565 0.778620 0.752272 0.140867
H14   H     H_    0.585729 0.738803 0.870809 0.199020
H15   H     H_    0.535911 0.789538 0.269071 0.143550
H16   H     H_    0.622603 0.758186 0.324889 0.162791
H17   H     H_    0.651887 0.757570 0.210232 0.192195
H18   H     H_    0.779522 0.854843 0.631412 0.177575
H19   H     H_    0.786913 0.748491 0.624824 0.129832
H20   H     H_    0.733802 0.848834 0.552878 0.193728
H21   H     H_    0.792603 0.262183 0.537998 0.139588
H22   H     H_    0.761862 0.326683 0.617023 0.153203
H23   H     H_    0.874519 0.736952 0.419844 0.162196
H24   H     H_    0.758981 0.212360 0.656390 0.184732
H25   H     H_    0.804867 0.614180 0.828473 0.144144
H26   H     H_    0.746575 0.560959 0.799574 0.145837
H27   H     H_    0.866127 0.532482 0.766634 0.196073
H28   H     H_    0.293431 0.521560 0.791241 0.147494
H29   H     H_    0.346452 0.608860 0.765078 0.164511
H30   H     H_    0.237561 0.636655 0.750151 0.195405
H31   H     H_    0.170278 0.921399 0.699180 0.147964
H32   H     H_    0.241579 0.805910 0.728017 0.157834
H33   H     H_    0.136116 0.828270 0.710103 0.193564
H34   H     H_    0.954301 0.304192 0.663000 0.170495
H35   H     H_    0.697383 0.210603 0.477369 0.142139
H36   H     H_    0.649779 0.234378 0.386356 0.162415
H37   H     H_    0.758028 0.248740 0.362833 0.196990
H38   H     H_    0.467134 0.118154 0.235202 0.190439
H39   H     H_    0.384369 0.191299 0.176900 0.147289
H40   H     H_    0.444607 0.235961 0.213392 0.152346
H41   H     H_    0.475692 0.709672 0.214649 0.141029
H42   H     H_    0.383337 0.662231 0.243922 0.162346
H43   H     H_    0.361971 0.772214 0.252208 0.196927
H44   H     H_    0.925527 0.693975 0.168886 0.148096
H45   H     H_    0.713146 0.375228 0.952959 0.170680
H46   H     H_    0.809117 0.727802 0.237170 0.155872
H47   H     H_    0.832341 0.706741 0.133169 0.194330
H48   H     H_    0.209807 0.482918 0.698696 0.147087
H49   H     H_    0.236331 0.394865 0.646563 0.161336
H50   H     H_    0.251245 0.368123 0.755354 0.189090
H51   H     H_    0.309124 0.663064 0.948027 0.164953
H52   H     H_    0.324245 0.903066 0.672661 0.139520
H53   H     H_    0.676902 0.060864 0.338877 0.169704
H54   H     H_    0.620771 0.281969 0.061083 0.170691
O1    O     O_R   0.124540 0.978640 0.385460 -0.601066
O2    O     O_R   0.124540 0.385460 0.978640 -0.582113
O3    O     O_R   0.021360 0.875460 0.614540 -0.599656
O4    O     O_R   0.978640 0.124540 0.385460 -0.582406
O5    O     O_R   0.013780 0.867370 0.487190 -0.552766
O6    O     O_R   0.986220 0.132630 0.512810 -0.536508
O7    O     O_R   0.867370 0.487190 0.013780 -0.538212
O8    O     O_R   0.132630 0.512810 0.986220 -0.539112
O9    O     O_R   0.487190 0.013780 0.867370 -0.551292
O10   O     O_R   0.512810 0.986220 0.132630 -0.507741
O11   O     O_R   0.512810 0.132630 0.986220 -0.535988
O12   O     O_R   0.875460 0.021360 0.614540 -0.590592
O13   O     O_R   0.487190 0.867370 0.013780 -0.499304
O14   O     O_R   0.986220 0.512810 0.132630 -0.551597
O15   O     O_R   0.013780 0.487190 0.867370 -0.509094
O16   O     O_R   0.132630 0.986220 0.512810 -0.549968
O17   O     O_R   0.867370 0.013780 0.487190 -0.499226
O18   O     O_3   0.517674 0.869811 0.824762 -0.557098
O19   O     O_3   0.608024 0.882616 0.229124 -0.558063
O20   O     O_3   0.871156 0.825392 0.515514 -0.560221
O21   O     O_3   0.885717 0.229027 0.608411 -0.553781
O22   O     O_3   0.811564 0.481069 0.901062 -0.549935
O23   O     O_R   0.978640 0.385460 0.124540 -0.599290
O24   O     O_3   0.239188 0.599472 0.881457 -0.563397
O25   O     O_3   0.235795 0.859121 0.595250 -0.578948
O26   O     O_3   0.755595 0.118086 0.401775 -0.556568
O27   O     O_3   0.518324 0.182137 0.103581 -0.552065
O28   O     O_3   0.398627 0.763470 0.123412 -0.556805
O29   O     O_3   0.858127 0.594120 0.236428 -0.579291
O30   O     O_3   0.120070 0.404437 0.753951 -0.553810
O31   O     O_R   0.021360 0.614540 0.875460 -0.591709
O32   O     O_R   0.385460 0.124540 0.978640 -0.602077
O33   O     O_R   0.614540 0.875460 0.021360 -0.594716
O34   O     O_R   0.614540 0.021360 0.875460 -0.603603
O35   O     O_R   0.385460 0.978640 0.124540 -0.587276
O36   O     O_R   0.875460 0.614540 0.021360 -0.600571

loop_
_geom_bond_atom_site_label_1
_geom_bond_atom_site_label_2
_ccdc_geom_bond_type
C95   H16   S    
C4    H46   S    
C21   C87   A    
Cu1   O5    S    
C22   C29   A    
C76   C86   A    
C50   H54   S    
C26   C72   S    
C64   C77   A    
C20   C53   A    
C34   C42   A    
C31   C52   A    
C58   C72   A    
C24   C39   A    
C72   C85   A    
C13   C60   A    
Cu5   O9    S    
C27   C33   A    
C66   C79   A    
C98   H25   S    
C101  H37   S    
C9    C42   A    
Cu3   O7    S    
C29   C47   A    
C81   O13   A    
C20   C66   A    
C100  H31   S    
C97   H22   S    
C100  H33   S    
C54   C87   A    
C59   C68   S    
C101  H36   S    
C81   O33   A    
C63   C76   A    
C1    O5    A    
C23   C40   A    
C7    O12   A    
C60   C73   A    
C102  O27   S    
C31   C40   A    
C96   H20   S    
C28   C49   A    
Cu3   O23   S    
C55   C88   A    
C8    O18   S    
C38   C45   A    
C2    C79   S    
C100  H32   S    
C77   C85   A    
C102  H40   S    
Cu2   O3    S    
C19   C52   A    
C40   C43   A    
Cu2   O16   S    
C26   O7    A    
C99   H28   S    
Cu5   Cu6   S    
C23   C89   A    
C99   H30   S    
C36   C46   A    
C9    C55   A    
C2    O15   A    
C22   C88   A    
Cu6   O34   S    
C101  O26   S    
C10   C56   A    
C58   C91   A    
C49   H53   S    
Cu4   O36   S    
C12   C58   A    
C60   C93   A    
C25   C32   A    
C28   C34   A    
C84   H8    S    
C41   H1    S    
C48   O34   A    
Cu4   O8    S    
C4    O29   S    
C16   C62   A    
C74   C82   A    
C4    H44   S    
C18   C51   A    
C6    C74   S    
Cu4   O31   S    
C47   H52   S    
C65   C90   A    
C22   C34   A    
C30   C53   A    
C3    H41   S    
C25   C91   A    
C57   C90   A    
C62   C87   A    
C96   H18   S    
C18   C64   A    
C23   C30   A    
C83   H7    S    
C100  O25   S    
C11   O21   S    
C8    C41   A    
C82   H6    S    
C86   H10   S    
C16   O26   S    
C3    O28   S    
C8    C54   A    
C37   O8    A    
Cu5   O35   S    
C55   C68   A    
C92   O23   A    
C95   O19   S    
Cu2   O12   S    
C54   C67   A    
C52   H3    S    
C78   C92   S    
C33   C50   A    
C14   C61   A    
C98   H27   S    
C1    C69   S    
C96   H19   S    
C32   C51   A    
C69   C83   A    
C61   C88   A    
C102  H39   S    
Cu2   O6    S    
C48   O9    A    
C94   H11   S    
C95   H17   S    
C80   H5    S    
C77   C81   S    
C70   O32   A    
Cu6   O11   S    
Cu3   O2    S    
C7    O17   A    
C11   C44   A    
C15   O4    A    
C94   O18   S    
C57   C71   A    
Cu6   O33   S    
C85   H9    S    
C14   C47   A    
C35   C41   A    
C37   O2    A    
C94   H14   S    
C53   H4    S    
Cu3   O15   S    
C56   C89   A    
C21   C28   A    
C5    H50   S    
C51   H2    S    
C5    H49   S    
Cu6   O10   S    
C70   C76   S    
C10   O20   S    
C15   O6    A    
C27   C93   A    
C66   C89   A    
C59   O10   A    
C25   C38   A    
C16   C49   A    
C71   C84   A    
C75   C80   A    
C95   H15   S    
C37   C73   S    
C18   O28   S    
C3    H42   S    
C13   O24   S    
C10   C43   A    
Cu1   O1    S    
C92   O14   A    
C1    O3    A    
C67   C80   A    
C97   H24   S    
C96   O20   S    
C12   C45   A    
C24   C90   A    
C17   C50   A    
C20   O30   S    
C7    C75   S    
C32   C36   A    
C39   C44   A    
C21   C35   A    
C27   C36   A    
C5    H48   S    
C15   C71   S    
Cu3   Cu4   S    
C29   C35   A    
C3    H43   S    
C33   C38   A    
C65   C78   A    
C2    O31   A    
C17   O27   S    
C43   H23   S    
C24   C31   A    
C68   C82   A    
C5    O30   S    
C17   C63   A    
C79   C83   A    
C14   O25   S    
C101  H35   S    
C42   H12   S    
C12   O22   S    
Cu5   O13   S    
C59   O35   A    
C46   H51   S    
C30   C39   A    
C19   C65   A    
Cu1   O17   S    
C98   H26   S    
C99   O24   S    
C48   C67   S    
C98   O22   S    
C26   O36   A    
C70   O11   A    
C73   C86   A    
C9    O19   S    
C97   H21   S    
C94   H13   S    
C78   C84   A    
C4    H47   S    
C45   H45   S    
C6    O1    A    
Cu1   O4    S    
C44   H34   S    
C56   C69   A    
Cu1   Cu2   S    
Cu4   O14   S    
C13   C46   A    
C99   H29   S    
C97   O21   S    
C64   C91   A    
C63   C93   A    
C11   C57   A    
Cu5   O32   S    
C102  H38   S    
C62   C75   A    
C6    O16   A    
C61   C74   A    
C19   O29   S    
