data_mof_unit_34190.cif
_audit_creation_date              2013-03-05T16:22:15-0500
_audit_creation_method            fapswitch 2.2
_symmetry_space_group_name_H-M    P1
_symmetry_Int_Tables_number       1
_space_group_crystal_system       triclinic
_cell_length_a                    10.560582
_cell_length_b                    10.477132
_cell_length_c                    9.827867
_cell_angle_alpha                 89.057765
_cell_angle_beta                  90.195205
_cell_angle_gamma                 88.468869
_cell_volume                      1086.85724468

loop_
_atom_site_label
_atom_site_type_symbol
_atom_site_description
_atom_site_fract_x
_atom_site_fract_y
_atom_site_fract_z
_atom_type_partial_charge
O1    O     O_R   0.500010 0.313960 0.616610 -0.569419
O2    O     O_R   0.499990 0.686040 0.383390 -0.570916
O3    O     O_R   0.500060 0.313950 0.383350 -0.645067
O4    O     O_R   0.499940 0.686050 0.616650 -0.646712
C1    C     C_R   0.501194 0.257716 0.500842 0.950419
C2    C     C_R   0.498864 0.742273 0.499152 0.952831
O5    O     O_R   0.313930 0.499970 0.616610 -0.590203
O6    O     O_R   0.686070 0.500030 0.383390 -0.590401
O7    O     O_R   0.313980 0.499960 0.383350 -0.588167
O8    O     O_R   0.686020 0.500040 0.616650 -0.586346
C3    C     C_R   0.258144 0.496635 0.499950 1.022977
C4    C     C_R   0.741805 0.503598 0.500033 1.021484
Zn1   Zn    Zn3+2 0.499970 0.500010 0.655740 1.063040
Zn2   Zn    Zn3+2 0.500030 0.499990 0.344260 1.061440
C5    C     C_3   0.040180 0.406115 0.584599 0.418212
C6    C     C_3   0.959590 0.594779 0.415259 0.373935
C7    C     C_3   0.957876 0.390572 0.458081 0.212213
C8    C     C_3   0.042017 0.610291 0.541744 0.199053
C9    C     C_3   0.876391 0.505645 0.499747 -0.340723
C10   C     C_3   0.123477 0.495118 0.500126 -0.335340
C11   C     C_3   0.958157 0.522887 0.628451 -0.268725
C12   C     C_3   0.041688 0.477999 0.371380 -0.268307
H1    H     H_    0.923090 0.546639 0.731292 0.264466
H2    H     H_    0.076781 0.454387 0.268504 0.260216
C13   C     C_3   0.521456 0.037264 0.628151 -0.136648
C14   C     C_3   0.478754 0.962685 0.371790 -0.128530
C15   C     C_3   0.612785 0.952721 0.544076 -0.119013
C16   C     C_3   0.387429 0.047225 0.455854 -0.106275
H3    H     H_    0.704476 0.909769 0.579891 0.195762
H4    H     H_    0.295763 0.090104 0.419885 0.203518
H5    H     H_    0.538436 0.071153 0.732906 0.206253
H6    H     H_    0.461713 0.928711 0.267072 0.195110
C17   C     C_3   0.498909 0.877512 0.498046 -0.034014
C18   C     C_3   0.501285 0.122455 0.501907 -0.036073
C19   C     C_3   0.407577 0.959405 0.582180 -0.091646
C20   C     C_3   0.592631 0.040561 0.417761 -0.084194
H7    H     H_    0.333275 0.923052 0.651141 0.226366
H8    H     H_    0.666971 0.076928 0.348859 0.228643
C21   C     C_3   0.483921 0.386175 0.051292 -0.208687
C22   C     C_3   0.516148 0.613833 0.948688 -0.247970
C23   C     C_3   0.588928 0.427406 0.955588 0.511884
C24   C     C_3   0.411128 0.572661 0.044419 0.445027
H9    H     H_    0.471001 0.290109 0.097739 0.192033
H10   H     H_    0.529497 0.709757 0.902099 0.175641
N1    N     N_3   0.499910 0.500030 0.863290 -0.147610
N2    N     N_3   0.500090 0.499970 0.136710 -0.149774
C25   C     C_3   0.394220 0.459483 0.951057 -0.163654
C26   C     C_3   0.605819 0.540554 0.048972 -0.159561
H11   H     H_    0.304990 0.427081 0.905878 0.236510
H12   H     H_    0.695098 0.573057 0.094153 0.234472
N3    N     N_R   0.906914 0.270889 0.411894 0.246740
O9    O     O_R   0.940762 0.224750 0.294987 -0.337668
O10   O     O_R   0.824547 0.211564 0.485755 -0.359186
N4    N     N_R   0.093490 0.729728 0.587897 0.227308
O11   O     O_R   0.061977 0.774603 0.706012 -0.321262
O12   O     O_R   0.176073 0.788602 0.513918 -0.378311
S1    S     S_3+6 0.092850 0.280321 0.698112 0.087558
O13   O     O_2   0.219736 0.228707 0.653388 -0.361533
O14   O     O_2   0.103549 0.331985 0.839122 -0.253534
O15   O     O_3   0.988631 0.161920 0.699948 -0.442731
H13   H     H_    0.024121 0.097621 0.765601 0.401641
S2    S     S_3+6 0.905548 0.720186 0.301752 0.103892
O16   O     O_2   0.898666 0.669625 0.159993 -0.203564
O17   O     O_2   0.776087 0.767651 0.343155 -0.379755
O18   O     O_3   0.005943 0.842046 0.302048 -0.406691
H14   H     H_    0.972484 0.901443 0.371475 0.391530
S3    S     S_3+6 0.719552 0.325693 0.908552 0.075648
O19   O     O_2   0.702229 0.271561 0.769745 -0.253595
O20   O     O_2   0.838440 0.400921 0.911824 -0.251288
O21   O     O_3   0.732654 0.205055 0.023115 -0.544462
H15   H     H_    0.811667 0.157938 0.998577 0.416661
S4    S     S_3+6 0.280578 0.674532 0.091654 0.107664
O22   O     O_2   0.161474 0.599812 0.086962 -0.207657
O23   O     O_2   0.296333 0.727354 0.231318 -0.252186
O24   O     O_3   0.266914 0.796278 0.978472 -0.476866
H16   H     H_    0.340579 0.850185 0.996475 0.334116

loop_
_geom_bond_atom_site_label_1
_geom_bond_atom_site_label_2
_geom_bond_distance
_ccdc_geom_bond_type
C13   H5    1.110087 S    
S4    O23   1.498778 D    
C14   H6    1.110165 S    
C15   H3    1.110500 S    
C8    C11   1.540082 S    
O7    Zn2   2.003294 S    
C7    N3    1.456419 S    
Zn2   N2    2.039779 S    
C15   C17   1.526571 S    
O5    C3    1.288648 A    
O1    C1    1.289814 A    
C9    C11   1.544866 S    
S1    O14   1.501053 D    
C5    C7    1.528032 S    
C24   N2    1.489497 S    
O4    Zn1   1.980448 S    
S2    O17   1.502054 D    
C7    C9    1.524779 S    
C16   C19   1.543820 S    
O6    Zn2   2.000700 S    
O21   H15   0.990650 S    
C8    C10   1.525317 S    
C13   C18   1.527425 S    
C26   H12   1.105149 S    
C16   C18   1.526601 S    
C5    S1    1.788634 S    
O2    C2    1.289710 A    
C6    S2    1.789924 S    
S4    O24   1.681534 S    
N2    C26   1.480173 S    
N1    C25   1.479902 S    
C5    C10   1.534905 S    
N4    O12   1.299238 A    
C3    C10   1.422678 S    
N3    O9    1.301286 A    
C23   S3    1.787239 S    
C21   C23   1.523273 S    
S4    O22   1.500159 D    
S1    O15   1.680141 S    
C21   H9    1.110252 S    
S3    O19   1.498461 D    
O15   H13   0.990547 S    
N3    O10   1.299324 A    
O24   H16   0.990614 S    
S2    O16   1.500839 D    
C14   C17   1.527395 S    
O5    Zn1   2.000701 S    
O6    C4    1.288393 A    
C1    C18   1.416995 S    
C24   S4    1.788139 S    
O7    C3    1.290912 A    
O3    Zn2   1.980448 S    
O8    C4    1.290875 A    
C13   C19   1.541659 S    
C21   N2    1.482616 S    
O4    C2    1.287542 A    
C10   C12   1.545152 S    
C11   H1    1.107469 S    
C13   C15   1.543173 S    
C12   H2    1.107544 S    
O1    Zn1   1.993028 S    
C21   C25   1.545173 S    
C14   C20   1.541740 S    
C22   C26   1.545148 S    
N4    O11   1.300584 A    
C6    C12   1.548510 S    
S2    O18   1.681253 S    
C19   H7    1.109598 S    
C22   C24   1.523357 S    
O3    C1    1.287534 A    
O8    Zn1   2.003293 S    
C15   C20   1.543865 S    
C25   H11   1.104346 S    
C14   C16   1.543073 S    
C7    C12   1.539901 S    
C2    C17   1.416789 S    
S3    O21   1.681417 S    
C16   H4    1.110454 S    
Zn1   N1    2.039779 S    
S1    O13   1.501432 D    
C5    C11   1.547943 S    
C6    C9    1.535208 S    
C4    C9    1.422055 S    
C20   H8    1.109593 S    
C17   C19   1.527978 S    
C23   C26   1.524928 S    
C18   C20   1.528133 S    
C24   C25   1.525068 S    
O2    Zn2   1.993028 S    
C8    N4    1.456178 S    
C22   H10   1.110148 S    
C22   N1    1.482671 S    
C6    C8    1.528476 S    
O18   H14   0.990725 S    
C23   N1    1.489557 S    
S3    O20   1.500676 D    
