data_mof_unit_37126.cif
_audit_creation_date              2012-12-10T20:00:04-0500
_audit_creation_method            fapswitch 2.2
_symmetry_space_group_name_H-M    P1
_symmetry_Int_Tables_number       1
_space_group_crystal_system       triclinic
_cell_length_a                    15.003013
_cell_length_b                    14.333868
_cell_length_c                    8.926322
_cell_angle_alpha                 89.999942
_cell_angle_beta                  92.484221
_cell_angle_gamma                 89.999821
_cell_volume                      1917.81226602

loop_
_atom_site_label
_atom_site_type_symbol
_atom_type_description
_atom_site_fract_x
_atom_site_fract_y
_atom_site_fract_z
_atom_type_partial_charge
C1    C     C_R   0.328027 0.500009 0.499659 0.855184
C2    C     C_R   0.419650 0.894348 0.490154 0.372585
C3    C     C_R   0.499694 0.499998 0.218868 0.928350
C4    C     C_R   0.500305 0.499998 0.781132 0.928354
C5    C     C_R   0.499992 0.052771 0.500011 -0.218384
C6    C     C_R   0.499991 0.946369 0.500017 -0.228411
C7    C     C_1   0.499888 0.499984 0.065400 -0.179967
C8    C     C_1   0.500112 0.499983 0.934600 -0.179960
C9    C     C_R   0.095546 0.578408 0.552479 -0.176351
C10   C     C_R   0.907248 0.421779 0.552884 -0.169414
C11   C     C_R   0.904454 0.578411 0.447534 -0.176349
C12   C     C_R   0.671973 0.500008 0.500340 0.855183
C13   C     C_R   0.092753 0.421783 0.447099 -0.169416
C14   C     C_R   0.187539 0.578599 0.551616 -0.156743
C15   C     C_R   0.815207 0.421539 0.552244 -0.185345
C16   C     C_R   0.812461 0.578602 0.448396 -0.156760
C17   C     C_R   0.184793 0.421543 0.447739 -0.185330
C18   C     C_R   0.232168 0.500055 0.499636 -0.031037
C19   C     C_R   0.767832 0.500054 0.500361 -0.031028
C20   C     C_R   0.048130 0.500099 0.499881 0.109321
C21   C     C_R   0.951870 0.500099 0.500118 0.109323
C22   C     C_3   0.431497 0.031586 0.168929 0.167888
C23   C     C_R   0.445894 0.202925 0.399028 0.351648
C24   C     C_3   0.365995 0.978926 0.065194 -0.800584
C25   C     C_3   0.685727 0.955122 0.363764 0.133481
C26   C     C_3   0.777963 0.999068 0.365007 -0.757293
C27   C     C_3   0.568427 0.031587 0.831106 0.167838
C28   C     C_3   0.633879 0.978834 0.934804 -0.800598
C29   C     C_3   0.314309 0.955216 0.636282 0.133524
C30   C     C_3   0.221920 0.998791 0.635105 -0.757481
C31   C     C_R   0.577358 0.796795 0.529884 0.328373
C32   C     C_R   0.554096 0.202925 0.600985 0.351569
C33   C     C_R   0.422639 0.796790 0.470123 0.328566
C34   C     C_R   0.446373 0.104462 0.395557 0.381103
C35   C     C_R   0.580336 0.894355 0.509875 0.372654
C36   C     C_R   0.553607 0.104462 0.604469 0.381218
H1    H     H_    0.061476 0.638763 0.595457 0.142321
H2    H     H_    0.634315 0.708600 0.660219 0.356539
H3    H     H_    0.611408 0.312976 0.684046 0.383563
H4    H     H_    0.365684 0.708604 0.339770 0.356503
H5    H     H_    0.487415 0.983573 0.199931 0.091399
H6    H     H_    0.457155 0.093067 0.108128 0.138032
H7    H     H_    0.311920 0.026397 0.023531 0.257212
H8    H     H_    0.400829 0.950479 0.968256 0.163400
H9    H     H_    0.336315 0.919887 0.126404 0.282884
H10   H     H_    0.687428 0.889063 0.297950 0.131685
H11   H     H_    0.637989 0.004717 0.307601 0.106730
H12   H     H_    0.943600 0.361429 0.595712 0.141688
H13   H     H_    0.827825 0.951041 0.418928 0.259059
H14   H     H_    0.796840 0.013178 0.248221 0.196413
H15   H     H_    0.777972 0.065871 0.428153 0.264184
H16   H     H_    0.512461 0.983641 0.800071 0.091323
H17   H     H_    0.542826 0.093080 0.891949 0.138081
H18   H     H_    0.687993 0.026241 0.976528 0.257193
H19   H     H_    0.599009 0.950387 0.031699 0.163423
H20   H     H_    0.663519 0.919786 0.873547 0.282877
H21   H     H_    0.361905 0.005074 0.692120 0.106975
H22   H     H_    0.312902 0.889259 0.702382 0.131402
H23   H     H_    0.938523 0.638770 0.404568 0.142325
H24   H     H_    0.172197 0.950454 0.581624 0.259008
H25   H     H_    0.203119 0.013072 0.751871 0.196442
H26   H     H_    0.221576 0.065447 0.571585 0.264303
H27   H     H_    0.056400 0.361435 0.404259 0.141688
H28   H     H_    0.223657 0.639365 0.593412 0.187883
H29   H     H_    0.781285 0.360721 0.593954 0.175816
H30   H     H_    0.776343 0.639371 0.406609 0.187862
H31   H     H_    0.218716 0.360729 0.406017 0.175840
H32   H     H_    0.388601 0.312982 0.315945 0.383560
N1    N     N_R   0.500000 0.252470 0.500000 -0.244359
N2    N     N_R   0.500000 0.747530 0.500000 -0.233170
O1    O     O_R   0.369060 0.579480 0.500010 -0.597672
O2    O     O_3   0.653565 0.753338 0.583445 -0.713380
O3    O     O_3   0.610994 0.246050 0.704281 -0.734970
O4    O     O_3   0.346433 0.753329 0.416563 -0.713294
O5    O     O_3   0.386814 0.060373 0.296430 -0.498480
O6    O     O_3   0.662619 0.937749 0.512748 -0.501808
O7    O     O_3   0.613141 0.060370 0.703634 -0.498443
O8    O     O_3   0.337356 0.937721 0.487299 -0.501785
O9    O     O_R   0.630940 0.420520 0.499990 -0.644135
O10   O     O_R   0.630940 0.579480 0.499990 -0.597694
O11   O     O_R   0.369060 0.420520 0.500010 -0.644118
O12   O     O_R   0.500000 0.579460 0.285340 -0.626973
O13   O     O_R   0.500000 0.420540 0.714660 -0.618989
O14   O     O_R   0.500000 0.579460 0.714660 -0.626969
O15   O     O_R   0.500000 0.420540 0.285340 -0.619019
O16   O     O_3   0.388988 0.246051 0.295743 -0.734964
Zn1   Zn    Zn3+2 0.500000 0.606140 0.500000 0.949229
Zn2   Zn    Zn3+2 0.500000 0.393860 0.500000 0.947670

loop_
_geom_bond_atom_site_label_1
_geom_bond_atom_site_label_2
_ccdc_geom_bond_type
C5    C36   A    
C3    O15   A    
H32   O16   S    
C14   C18   A    
O14   Zn1   S    
C4    C8    S    
C28   H20   S    
C7    C8    T    
C15   C19   A    
C1    C18   S    
C1    O1    A    
C24   H9    S    
C32   C36   A    
O10   Zn1   S    
C3    C7    S    
C36   O7    S    
C26   H14   S    
C5    C6    S    
C22   H5    S    
C1    O11   A    
O12   Zn1   S    
C15   H29   S    
C12   O9    A    
C6    C35   A    
C23   N1    A    
C31   N2    A    
C29   O8    S    
C23   O16   S    
C4    O14   A    
C25   H11   S    
C34   O5    S    
O13   Zn2   S    
C2    C6    A    
C22   O5    S    
C11   H23   S    
N2    Zn1   S    
O9    Zn2   S    
C28   H19   S    
C10   C21   A    
H2    O2    S    
C35   O6    S    
C17   H31   S    
C26   H13   S    
C32   O3    S    
C28   H18   S    
C25   C26   S    
C11   C21   A    
C30   H24   S    
C9    C14   A    
C29   C30   S    
C2    O8    S    
C11   C16   A    
C9    C20   A    
C13   H27   S    
C23   C34   A    
C14   H28   S    
C5    C34   A    
C3    O12   A    
C9    H1    S    
C17   C18   A    
C29   H22   S    
N1    Zn2   S    
C33   N2    A    
O1    Zn1   S    
C2    C33   A    
C31   O2    S    
C29   H21   S    
C30   H26   S    
C10   H12   S    
C24   H8    S    
C22   C24   S    
C16   H30   S    
C27   H16   S    
O15   Zn2   S    
C13   C20   A    
C27   O7    S    
C27   H17   S    
C32   N1    A    
C13   C17   A    
C10   C15   A    
C25   O6    S    
C26   H15   S    
C22   H6    S    
C4    O13   A    
C16   C19   A    
C12   O10   A    
C12   C19   S    
H4    O4    S    
C31   C35   A    
H3    O3    S    
O11   Zn2   S    
C33   O4    S    
C20   C21   S    
C30   H25   S    
C27   C28   S    
C24   H7    S    
C25   H10   S    
