data_mof_unit_12626.cif
_audit_creation_date              2012-12-11T14:54:22-0500
_audit_creation_method            fapswitch 2.2
_symmetry_space_group_name_H-M    P1
_symmetry_Int_Tables_number       1
_space_group_crystal_system       triclinic
_cell_length_a                    18.92475
_cell_length_b                    10.944845
_cell_length_c                    18.774262
_cell_angle_alpha                 90.071168
_cell_angle_beta                  89.651599
_cell_angle_gamma                 90.310851
_cell_volume                      3888.55192432

loop_
_atom_site_label
_atom_site_type_symbol
_atom_type_description
_atom_site_fract_x
_atom_site_fract_y
_atom_site_fract_z
_atom_type_partial_charge
C1    C     C_R   0.731090 0.378925 0.646701 0.535815
C2    C     C_R   0.268125 0.380638 0.352659 0.552772
C3    C     C_R   0.231391 0.880272 0.647041 0.535181
C4    C     C_R   0.768529 0.880024 0.352748 0.538269
C5    C     C_3   0.492905 0.398709 0.468215 0.544226
C6    C     C_3   0.489485 0.385198 0.550528 0.547855
C7    C     C_3   0.988809 0.904989 0.465281 0.544543
C8    C     C_3   0.990727 0.890165 0.547953 0.553709
C9    C     C_R   0.757710 0.867485 0.549578 -0.080756
C10   C     C_R   0.322439 0.925655 0.470771 -0.139503
C11   C     C_R   0.196062 0.386820 0.536724 -0.138741
C12   C     C_R   0.812683 0.400044 0.465869 -0.137230
C13   C     C_R   0.768017 0.835154 0.479063 -0.079778
C14   C     C_R   0.314520 0.895876 0.542780 -0.154682
C15   C     C_R   0.199957 0.361113 0.464441 -0.146224
C16   C     C_R   0.805320 0.370273 0.537494 -0.152892
C17   C     C_R   0.749950 0.915756 0.424576 0.041034
C18   C     C_R   0.254857 0.936722 0.580293 0.022051
C19   C     C_R   0.242435 0.432600 0.419738 0.043633
C20   C     C_R   0.754435 0.430190 0.579062 0.029014
C21   C     C_R   0.725240 0.032875 0.440703 -0.160374
C22   C     C_R   0.208551 0.018413 0.547555 -0.098196
C23   C     C_R   0.269885 0.542984 0.445172 -0.083253
C24   C     C_R   0.715444 0.526024 0.549914 -0.095591
C25   C     C_R   0.718465 0.068091 0.511906 -0.167555
C26   C     C_R   0.213471 0.040232 0.475673 -0.113629
C27   C     C_R   0.265037 0.570754 0.517400 -0.100604
C28   C     C_R   0.719319 0.549987 0.477936 -0.113953
C29   C     C_R   0.733857 0.984522 0.566156 0.027581
C30   C     C_R   0.269503 0.993076 0.436157 0.025805
C31   C     C_R   0.230907 0.490006 0.564062 0.045296
C32   C     C_R   0.767453 0.486791 0.435260 0.028019
C33   C     C_R   0.520000 0.053448 0.968673 -0.140189
C34   C     C_R   0.515184 0.057050 0.041403 -0.139478
C35   C     C_R   0.030510 0.558727 0.971124 -0.135262
C36   C     C_R   0.023618 0.563542 0.043767 -0.142683
C37   C     C_R   0.496507 0.165721 0.075403 0.053052
C38   C     C_R   0.512223 0.160635 0.928460 0.025238
C39   C     C_R   0.996764 0.668502 0.075743 0.057894
C40   C     C_R   0.014729 0.661165 0.929204 0.029246
C41   C     C_R   0.488557 0.273393 0.035859 -0.087812
C42   C     C_R   0.497642 0.271319 0.962417 -0.128935
C43   C     C_R   0.982039 0.772585 0.034557 -0.098002
C44   C     C_R   0.992028 0.769347 0.961216 -0.152446
C45   C     C_R   0.560118 0.151001 0.638541 0.543011
C46   C     C_R   0.470706 0.156158 0.351351 0.537113
C47   C     C_R   0.060651 0.651199 0.638840 0.540959
C48   C     C_R   0.969922 0.656053 0.351981 0.544948
C49   C     C_R   0.782030 0.058811 0.980024 0.267311
C50   C     C_R   0.182335 0.919151 0.044703 0.265478
C51   C     C_R   0.317228 0.447703 0.958545 0.268106
C52   C     C_R   0.683957 0.417922 0.044095 0.260694
C53   C     C_R   0.786813 0.031025 0.052420 -0.115023
C54   C     C_R   0.176978 0.904302 0.971698 -0.109159
C55   C     C_R   0.319292 0.441860 0.031950 -0.114392
C56   C     C_R   0.678429 0.401976 0.971313 -0.111345
C57   C     C_R   0.746411 0.935945 0.081755 -0.011696
C58   C     C_R   0.237815 0.897676 0.928744 -0.005486
C59   C     C_R   0.260457 0.402232 0.071467 -0.003484
C60   C     C_R   0.738862 0.402002 0.927665 0.010892
C61   C     C_R   0.693329 0.880504 0.041343 -0.158519
C62   C     C_R   0.304642 0.895412 0.959106 -0.172135
C63   C     C_R   0.199006 0.364687 0.036660 -0.158990
C64   C     C_R   0.805975 0.410428 0.957031 -0.106860
C65   C     C_R   0.685484 0.911477 0.970122 -0.186657
C66   C     C_R   0.310718 0.906497 0.032263 -0.190520
C67   C     C_R   0.195636 0.372551 0.962960 -0.187047
C68   C     C_R   0.812368 0.421002 0.030248 -0.168274
C69   C     C_R   0.731264 0.997244 0.938308 0.036978
C70   C     C_R   0.249894 0.921911 0.074973 0.042938
C71   C     C_R   0.253514 0.418713 0.924007 0.045271
C72   C     C_R   0.751470 0.426813 0.073762 0.037843
C73   C     C_R   0.727492 0.020854 0.639989 0.538277
C74   C     C_R   0.272567 0.019483 0.359954 0.570797
C75   C     C_R   0.227600 0.519335 0.639861 0.541307
C76   C     C_R   0.771987 0.517666 0.360078 0.561117
C77   C     C_R   0.728518 0.376443 0.853285 0.544559
C78   C     C_R   0.271692 0.375611 0.146078 0.551604
C79   C     C_R   0.227886 0.874694 0.853970 0.551185
C80   C     C_R   0.769301 0.881435 0.148640 0.547773
C81   C     C_R   0.533605 0.156248 0.854393 0.546023
C82   C     C_R   0.468336 0.157323 0.146937 0.551467
C83   C     C_R   0.034149 0.656276 0.854670 0.548312
C84   C     C_R   0.968188 0.657720 0.146924 0.551242
C85   C     C_R   0.727243 0.022052 0.861698 0.592287
C86   C     C_R   0.258629 0.969761 0.146163 0.585862
C87   C     C_R   0.242060 0.468174 0.853315 0.572664
C88   C     C_R   0.759011 0.470927 0.145741 0.583201
C89   C     C_R   0.507478 0.166833 0.418539 -0.014854
C90   C     C_R   0.536114 0.154021 0.565607 -0.007346
C91   C     C_R   0.008097 0.665315 0.418481 -0.017448
C92   C     C_R   0.039354 0.656514 0.565323 -0.013382
C93   C     C_R   0.488395 0.260722 0.465265 0.027970
C94   C     C_R   0.498684 0.251363 0.536788 0.003705
C95   C     C_R   0.006822 0.770518 0.461220 0.005555
C96   C     C_R   0.016065 0.763045 0.532716 0.017255
C97   C     C_R   0.552378 0.055088 0.520635 -0.168819
C98   C     C_R   0.538281 0.061401 0.447796 -0.160125
C99   C     C_R   0.048232 0.552560 0.522310 -0.165528
C100  C     C_R   0.032872 0.556627 0.449817 -0.155185
Cr1   Cr    Cr6+3 0.771950 0.169480 0.750100 1.012496
Cr2   Cr    Cr6+3 0.228050 0.169480 0.249900 0.996965
Cr3   Cr    Cr6+3 0.271950 0.669480 0.750100 1.008549
Cr4   Cr    Cr6+3 0.728050 0.669480 0.249900 0.992842
Cr5   Cr    Cr6+3 0.614930 0.323340 0.749170 1.015896
Cr6   Cr    Cr6+3 0.385070 0.323340 0.250830 1.015288
Cr7   Cr    Cr6+3 0.114930 0.823340 0.749170 1.014468
Cr8   Cr    Cr6+3 0.885070 0.823340 0.250830 1.010377
Cr9   Cr    Cr6+3 0.616590 0.010620 0.750610 0.988292
Cr10  Cr    Cr6+3 0.383410 0.010620 0.249390 0.998644
Cr11  Cr    Cr6+3 0.116590 0.510620 0.750610 0.989979
Cr12  Cr    Cr6+3 0.883410 0.510620 0.249390 0.997225
H1    H     H_    0.577834 0.974244 0.541354 0.135292
H2    H     H_    0.550009 0.982762 0.414747 0.136657
H3    H     H_    0.064585 0.466773 0.545158 0.134103
H4    H     H_    0.036440 0.472498 0.419550 0.140762
H5    H     H_    0.645921 0.863596 0.939247 0.131345
H6    H     H_    0.363270 0.910566 0.054746 0.145174
H7    H     H_    0.146926 0.347404 0.936746 0.124144
H8    H     H_    0.864841 0.431319 0.052296 0.142287
H9    H     H_    0.793400 0.749418 0.466762 0.118601
H10   H     H_    0.352535 0.836232 0.567713 0.115177
H11   H     H_    0.172581 0.282619 0.443930 0.111220
H12   H     H_    0.836386 0.296335 0.559065 0.119266
H13   H     H_    0.700822 0.159576 0.524737 0.122026
H14   H     H_    0.171372 0.089539 0.450549 0.157058
H15   H     H_    0.288897 0.653648 0.537198 0.110344
H16   H     H_    0.685262 0.619354 0.455748 0.132987
H17   H     H_    0.532139 0.966210 0.944439 0.128090
H18   H     H_    0.521639 0.972374 0.070476 0.125608
H19   H     H_    0.049375 0.474368 0.948075 0.130203
H20   H     H_    0.035127 0.482233 0.074406 0.120200
O1    O     O_R   0.787510 0.042610 0.670410 -0.514405
O2    O     O_R   0.212490 0.042610 0.329590 -0.537639
O3    O     O_R   0.287510 0.542610 0.670410 -0.515127
O4    O     O_R   0.712490 0.542610 0.329590 -0.536705
O5    O     O_R   0.556450 0.252890 0.823790 -0.506977
O6    O     O_R   0.443550 0.252890 0.176210 -0.509218
O7    O     O_R   0.056450 0.752890 0.823790 -0.509124
O8    O     O_R   0.943550 0.752890 0.176210 -0.504973
O9    O     O_R   0.545750 0.051070 0.830560 -0.532492
O10   O     O_R   0.454250 0.051070 0.169440 -0.533361
O11   O     O_R   0.045750 0.551070 0.830560 -0.524829
O12   O     O_R   0.954250 0.551070 0.169440 -0.533954
O13   O     O_R   0.681210 0.959150 0.825320 -0.516189
O14   O     O_R   0.318790 0.959150 0.174680 -0.515191
O15   O     O_R   0.181210 0.459150 0.825320 -0.515934
O16   O     O_R   0.818790 0.459150 0.174680 -0.515637
O17   O     O_3   0.667820 0.167810 0.749960 -0.303686
O18   O     O_3   0.332180 0.167810 0.250040 -0.264032
O19   O     O_3   0.167820 0.667810 0.749960 -0.280585
O20   O     O_3   0.832180 0.667810 0.250040 -0.262491
O21   O     O_R   0.765670 0.292090 0.675090 -0.530571
O22   O     O_R   0.234330 0.292090 0.324910 -0.533287
O23   O     O_R   0.265670 0.792090 0.675090 -0.527238
O24   O     O_R   0.734330 0.792090 0.324910 -0.531933
O25   O     O_R   0.670220 0.409020 0.668560 -0.484172
O26   O     O_R   0.329780 0.409020 0.331440 -0.473741
O27   O     O_R   0.170220 0.909020 0.668560 -0.489500
O28   O     O_R   0.829780 0.909020 0.331440 -0.476964
O29   O     O_R   0.556580 0.251590 0.674980 -0.468679
O30   O     O_R   0.443420 0.251590 0.325020 -0.493189
O31   O     O_R   0.056580 0.751590 0.674980 -0.487733
O32   O     O_R   0.943420 0.751590 0.325020 -0.487093
O33   O     O_R   0.545890 0.049670 0.670030 -0.528852
O34   O     O_R   0.454110 0.049670 0.329970 -0.532982
O35   O     O_R   0.045890 0.549670 0.670030 -0.531667
O36   O     O_R   0.954110 0.549670 0.329970 -0.532996
O37   O     O_R   0.681340 0.957860 0.676500 -0.516010
O38   O     O_R   0.318660 0.957860 0.323500 -0.504852
O39   O     O_R   0.181340 0.457860 0.676500 -0.524683
O40   O     O_R   0.818660 0.457860 0.323500 -0.504938
O41   O     O_R   0.787380 0.044010 0.830940 -0.471613
O42   O     O_R   0.212620 0.044010 0.169060 -0.481082
O43   O     O_R   0.287380 0.544010 0.830940 -0.467595
O44   O     O_R   0.712620 0.544010 0.169060 -0.485243
O45   O     O_R   0.765540 0.293390 0.823910 -0.480718
O46   O     O_R   0.234460 0.293390 0.176090 -0.506310
O47   O     O_R   0.265540 0.793390 0.823910 -0.501899
O48   O     O_R   0.734460 0.793390 0.176090 -0.506594
O49   O     O_R   0.670090 0.410410 0.829090 -0.536965
O50   O     O_R   0.329910 0.410410 0.170910 -0.536689
O51   O     O_R   0.170090 0.910410 0.829090 -0.529487
O52   O     O_R   0.829910 0.910410 0.170910 -0.535415
O53   O     O_3   0.824307 0.148747 0.949367 -0.545502
C101  C     C_3   0.896543 0.128118 0.963345 -0.121311
H21   H     H_    0.910701 0.029620 0.960272 0.101837
H22   H     H_    0.911344 0.166962 0.015881 0.096039
H23   H     H_    0.928444 0.176687 0.922382 0.133912
O54   O     O_3   0.122339 0.924728 0.087462 -0.550782
C102  C     C_3   0.082616 0.029440 0.070114 -0.111193
H24   H     H_    0.054011 0.016954 0.019138 0.081731
H25   H     H_    0.116116 0.113265 0.067752 0.124907
H26   H     H_    0.042300 0.043748 0.112400 0.128319
O55   O     O_3   0.377812 0.475228 0.919331 -0.566500
C103  C     C_3   0.405587 0.590270 0.939392 -0.118690
H27   H     H_    0.438687 0.582146 0.987697 0.074794
H28   H     H_    0.363496 0.659484 0.947826 0.137054
H29   H     H_    0.440263 0.624063 0.895752 0.135587
O56   O     O_3   0.624093 0.419752 0.087008 -0.554468
C104  C     C_3   0.584701 0.525975 0.072225 -0.116502
H30   H     H_    0.559365 0.520428 0.019135 0.083954
H31   H     H_    0.617772 0.609921 0.075513 0.127235
H32   H     H_    0.542086 0.534423 0.112732 0.127082
H33   H     H_    0.825135 0.078773 0.084897 0.127794
H34   H     H_    0.124895 0.895952 0.948678 0.144467
H35   H     H_    0.368586 0.463773 0.057730 0.127424
H36   H     H_    0.626493 0.388275 0.948945 0.140052
H37   H     H_    0.660664 0.808577 0.063517 0.121434
H38   H     H_    0.351685 0.886543 0.926358 0.123160
H39   H     H_    0.154056 0.329479 0.066258 0.116734
H40   H     H_    0.852859 0.407638 0.923662 0.137614
O57   O     O_3   0.921094 0.934738 0.438627 -0.528152
C105  C     C_3   0.905962 0.060185 0.450117 -0.075779
H41   H     H_    0.950856 0.122551 0.437816 0.107909
H42   H     H_    0.886729 0.075792 0.505262 0.150613
H43   H     H_    0.863400 0.088305 0.413653 0.138448
O58   O     O_3   0.041915 0.962070 0.583924 -0.545754
C106  C     C_3   0.019955 0.084866 0.590504 -0.113896
H44   H     H_    0.965272 0.093929 0.611665 0.137439
H45   H     H_    0.025727 0.133775 0.539120 0.126231
H46   H     H_    0.055028 0.131560 0.629168 0.112083
O59   O     O_3   0.433803 0.458856 0.438314 -0.530477
C107  C     C_3   0.439647 0.587362 0.446536 -0.096583
H47   H     H_    0.494283 0.624190 0.443435 0.115941
H48   H     H_    0.414853 0.616247 0.497433 0.131090
H49   H     H_    0.411856 0.632023 0.401997 0.111848
O60   O     O_3   0.546440 0.439728 0.587893 -0.522918
C108  C     C_3   0.536443 0.566853 0.596687 -0.088923
H50   H     H_    0.481281 0.593087 0.609927 0.128238
H51   H     H_    0.555086 0.616603 0.548715 0.113031
H52   H     H_    0.569070 0.598137 0.642117 0.122172
O61   O     O_3   0.559973 0.442021 0.444149 -0.594820
C109  C     C_3   0.565204 0.443444 0.368956 -0.098212
H53   H     H_    0.514538 0.433503 0.340224 0.156364
H54   H     H_    0.601989 0.370771 0.351154 0.148581
H55   H     H_    0.586407 0.533547 0.352570 0.150640
O62   O     O_3   0.421093 0.409502 0.579467 -0.581187
C110  C     C_3   0.413339 0.358076 0.648266 -0.060108
H56   H     H_    0.446898 0.406790 0.687622 0.153791
H57   H     H_    0.423371 0.258373 0.648954 0.119175
H58   H     H_    0.357769 0.365563 0.665481 0.170252
O63   O     O_3   0.044752 0.979222 0.438294 -0.612123
C111  C     C_3   0.049939 0.969780 0.363355 -0.101346
H59   H     H_    0.997935 0.973420 0.336283 0.155647
H60   H     H_    0.078577 0.885292 0.348109 0.142863
H61   H     H_    0.080438 0.049327 0.343344 0.145970
O64   O     O_3   0.921345 0.893244 0.578133 -0.593394
C112  C     C_3   0.919187 0.847567 0.648271 -0.084200
H62   H     H_    0.956938 0.896067 0.683626 0.165214
H63   H     H_    0.926303 0.747129 0.648641 0.130241
H64   H     H_    0.865969 0.863063 0.670885 0.155651
H65   H     H_    0.770875 0.803159 0.591150 0.122482
H66   H     H_    0.367796 0.891254 0.441742 0.129208
H67   H     H_    0.166375 0.325400 0.570964 0.117373
H68   H     H_    0.851462 0.351592 0.434140 0.123885
H69   H     H_    0.713845 0.097501 0.398718 0.116255
H70   H     H_    0.164582 0.057769 0.576035 0.171900
H71   H     H_    0.296853 0.605072 0.409513 0.116504
H72   H     H_    0.678958 0.578010 0.582075 0.133994
H73   H     H_    0.473226 0.357643 0.061402 0.131258
H74   H     H_    0.494029 0.355311 0.932415 0.162016
H75   H     H_    0.959773 0.854021 0.058392 0.130679
H76   H     H_    0.981463 0.849790 0.929611 0.104477

loop_
_geom_bond_atom_site_label_1
_geom_bond_atom_site_label_2
_ccdc_geom_bond_type
C58   C62   A    
C83   O11   A    
C49   C53   A    
O54   C102  S    
Cr6   O18   S    
C55   C59   A    
C67   H7    S    
C34   C37   A    
Cr10  O34   S    
C41   C42   A    
C14   C18   A    
Cr1   O41   S    
C95   C96   A    
C8    C96   S    
C82   O10   A    
C109  H55   S    
C21   H69   S    
C107  H47   S    
C83   O7    A    
C97   C98   A    
C76   O4    A    
O58   C106  S    
C7    C8    S    
Cr4   O44   S    
C46   C89   S    
Cr4   O48   S    
O57   C105  S    
C22   H70   S    
C15   C19   A    
Cr8   O32   S    
C112  H62   S    
C93   C94   A    
C87   O15   A    
C37   C41   A    
C14   H10   S    
C64   C68   A    
Cr5   O5    S    
C85   O13   A    
C39   C84   S    
C38   C42   A    
C108  H52   S    
C36   H20   S    
C99   H3    S    
C5    C6    S    
C30   C74   S    
C75   O3    A    
Cr6   O6    S    
C29   C73   S    
C84   O12   A    
O63   C111  S    
Cr12  O36   S    
C92   C96   A    
C13   H9    S    
C111  H59   S    
C3    C18   S    
C76   O40   A    
C47   C92   S    
C87   O43   A    
Cr10  O10   S    
C45   O29   A    
C104  H30   S    
Cr6   O50   S    
C9    C13   A    
C105  H42   S    
Cr8   O20   S    
C11   C15   A    
Cr5   O25   S    
C110  H56   S    
C111  H60   S    
O56   C104  S    
C6    C94   S    
C48   C91   S    
C6    O60   S    
Cr7   O51   S    
C53   H33   S    
Cr12  O20   S    
C52   O56   S    
C23   C27   A    
C91   C100  A    
C46   O34   A    
O61   C109  S    
Cr2   O22   S    
C90   C97   A    
C67   C71   A    
C85   O41   A    
C9    C29   A    
Cr10  O14   S    
Cr7   O19   S    
C81   O9    A    
C11   C31   A    
C25   H13   S    
C73   O37   A    
C49   C69   A    
C12   C32   A    
C3    O27   A    
C104  H31   S    
C40   C83   S    
C78   O46   A    
C65   H5    S    
Cr9   O33   S    
C4    O28   A    
C109  H54   S    
C103  H29   S    
Cr10  O18   S    
C86   O14   A    
C59   C78   S    
Cr3   O43   S    
O60   C108  S    
C72   C88   S    
Cr9   O37   S    
C90   C94   A    
C25   C29   A    
Cr7   O27   S    
C63   C67   A    
C60   C77   S    
C112  H63   S    
Cr8   O52   S    
C27   C31   A    
C102  H24   S    
C12   C16   A    
C28   C32   A    
C8    O64   S    
Cr1   O45   S    
O59   C107  S    
C103  H28   S    
C10   C14   A    
C46   O30   A    
C106  H44   S    
Cr8   O8    S    
C62   C66   A    
C105  H41   S    
Cr9   O9    S    
C39   C43   A    
O55   C103  S    
C51   C55   A    
C54   H34   S    
C81   O5    A    
C91   C95   A    
Cr8   O28   S    
C77   O45   A    
Cr12  O16   S    
Cr11  O19   S    
C68   C72   A    
C86   O42   A    
C35   C36   A    
Cr9   O17   S    
C43   C44   A    
C102  H25   S    
C44   H76   S    
C108  H50   S    
C52   C72   A    
Cr11  O15   S    
C41   H73   S    
C106  H45   S    
Cr7   O7    S    
C47   O35   A    
C10   C30   A    
C77   O49   A    
C99   C100  A    
C56   H36   S    
C108  H51   S    
Cr1   O21   S    
C16   C20   A    
C80   O48   A    
Cr3   O19   S    
C3    O23   A    
C33   C34   A    
C62   H38   S    
C1    O25   A    
C110  H57   S    
C78   O50   A    
C61   H37   S    
Cr4   O24   S    
C1    O21   A    
C45   C90   S    
C84   O8    A    
C7    O57   S    
C2    O26   A    
C15   H11   S    
C58   C79   S    
Cr2   O18   S    
C71   C87   S    
C4    C17   S    
Cr10  O38   S    
Cr3   O23   S    
C4    O24   A    
C57   C80   S    
C26   C30   A    
Cr1   O1    S    
C38   C81   S    
C22   C26   A    
Cr2   O46   S    
C104  H32   S    
C79   O47   A    
C37   C82   S    
Cr11  O35   S    
C109  H53   S    
C97   H1    S    
C70   C86   S    
C107  H49   S    
C35   H19   S    
C31   C75   S    
C73   O1    A    
C69   C85   S    
O64   C112  S    
C19   C23   A    
C54   C58   A    
C33   H17   S    
C42   H74   S    
C21   C25   A    
O62   C110  S    
C112  H64   S    
C53   C57   A    
Cr4   O4    S    
C5    O59   S    
C2    C19   S    
C10   H66   S    
C36   C39   A    
Cr9   O13   S    
C24   C28   A    
C80   O52   A    
C63   H39   S    
C103  H27   S    
C1    C20   S    
C105  H43   S    
C107  H48   S    
C32   C76   S    
C5    C93   S    
C7    C95   S    
C51   C71   A    
C57   C61   A    
Cr2   O42   S    
C48   O32   A    
Cr11  O11   S    
C6    O62   S    
C98   H2    S    
Cr5   O17   S    
C24   H72   S    
C75   O39   A    
C59   C63   A    
C33   C38   A    
C88   O44   A    
C111  H61   S    
C13   C17   A    
C89   C98   A    
C60   C64   A    
C100  H4    S    
Cr4   O20   S    
C101  H23   S    
C18   C22   A    
C35   C40   A    
C50   C70   A    
C102  H26   S    
C47   O31   A    
C55   H35   S    
C50   C54   A    
Cr6   O26   S    
C28   H16   S    
C82   O6    A    
C106  H46   S    
C43   H75   S    
C88   O16   A    
C9    H65   S    
Cr12  O12   S    
O53   C101  S    
Cr12  O40   S    
C45   O33   A    
C65   C69   A    
C74   O2    A    
Cr1   O17   S    
C79   O51   A    
C110  H58   S    
Cr3   O47   S    
C11   H67   S    
Cr6   O30   S    
C61   C65   A    
C89   C93   A    
C50   O54   S    
Cr3   O3    S    
C27   H15   S    
C74   O38   A    
C8    O58   S    
C23   H71   S    
Cr2   O2    S    
C12   H68   S    
C56   C60   A    
C40   C44   A    
C49   O53   S    
C66   C70   A    
C34   H18   S    
C2    O22   A    
C66   H6    S    
C7    O63   S    
C26   H14   S    
C64   H40   S    
Cr5   O29   S    
C5    O61   S    
Cr7   O31   S    
Cr5   O49   S    
C101  H21   S    
C16   H12   S    
C101  H22   S    
C48   O36   A    
C20   C24   A    
C51   O55   S    
C68   H8    S    
C52   C56   A    
C92   C99   A    
Cr11  O39   S    
C17   C21   A    
