data_mof_unit_43055.cif
_audit_creation_date              2013-03-05T15:54:34-0500
_audit_creation_method            fapswitch 2.2
_symmetry_space_group_name_H-M    P1
_symmetry_Int_Tables_number       1
_space_group_crystal_system       triclinic
_cell_length_a                    19.245437
_cell_length_b                    18.481135
_cell_length_c                    12.298276
_cell_angle_alpha                 90.325782
_cell_angle_beta                  129.107225
_cell_angle_gamma                 89.997498
_cell_volume                      3394.1597988

loop_
_atom_site_label
_atom_site_type_symbol
_atom_site_description
_atom_site_fract_x
_atom_site_fract_y
_atom_site_fract_z
_atom_type_partial_charge
O1    O     O_R   0.608610 0.924520 0.551740 -0.570129
O2    O     O_R   0.608610 0.075480 0.551740 -0.570768
O3    O     O_R   0.108610 0.424520 0.551740 -0.562360
O4    O     O_R   0.108610 0.575480 0.551740 -0.567766
O5    O     O_R   0.564110 0.924510 0.685150 -0.611340
O6    O     O_R   0.564110 0.075490 0.685150 -0.621752
O7    O     O_R   0.064110 0.424510 0.685150 -0.597023
O8    O     O_R   0.064110 0.575490 0.685150 -0.626560
C1    C     C_R   0.615248 0.901088 0.658025 0.803112
C2    C     C_R   0.608176 0.104260 0.648346 0.820181
C3    C     C_R   0.116136 0.402406 0.658821 0.796122
C4    C     C_R   0.106212 0.605484 0.646346 0.807011
Cu1   Cu    Cu3+1 0.526340 0.000000 0.421010 1.054740
Cu2   Cu    Cu3+1 0.026340 0.500000 0.421010 1.047267
Cu3   Cu    Cu3+1 0.473640 0.000000 0.578990 0.968813
Cu4   Cu    Cu3+1 0.973640 0.500000 0.578990 0.961687
O9    O     O_R   0.435880 0.075470 0.314850 -0.516233
O10   O     O_R   0.435880 0.924530 0.314850 -0.553784
O11   O     O_R   0.935880 0.575470 0.314850 -0.534348
O12   O     O_R   0.935880 0.424530 0.314850 -0.545934
O13   O     O_R   0.391380 0.075460 0.448260 -0.610206
O14   O     O_R   0.391380 0.924540 0.448260 -0.586855
O15   O     O_R   0.891380 0.575460 0.448260 -0.605870
O16   O     O_R   0.891380 0.424540 0.448260 -0.580691
C5    C     C_R   0.386536 0.100289 0.344704 0.900390
C6    C     C_R   0.380839 0.904725 0.336797 0.889285
C7    C     C_R   0.890125 0.602853 0.349739 0.849288
C8    C     C_R   0.886657 0.399207 0.344830 0.858912
C9    C     C_R   0.675552 0.288492 0.158441 0.370712
C10   C     C_R   0.700575 0.732325 0.192922 0.379793
C11   C     C_R   0.190495 0.773197 0.177773 0.377935
C12   C     C_R   0.157619 0.175284 0.086979 0.374520
H1    H     H_    0.288591 0.819642 0.380673 0.220334
H2    H     H_    0.224015 0.112242 0.274249 0.205990
H3    H     H_    0.752471 0.355133 0.342878 0.223138
H4    H     H_    0.767675 0.658825 0.364250 0.216028
C13   C     C_R   0.304144 0.858483 0.231998 -0.194032
C14   C     C_R   0.317135 0.152437 0.247318 -0.182843
C15   C     C_R   0.816351 0.346449 0.249092 -0.210644
C16   C     C_R   0.832875 0.665368 0.272212 -0.206995
C17   C     C_R   0.717165 0.197490 0.694491 -0.129552
C18   C     C_R   0.774416 0.872122 0.795204 -0.190832
C19   C     C_R   0.202978 0.705734 0.678391 -0.159535
C20   C     C_R   0.278250 0.396689 0.831961 -0.206411
C21   C     C_R   0.253902 0.767548 0.746613 0.363274
C22   C     C_R   0.351326 0.382395 0.970224 0.355559
C23   C     C_R   0.770567 0.258018 0.767028 0.358991
C24   C     C_R   0.855118 0.855093 0.924505 0.352242
C25   C     C_R   0.263150 0.795746 0.860931 -0.101034
C26   C     C_R   0.343713 0.331778 0.045687 -0.092098
C27   C     C_R   0.776028 0.286606 0.877113 -0.112839
C28   C     C_R   0.855325 0.818855 0.023563 -0.087068
C29   C     C_R   0.724179 0.257313 0.911110 0.067787
C30   C     C_R   0.774505 0.796232 0.993084 0.056366
C31   C     C_R   0.208498 0.769819 0.892728 0.072073
C32   C     C_R   0.264590 0.290190 0.980901 0.059788
C33   C     C_R   0.655982 0.207840 0.817052 0.018355
C34   C     C_R   0.692594 0.819193 0.866814 0.019697
C35   C     C_R   0.147462 0.712829 0.809328 0.019118
C36   C     C_R   0.189052 0.308182 0.842934 0.012427
C37   C     C_R   0.214404 0.796618 0.007657 -0.040532
C38   C     C_R   0.255864 0.235730 0.053016 -0.074294
C39   C     C_R   0.734292 0.279532 0.030660 -0.067455
C40   C     C_R   0.772642 0.755242 0.088683 -0.078196
C41   C     C_R   0.663677 0.266760 0.036815 -0.109762
C42   C     C_R   0.695902 0.759429 0.081149 -0.116919
C43   C     C_R   0.164962 0.761522 0.042796 -0.113958
C44   C     C_R   0.168536 0.212291 0.997878 -0.116945
C45   C     C_R   0.584198 0.232765 0.921062 0.338364
C46   C     C_R   0.615010 0.783520 0.956089 0.344862
C47   C     C_R   0.090017 0.719411 0.938224 0.343135
C48   C     C_R   0.096307 0.223624 0.854138 0.365365
C49   C     C_R   0.582733 0.201523 0.816206 -0.222417
C50   C     C_R   0.612847 0.805395 0.846041 -0.219474
C51   C     C_R   0.080766 0.697819 0.821203 -0.208346
C52   C     C_R   0.107509 0.271846 0.779298 -0.190458
C53   C     C_R   0.267291 0.857341 0.089452 0.278259
C54   C     C_R   0.330574 0.200439 0.173319 0.279876
C55   C     C_R   0.815250 0.310696 0.147098 0.264758
C56   C     C_R   0.840478 0.705407 0.182609 0.287757
C57   C     C_R   0.264188 0.816867 0.273628 -0.253338
C58   C     C_R   0.232614 0.145402 0.211069 -0.246248
C59   C     C_R   0.747696 0.333392 0.256360 -0.235982
C60   C     C_R   0.768057 0.683958 0.285243 -0.270300
C61   C     C_R   0.660416 0.170737 0.720343 -0.130381
C62   C     C_R   0.692936 0.857984 0.767625 -0.122142
C63   C     C_R   0.152668 0.675302 0.712851 -0.144879
C64   C     C_R   0.195798 0.363057 0.770725 -0.106329
H5    H     H_    0.718289 0.172902 0.615462 0.210567
H6    H     H_    0.776047 0.903762 0.722926 0.187541
H7    H     H_    0.201979 0.682136 0.596567 0.219996
H8    H     H_    0.283048 0.440314 0.778397 0.172611
H9    H     H_    0.311457 0.838711 0.921164 0.182818
H10   H     H_    0.398710 0.328764 0.156505 0.211590
H11   H     H_    0.816925 0.334193 0.930007 0.180366
H12   H     H_    0.919007 0.812319 0.126580 0.216319
H13   H     H_    0.519923 0.178631 0.726928 0.203876
H14   H     H_    0.547595 0.812922 0.745535 0.195769
H15   H     H_    0.018935 0.671005 0.738422 0.200653
H16   H     H_    0.052215 0.280154 0.669227 0.184433
C65   C     C_R   0.684326 0.999864 0.288981 0.200590
C66   C     C_R   0.184147 0.495724 0.288803 0.197598
H17   H     H_    0.702741 0.998899 0.480301 0.151066
H18   H     H_    0.202733 0.498763 0.480233 0.152353
H19   H     H_    0.719043 0.999618 0.108983 0.201226
H20   H     H_    0.218853 0.496090 0.108868 0.199346
N1    N     N_R   0.566260 0.000000 0.302220 -0.216235
N2    N     N_R   0.066260 0.500000 0.302220 -0.210566
C67   C     C_R   0.344826 0.002196 0.627719 0.076210
C68   C     C_R   0.844766 0.500096 0.627608 0.071324
C69   C     C_R   0.311475 0.004903 0.700503 0.262719
C70   C     C_R   0.811250 0.497854 0.700151 0.249027
C71   C     C_R   0.370305 0.004626 0.846667 -0.152737
C72   C     C_R   0.870002 0.495679 0.846265 -0.164460
C73   C     C_R   0.463752 0.002353 0.922269 0.027564
C74   C     C_R   0.963494 0.495992 0.922003 0.023791
C75   C     C_R   0.494588 0.000756 0.842826 0.316397
C76   C     C_R   0.994458 0.497976 0.842735 0.292247
C77   C     C_R   0.527579 0.001615 0.073032 0.007181
C78   C     C_R   0.027301 0.495757 0.072870 0.000355
C79   C     C_R   0.620745 0.000608 0.141203 0.119519
C80   C     C_R   0.120509 0.495292 0.141037 0.108083
C81   C     C_R   0.648764 0.000221 0.060844 -0.204444
C82   C     C_R   0.148563 0.495939 0.060712 -0.202547
C83   C     C_R   0.587417 0.000290 0.916019 -0.165002
C84   C     C_R   0.087285 0.498149 0.915993 -0.167934
C85   C     C_R   0.503027 0.001271 0.159934 0.114642
C86   C     C_R   0.002815 0.498297 0.159883 0.171348
C87   C     C_R   0.654865 0.999552 0.367026 0.103631
C88   C     C_R   0.154812 0.498312 0.366942 0.100832
N3    N     N_R   0.434410 0.000000 0.697680 -0.235558
N4    N     N_R   0.934410 0.500000 0.697680 -0.237010
H21   H     H_    0.434234 0.001813 0.117270 0.165186
H22   H     H_    0.933886 0.499287 0.117347 0.132241
H23   H     H_    0.299016 0.002267 0.514378 0.161268
H24   H     H_    0.799006 0.501173 0.514301 0.163320
H25   H     H_    0.340954 0.006604 0.897647 0.194207
H26   H     H_    0.840599 0.493328 0.897156 0.159910
H27   H     H_    0.616611 0.000173 0.866038 0.204133
H28   H     H_    0.116503 0.500551 0.866125 0.203194
Br1   Br    Br    0.811606 0.998823 0.390909 -0.352285
Br2   Br    Br    0.311399 0.493883 0.390573 -0.412227
Br3   Br    Br    0.185166 0.008405 0.599962 -0.292981
Br4   Br    Br    0.684838 0.496299 0.599214 -0.360677
N5    N     N_R   0.502347 0.234251 0.901627 0.166806
O17   O     O_R   0.473968 0.295086 0.914230 -0.288567
O18   O     O_R   0.448515 0.178681 0.846933 -0.337377
N6    N     N_R   0.532389 0.778371 0.932270 0.157574
O19   O     O_R   0.495639 0.836767 0.934299 -0.328283
O20   O     O_R   0.497062 0.715448 0.917999 -0.288531
N7    N     N_R   0.017204 0.705244 0.939089 0.151319
O21   O     O_R   0.938737 0.731382 0.838853 -0.310454
O22   O     O_R   0.021484 0.650194 0.008020 -0.297044
N8    N     N_R   0.016765 0.179115 0.777988 0.175145
O23   O     O_R   0.943470 0.201358 0.659661 -0.283275
O24   O     O_R   0.022641 0.111053 0.809395 -0.244569
N9    N     N_R   0.620748 0.260701 0.190799 0.184114
O25   O     O_R   0.603241 0.300879 0.258054 -0.255538
O26   O     O_R   0.604817 0.191504 0.180205 -0.296715
N10   N     N_R   0.639252 0.754219 0.216113 0.169320
O27   O     O_R   0.626229 0.822773 0.221504 -0.331399
O28   O     O_R   0.610666 0.707454 0.258751 -0.289136
N11   N     N_R   0.150223 0.735558 0.226520 0.175709
O29   O     O_R   0.111337 0.772928 0.264409 -0.259515
O30   O     O_R   0.176678 0.670195 0.273906 -0.311694
N12   N     N_R   0.072301 0.170917 0.056766 0.171606
O31   O     O_R   0.018217 0.225898 0.001825 -0.285456
O32   O     O_R   0.053881 0.116696 0.101989 -0.260149
N13   N     N_R   0.259721 0.923748 0.020020 0.106821
O33   O     O_R   0.199828 0.928360 0.884285 -0.292466
O34   O     O_R   0.291008 0.984377 0.089715 -0.380706
N14   N     N_R   0.417150 0.203941 0.207822 0.121702
O35   O     O_R   0.487965 0.220002 0.334862 -0.334172
O36   O     O_R   0.426045 0.185669 0.114824 -0.257202
N15   N     N_R   0.898508 0.288488 0.180095 0.133009
O37   O     O_R   0.947899 0.333426 0.173830 -0.348012
O38   O     O_R   0.918638 0.220075 0.198008 -0.261182
N16   N     N_R   0.909844 0.688386 0.174428 0.123126
O39   O     O_R   0.993485 0.697904 0.283378 -0.292608
O40   O     O_R   0.889634 0.659590 0.060789 -0.301794
Br5   Br    Br    0.306293 0.813934 0.675578 -0.386347
Br6   Br    Br    0.458225 0.438907 0.061588 -0.327433
Br7   Br    Br    0.835816 0.302157 0.715841 -0.376501
Br8   Br    Br    0.965219 0.889393 0.972333 -0.311970

loop_
_geom_bond_atom_site_label_1
_geom_bond_atom_site_label_2
_geom_bond_distance
_ccdc_geom_bond_type
C56   N16   1.435364 S    
C17   H5    1.083103 S    
C39   C41   1.427724 A    
C2    C61   1.472706 S    
N9    O25   1.301363 A    
C31   C35   1.417401 A    
C67   H23   1.081627 S    
C45   N5    1.436803 S    
N13   O33   1.302569 A    
C16   C60   1.396918 A    
C68   H24   1.081621 S    
N11   O29   1.300164 A    
O10   C6    1.300289 A    
O3    C3    1.299131 A    
C15   C59   1.400475 A    
N1    C87   1.352275 A    
C70   C72   1.395254 A    
N5    O17   1.300442 A    
C36   C64   1.410563 A    
C21   Br5   1.906453 S    
C50   H14   1.080713 S    
C39   C55   1.409225 A    
C83   H27   1.062620 S    
C10   N10   1.435678 S    
C84   H28   1.062862 S    
Cu1   O10   1.947536 S    
N11   O30   1.300656 A    
N6    O20   1.301005 A    
C9    C59   1.394974 A    
C24   C28   1.391333 A    
C12   N12   1.438990 S    
C67   C69   1.392834 A    
C65   C79   1.412536 A    
N16   O40   1.301351 A    
C81   C83   1.383264 A    
H19   C81   1.081616 S    
O8    Cu4   1.947889 S    
C33   C49   1.408017 A    
C12   C58   1.395671 A    
O2    Cu1   1.949612 S    
O6    Cu3   1.947889 S    
C40   C56   1.412969 A    
C65   Br1   1.923184 S    
Cu3   O14   1.949294 S    
C47   N7    1.432205 S    
C37   C53   1.415247 A    
C73   C75   1.427835 A    
C27   H11   1.078772 S    
C46   C50   1.389970 A    
N7    O21   1.300653 A    
C16   C56   1.412795 A    
C34   C50   1.410824 A    
C45   C49   1.393835 A    
C18   C62   1.403684 A    
O15   C7    1.301924 A    
O4    C4    1.312907 A    
O11   C7    1.299903 A    
C7    C16   1.464592 S    
N8    O24   1.301757 A    
C20   H8    1.084104 S    
C69   Br3   1.910828 S    
C12   C44   1.418318 A    
C32   C38   1.423326 A    
Cu2   N2    2.034812 S    
Cu4   O16   1.949294 S    
H18   C88   1.081987 S    
C14   C58   1.395045 A    
N12   O32   1.301617 A    
N13   O34   1.300296 A    
C13   C57   1.395059 A    
Cu4   N4    2.022619 S    
C34   C62   1.422016 A    
C51   H15   1.078909 S    
N5    O18   1.301389 A    
C28   C30   1.413298 A    
N16   O39   1.301460 A    
C35   C63   1.428087 A    
C77   C79   1.421941 A    
C11   N11   1.426507 S    
C48   N8    1.442182 S    
Cu2   O12   1.947536 S    
O1    C1    1.306978 A    
N6    O19   1.299012 A    
C44   C48   1.416085 A    
N15   O38   1.301019 A    
C24   Br8   1.913441 S    
H3    C59   1.083415 S    
C26   H10   1.077901 S    
C23   C27   1.391209 A    
C14   C54   1.410057 A    
C8    C15   1.464606 S    
C25   C31   1.417702 A    
C13   C53   1.416956 A    
C36   C52   1.403904 A    
C19   H7    1.083423 S    
C74   C78   1.440921 A    
C72   C74   1.410933 A    
C18   H6    1.083593 S    
C15   C55   1.402666 A    
C49   H13   1.079878 S    
O5    C1    1.296047 A    
C67   N3    1.357726 A    
C86   H22   1.076302 S    
C5    C14   1.463619 S    
H17   C87   1.081992 S    
C37   C43   1.426479 A    
O7    C3    1.296812 A    
N15   O37   1.300933 A    
C21   C25   1.398531 A    
C3    C64   1.456995 S    
O8    C4    1.297085 A    
O5    Cu3   1.958387 S    
C54   N14   1.438112 S    
C17   C23   1.391229 A    
Cu3   N3    2.022619 S    
C48   C52   1.395539 A    
C69   C71   1.394901 A    
C1    C62   1.468538 S    
C18   C24   1.389202 A    
N2    C86   1.363478 A    
C68   N4    1.357762 A    
C19   C21   1.386130 A    
C40   C42   1.422404 A    
N8    O23   1.301364 A    
C10   C42   1.414368 A    
O3    Cu2   1.962553 S    
C9    C41   1.418743 A    
C72   H26   1.077470 S    
C23   Br7   1.908365 S    
O7    Cu4   1.958387 S    
H1    C57   1.084218 S    
Cu4   O15   1.962232 S    
C73   C77   1.440110 A    
Cu1   Cu3   2.699886 S    
C65   C87   1.389017 A    
N12   O31   1.301104 A    
Cu2   Cu4   2.699886 S    
O1    Cu1   1.962553 S    
C80   C82   1.393022 A    
O2    C2    1.303789 A    
C35   C51   1.408158 A    
C17   C61   1.406501 A    
N14   O35   1.301946 A    
C78   C80   1.422543 A    
O16   C8    1.301084 A    
C82   C84   1.383118 A    
C30   C34   1.412729 A    
C53   N13   1.453102 S    
O13   C5    1.303103 A    
H2    C58   1.083675 S    
C4    C63   1.482825 S    
N2    C88   1.351997 A    
Cu2   O11   1.958030 S    
C38   C54   1.417360 A    
C85   H21   1.073277 S    
C29   C33   1.403367 A    
O6    C2    1.301470 A    
C9    N9    1.437529 S    
C78   C86   1.415996 A    
C6    C13   1.468932 S    
C38   C44   1.425161 A    
C52   H16   1.083282 S    
O12   C8    1.301921 A    
C22   C26   1.392581 A    
C11   C57   1.390172 A    
Cu1   O9    1.958030 S    
C71   H25   1.077048 S    
O9    C5    1.298034 A    
N10   O27   1.300901 A    
C22   Br6   1.912181 S    
C19   C63   1.397792 A    
C76   C84   1.404545 A    
O4    Cu2   1.949612 S    
C20   C64   1.399524 A    
C26   C32   1.416656 A    
C47   C51   1.390084 A    
C29   C39   1.414320 A    
C55   N15   1.442970 S    
C70   Br4   1.910579 S    
C42   C46   1.405158 A    
C30   C40   1.421525 A    
H4    C60   1.083535 S    
C41   C45   1.415574 A    
C31   C37   1.430164 A    
N14   O36   1.301559 A    
C74   C76   1.428320 A    
C28   H12   1.079188 S    
C43   C47   1.410184 A    
N7    O22   1.297004 A    
C10   C60   1.387817 A    
C75   N3    1.385475 A    
C68   C70   1.392868 A    
C79   C81   1.392747 A    
C76   N4    1.385380 A    
C11   C43   1.417899 A    
C27   C29   1.411569 A    
N1    C85   1.362928 A    
C32   C36   1.413332 A    
Cu3   O13   1.962232 S    
C46   N6    1.426631 S    
N9    O26   1.301589 A    
O14   C6    1.303013 A    
H20   C82   1.081665 S    
Cu1   N1    2.034812 S    
C66   C88   1.388664 A    
C66   Br2   1.923270 S    
C25   H9    1.080792 S    
C66   C80   1.412284 A    
C75   C83   1.404781 A    
C33   C61   1.418026 A    
C20   C22   1.388258 A    
N10   O28   1.301435 A    
C71   C73   1.411234 A    
C77   C85   1.415160 A    
