data_mof_unit_21047.cif
_audit_creation_date              2012-12-10T16:56:37-0500
_audit_creation_method            fapswitch 2.2
_symmetry_space_group_name_H-M    P1
_symmetry_Int_Tables_number       1
_space_group_crystal_system       triclinic
_cell_length_a                    10.741568
_cell_length_b                    10.978367
_cell_length_c                    9.753114
_cell_angle_alpha                 90.220557
_cell_angle_beta                  89.82568
_cell_angle_gamma                 90.451713
_cell_volume                      1150.08527342

loop_
_atom_site_label
_atom_site_type_symbol
_atom_type_description
_atom_site_fract_x
_atom_site_fract_y
_atom_site_fract_z
_atom_type_partial_charge
C1    C     C_R   0.499912 0.265537 0.499539 0.848437
C2    C     C_3   0.878290 0.501255 0.498568 0.082781
C3    C     C_3   0.928856 0.617410 0.571122 -0.340402
C4    C     C_3   0.929322 0.499106 0.349373 -0.345944
C5    C     C_2   0.485759 0.932676 0.396546 -0.155209
C6    C     C_2   0.468149 0.861932 0.504955 -0.249264
C7    C     C_2   0.456262 0.061405 0.407469 0.250916
C8    C     C_2   0.518174 0.134701 0.497917 0.135927
C9    C     C_2   0.508302 0.402248 0.921973 0.011150
C10   C     C_2   0.483511 0.403911 0.074398 0.003159
C11   C     C_R   0.260040 0.500760 0.499923 0.762181
C12   C     C_R   0.493348 0.733460 0.500669 0.855790
C13   C     C_R   0.740061 0.500570 0.499613 0.795832
C14   C     C_3   0.070922 0.388823 0.577121 -0.367805
C15   C     C_3   0.927514 0.387508 0.574058 -0.354916
C16   C     C_3   0.072762 0.618286 0.569772 -0.390205
C17   C     C_3   0.071859 0.497279 0.349746 -0.357777
C18   C     C_3   0.122014 0.501319 0.499168 0.130132
Cu1   Cu    Cu3+1 0.500030 0.500020 0.638630 1.038090
Cu2   Cu    Cu3+1 0.499970 0.499980 0.361370 1.086792
H1    H     H_    0.103014 0.390809 0.685527 0.183918
H2    H     H_    0.897602 0.580935 0.292795 0.216376
H3    H     H_    0.107458 0.700302 0.514330 0.175940
H4    H     H_    0.893930 0.700181 0.518578 0.192465
H5    H     H_    0.514582 0.895731 0.298037 0.211191
H6    H     H_    0.431190 0.899468 0.599704 0.196015
H7    H     H_    0.534612 0.316690 0.874786 0.187805
H8    H     H_    0.443852 0.565945 0.887606 0.254423
H9    H     H_    0.454039 0.319478 0.120863 0.183394
H10   H     H_    0.106537 0.303550 0.529908 0.217502
H11   H     H_    0.894871 0.303662 0.520319 0.216304
H12   H     H_    0.891375 0.385081 0.681067 0.209238
H13   H     H_    0.107640 0.624414 0.676938 0.187364
H14   H     H_    0.895092 0.620803 0.679069 0.205612
H15   H     H_    0.107751 0.576908 0.290815 0.178801
H16   H     H_    0.104335 0.413347 0.296641 0.223081
H17   H     H_    0.893690 0.417288 0.293698 0.196456
N1    N     N_2   0.498630 0.498660 0.846910 -0.232298
N2    N     N_2   0.498590 0.498630 0.153040 -0.016557
O1    O     O_R   0.500020 0.321960 0.617040 -0.556267
O2    O     O_R   0.499980 0.321920 0.382900 -0.580232
O3    O     O_R   0.317710 0.500000 0.617070 -0.609911
O4    O     O_R   0.317670 0.499960 0.382930 -0.579259
O5    O     O_R   0.500020 0.678080 0.617100 -0.560197
O6    O     O_R   0.499980 0.678040 0.382960 -0.521892
O7    O     O_R   0.682330 0.500040 0.617070 -0.547619
O8    O     O_R   0.682290 0.500000 0.382930 -0.535122
S1    S     S_3+6 0.326963 0.105472 0.306282 -0.006623
O9    O     O_2   0.272946 0.225100 0.350395 -0.319846
O10   O     O_2   0.366570 0.113118 0.158695 -0.297860
O11   O     O_3   0.215147 0.997941 0.320081 -0.496814
H18   H     H_    0.243558 0.929424 0.261780 0.356762
S2    S     S_3+6 0.639439 0.081775 0.607255 -0.012047
O12   O     O_2   0.583821 0.018576 0.729629 -0.270534
O13   O     O_2   0.722700 0.995163 0.531012 -0.284640
O14   O     O_3   0.725081 0.200069 0.664115 -0.568146
H19   H     H_    0.785593 0.164157 0.728549 0.377973
S3    S     S_3+6 0.598019 0.617139 0.095734 0.108164
O15   O     O_2   0.691407 0.571898 0.992482 -0.289422
O16   O     O_2   0.521385 0.716762 0.033741 -0.295564
O17   O     O_3   0.681924 0.681441 0.222083 -0.498075
H20   H     H_    0.726114 0.751022 0.178936 0.360473

loop_
_geom_bond_atom_site_label_1
_geom_bond_atom_site_label_2
_ccdc_geom_bond_type
C8    S2    S    
C2    C4    S    
C11   C18   S    
C11   O4    A    
C17   H16   S    
C16   H13   S    
C1    C8    S    
C4    H2    S    
C9    C10   S    
C14   C18   S    
Cu2   O6    S    
C3    H14   S    
Cu1   O3    S    
H8    N1    S    
Cu1   O5    S    
C7    S1    S    
S3    O17   S    
S1    O10   D    
C17   C18   S    
Cu2   N2    S    
Cu1   O7    S    
C7    C8    D    
C12   O5    A    
S2    O12   D    
O14   H19   S    
C15   H11   S    
C2    C15   S    
C10   H9    S    
C3    H4    S    
C6    H6    S    
C5    C6    D    
C14   H10   S    
C5    H5    S    
C4    C17   S    
C14   H1    S    
C1    O2    A    
S1    O9    D    
Cu1   N1    S    
C2    C3    S    
C16   H3    S    
S2    O13   D    
C6    C12   S    
O17   H20   S    
Cu2   O8    S    
Cu1   O1    S    
S3    O16   D    
O11   H18   S    
C15   H12   S    
Cu2   O4    S    
C4    H17   S    
C9    H7    S    
C11   O3    A    
C16   C18   S    
S2    O14   S    
C5    C7    S    
C2    C13   S    
C13   O7    A    
C9    N1    D    
C17   H15   S    
C1    O1    A    
S3    O15   D    
C14   C15   S    
N2    S3    S    
C13   O8    A    
C10   N2    D    
S1    O11   S    
C3    C16   S    
Cu1   Cu2   S    
Cu2   O2    S    
C12   O6    A    
