data_mof_unit_47118.cif
_audit_creation_date              2012-12-10T17:29:16-0500
_audit_creation_method            fapswitch 2.2
_symmetry_space_group_name_H-M    P1
_symmetry_Int_Tables_number       1
_space_group_crystal_system       triclinic
_cell_length_a                    12.001881
_cell_length_b                    12.888352
_cell_length_c                    13.128162
_cell_angle_alpha                 87.210329
_cell_angle_beta                  113.343605
_cell_angle_gamma                 93.265559
_cell_volume                      1860.71599808

loop_
_atom_site_label
_atom_site_type_symbol
_atom_type_description
_atom_site_fract_x
_atom_site_fract_y
_atom_site_fract_z
_atom_type_partial_charge
C1    C     C_R   0.477673 0.299484 0.498813 0.862479
C2    C     C_R   0.607155 0.472869 0.828288 -0.131049
C3    C     C_R   0.535398 0.811822 0.501312 -0.055114
C4    C     C_R   0.565541 0.488740 0.708304 0.871964
C5    C     C_R   0.463951 0.188292 0.496829 -0.048308
C6    C     C_R   0.338258 0.031267 0.461948 -0.222682
C7    C     C_R   0.349442 0.138419 0.468827 -0.225966
C8    C     C_R   0.567470 0.131778 0.519936 -0.272617
C9    C     C_R   0.557211 0.025405 0.512964 0.185665
C10   C     C_R   0.441702 0.974806 0.483554 0.189242
C11   C     C_R   0.431607 0.868342 0.477129 -0.277803
C12   C     C_R   0.553579 0.464961 0.987827 0.140027
C13   C     C_R   0.649818 0.861812 0.528960 -0.206460
C14   C     C_R   0.660711 0.969016 0.534760 -0.219746
C15   C     C_R   0.017956 0.615051 0.417354 -0.342682
C16   C     C_R   0.522155 0.700539 0.500751 0.894192
C17   C     C_R   0.136047 0.602156 0.423117 0.039448
C18   C     C_R   0.152241 0.447187 0.531710 -0.065247
C19   C     C_R   0.033610 0.457022 0.528239 0.095233
C20   C     C_R   0.965850 0.542471 0.470709 0.094414
C21   C     C_R   0.847381 0.552530 0.467670 -0.056194
C22   C     C_R   0.863125 0.396831 0.575078 0.000571
C23   C     C_R   0.523774 0.442398 0.876263 0.094876
C24   C     C_R   0.981055 0.383814 0.580551 -0.355469
C25   C     C_R   0.433079 0.502784 0.291261 0.923691
C26   C     C_R   0.245181 0.425743 0.996165 0.397550
C27   C     C_R   0.390343 0.488955 0.172307 -0.246904
C28   C     C_R   0.727911 0.499584 0.896232 -0.194385
C29   C     C_R   0.763370 0.504139 0.010267 -0.149940
C30   C     C_R   0.676755 0.489901 0.055987 -0.194809
C31   C     C_3   0.187771 0.342324 0.204257 0.140718
C32   C     C_3   0.088182 0.266813 0.131475 -0.327787
C33   C     C_3   0.081515 0.166325 0.195641 -0.997615
C34   C     C_R   0.458610 0.462751 0.025933 0.029746
C35   C     C_3   0.074760 0.482074 0.851343 0.073181
C36   C     C_3   0.055607 0.578272 0.906377 -0.348049
C37   C     C_3   0.985141 0.659318 0.819209 -0.966293
C38   C     C_R   0.340319 0.423749 0.958470 -0.024321
C39   C     C_R   0.320340 0.382500 0.856003 -0.212256
C40   C     C_R   0.411071 0.391531 0.815433 -0.207051
C41   C     C_R   0.477528 0.502850 0.127796 -0.338852
C42   C     C_R   0.272898 0.449236 0.106977 0.384708
H1    H     H_    0.730511 0.818206 0.547754 0.161910
H2    H     H_    0.233936 0.345168 0.805889 0.166852
H3    H     H_    0.205054 0.381807 0.575780 0.115669
H4    H     H_    0.562113 0.543058 0.176233 0.183550
H5    H     H_    0.793834 0.519273 0.860704 0.166714
H6    H     H_    0.709031 0.496442 0.144802 0.138650
H7    H     H_    0.857074 0.523394 0.062838 0.156035
H8    H     H_    0.392532 0.357851 0.736228 0.157451
H9    H     H_    0.342718 0.829657 0.454433 0.153959
H10   H     H_    0.171101 0.355730 0.279944 0.177996
H11   H     H_    0.278043 0.306077 0.233367 0.099793
H12   H     H_    0.249392 0.992789 0.439463 0.141881
H13   H     H_    0.999002 0.304015 0.101248 0.241388
H14   H     H_    0.107239 0.247389 0.058653 0.251027
H15   H     H_    0.169066 0.126790 0.224544 0.274459
H16   H     H_    0.008508 0.113335 0.140760 0.274957
H17   H     H_    0.060736 0.182965 0.268354 0.263248
H18   H     H_    0.823497 0.339788 0.615447 0.132196
H19   H     H_    0.984535 0.452967 0.792555 0.176866
H20   H     H_    0.128959 0.504304 0.801197 0.145877
H21   H     H_    0.005424 0.554857 0.959500 0.243109
H22   H     H_    0.144797 0.614401 0.959749 0.216612
H23   H     H_    0.749509 0.007585 0.557055 0.139016
H24   H     H_    0.037401 0.686831 0.768955 0.268920
H25   H     H_    0.970046 0.726811 0.860940 0.268442
H26   H     H_    0.895520 0.626102 0.763043 0.270884
H27   H     H_    0.268966 0.182098 0.450758 0.159533
H28   H     H_    0.656428 0.170365 0.542771 0.155119
H29   H     H_    0.793960 0.617458 0.422814 0.122598
H30   H     H_    0.968088 0.681470 0.371835 0.143413
H31   H     H_    0.030607 0.317026 0.625432 0.146925
H32   H     H_    0.175477 0.658851 0.382233 0.128834
N1    N     N_R   0.798200 0.480260 0.519790 -0.095709
N2    N     N_R   0.201820 0.519740 0.480210 -0.098850
O1    O     O_R   0.579910 0.341070 0.505280 -0.623633
O2    O     O_3   0.125852 0.399618 0.928650 -0.655579
O3    O     O_R   0.388440 0.353740 0.492580 -0.650662
O4    O     O_R   0.643280 0.490550 0.663120 -0.621052
O5    O     O_R   0.451810 0.503220 0.650420 -0.605695
O6    O     O_R   0.611560 0.646260 0.507420 -0.629333
O7    O     O_R   0.420090 0.658930 0.494720 -0.625073
O8    O     O_R   0.548190 0.496780 0.349580 -0.615485
O9    O     O_R   0.356720 0.509450 0.336880 -0.591006
O10   O     O_3   0.182482 0.439699 0.147735 -0.629563
Zn1   Zn    Zn3+2 0.627850 0.491540 0.508480 0.929436
Zn2   Zn    Zn3+2 0.372150 0.508460 0.491520 0.938216

loop_
_geom_bond_atom_site_label_1
_geom_bond_atom_site_label_2
_ccdc_geom_bond_type
C28   H5    S    
C33   H16   S    
C1    O1    A    
C19   C20   A    
O8    Zn1   S    
C31   H10   S    
C29   H7    S    
C15   H30   S    
C12   C23   A    
C26   O2    S    
C21   H29   S    
C1    C5    S    
C30   H6    S    
C28   C29   A    
C4    O4    A    
O4    Zn1   S    
C22   H18   S    
C38   C39   A    
C24   H31   S    
C23   C40   A    
C37   H26   S    
C18   C19   A    
C4    O5    A    
C35   C36   S    
C8    C9    A    
C17   N2    A    
C18   N2    A    
C41   H4    S    
C42   O10   S    
C36   H21   S    
C9    C10   A    
N2    Zn2   S    
C32   H13   S    
C3    C13   A    
O7    Zn2   S    
C33   H17   S    
C31   O10   S    
C13   C14   A    
C34   C41   A    
C22   N1    A    
C6    H12   S    
C16   O6    A    
O3    Zn2   S    
C15   C20   A    
C3    C11   A    
C39   C40   A    
C5    C7    A    
C26   C38   A    
C16   O7    A    
C2    C4    S    
C9    C14   A    
C6    C10   A    
C29   C30   A    
C25   O8    A    
C27   C41   A    
C31   C32   S    
C37   H24   S    
C25   O9    A    
C35   H19   S    
C31   H11   S    
C39   H2    S    
N1    Zn1   S    
C17   H32   S    
C1    O3    A    
C22   C24   A    
C12   C34   A    
C18   H3    S    
C13   H1    S    
C26   C42   A    
O9    Zn2   S    
C15   C17   A    
C36   C37   S    
C33   H15   S    
C12   C30   A    
C34   C38   A    
C7    H27   S    
C5    C8    A    
C6    C7    A    
C25   C27   S    
C21   N1    A    
C35   O2    S    
C8    H28   S    
C32   C33   S    
C19   C24   A    
C27   C42   A    
C40   H8    S    
C37   H25   S    
C14   H23   S    
C35   H20   S    
O5    Zn2   S    
C11   H9    S    
C10   C11   A    
C20   C21   A    
O1    Zn1   S    
C2    C23   A    
C2    C28   A    
C36   H22   S    
C32   H14   S    
C3    C16   S    
O6    Zn1   S    
