data_mof_unit_27208.cif
_audit_creation_date              2013-03-05T15:52:44-0500
_audit_creation_method            fapswitch 2.2
_symmetry_space_group_name_H-M    P1
_symmetry_Int_Tables_number       1
_space_group_crystal_system       triclinic
_cell_length_a                    10.703348
_cell_length_b                    10.797284
_cell_length_c                    16.978787
_cell_angle_alpha                 99.802004
_cell_angle_beta                  99.358252
_cell_angle_gamma                 61.244098
_cell_volume                      1687.68118478

loop_
_atom_site_label
_atom_site_type_symbol
_atom_site_description
_atom_site_fract_x
_atom_site_fract_y
_atom_site_fract_z
_atom_type_partial_charge
O1    O     O_R   0.749250 0.499990 0.439200 -0.522442
O2    O     O_R   0.477870 0.725740 0.440280 -0.504931
C1    C     C_R   0.355815 0.774802 0.401605 0.589471
O3    O     O_R   0.260770 0.742210 0.412610 -0.456502
O4    O     O_R   0.297990 0.466320 0.394220 -0.497871
C2    C     C_R   0.369468 0.346133 0.357296 0.538629
O5    O     O_R   0.487720 0.253870 0.385870 -0.501068
O6    O     O_R   0.721940 0.304340 0.422320 -0.443582
C3    C     C_R   0.775616 0.376023 0.404149 0.558327
O7    O     O_R   0.750770 0.502570 0.614050 -0.494900
O8    O     O_R   0.479280 0.728140 0.602370 -0.423477
C4    C     C_R   0.381650 0.713197 0.631170 0.547174
O9    O     O_R   0.262290 0.744790 0.587460 -0.497499
O10   O     O_R   0.299400 0.468710 0.556310 -0.509506
C5    C     C_R   0.364974 0.345875 0.580006 0.522504
O11   O     O_R   0.489240 0.256450 0.560730 -0.497535
O12   O     O_R   0.723350 0.306730 0.584410 -0.488393
C6    C     C_R   0.772773 0.381395 0.629671 0.540392
Cr1   Cr    Cr6+3 0.608020 0.610770 0.522990 1.090988
Cr2   Cr    Cr6+3 0.289390 0.599570 0.488050 1.068166
Cr3   Cr    Cr6+3 0.602610 0.289690 0.489020 1.093427
O13   O     O_3   0.500010 0.500010 0.500020 -0.307650
C7    C     C_1   0.343120 0.335855 0.273942 -0.042306
C8    C     C_1   0.331257 0.326835 0.203011 -0.043840
C9    C     C_2   0.845840 0.324106 0.330494 -0.052638
C10   C     C_2   0.826790 0.331777 0.158550 -0.129089
C11   C     C_2   0.853111 0.217523 0.192666 -0.200539
C12   C     C_2   0.826018 0.226910 0.274736 -0.004392
C13   C     C_2   0.336794 0.850510 0.333777 0.012630
C14   C     C_2   0.346972 0.815134 0.153890 -0.126262
C15   C     C_2   0.435362 0.841850 0.210763 -0.189659
C16   C     C_2   0.449927 0.801350 0.290368 -0.193727
C17   C     C_2   0.308702 0.316764 0.643201 -0.155033
C18   C     C_2   0.264733 0.245631 0.792141 -0.140332
C19   C     C_2   0.371146 0.157461 0.744530 -0.012690
C20   C     C_2   0.356436 0.182970 0.659821 -0.054561
C21   C     C_1   0.817298 0.342316 0.708694 -0.029351
C22   C     C_1   0.844423 0.313329 0.776292 -0.033386
C23   C     C_1   0.358970 0.762445 0.713469 -0.001093
C24   C     C_1   0.326570 0.809999 0.780559 0.007077
O14   O     O_R   0.170650 0.915100 0.051290 -0.513866
O15   O     O_R   0.941960 0.184500 0.049060 -0.496396
C25   C     C_R   0.892929 0.308745 0.086233 0.562586
O16   O     O_R   0.922640 0.402670 0.071640 -0.503159
O17   O     O_R   0.196880 0.368740 0.083740 -0.487909
C26   C     C_R   0.319043 0.300055 0.119658 0.551839
O18   O     O_R   0.411120 0.181190 0.091480 -0.517828
O19   O     O_R   0.364220 0.944920 0.062310 -0.497169
C27   C     C_R   0.294575 0.889941 0.082994 0.550274
O20   O     O_R   0.158740 0.906940 0.874970 -0.509257
O21   O     O_R   0.930920 0.176940 0.885610 -0.494269
C28   C     C_R   0.886043 0.296726 0.858586 0.539432
O22   O     O_R   0.910730 0.394510 0.895320 -0.510040
O23   O     O_R   0.185840 0.361180 0.920280 -0.496287
C29   C     C_R   0.273684 0.245036 0.879378 0.579095
O24   O     O_R   0.399210 0.173040 0.915160 -0.472990
O25   O     O_R   0.353170 0.937370 0.898860 -0.463743
C30   C     C_R   0.280953 0.880437 0.857333 0.551035
Cr4   Cr    Cr6+3 0.053780 0.052210 0.965970 1.034603
Cr5   Cr    Cr6+3 0.060060 0.372530 0.992430 1.044067
Cr6   Cr    Cr6+3 0.372600 0.061970 0.991430 1.063551
O26   O     O_3   0.162150 0.162240 0.983280 -0.292870
H1    H     H_    0.901158 0.111324 0.160832 0.161016
C31   C     C_2   0.416781 0.061762 0.596456 0.290336
H2    H     H_    0.370498 0.074232 0.534653 0.121099
O27   O     O_2   0.522095 0.950722 0.611651 -0.473342
H3    H     H_    0.163549 0.323048 0.765025 0.092458
H4    H     H_    0.255202 0.406842 0.686858 0.104911
C32   C     C_2   0.780096 0.123037 0.288918 0.301646
H5    H     H_    0.707984 0.099422 0.243762 0.087838
O28   O     O_2   0.829926 0.055489 0.347067 -0.420419
H6    H     H_    0.775831 0.438424 0.189410 0.104123
H7    H     H_    0.893113 0.385033 0.314945 0.087787
H8    H     H_    0.488951 0.900854 0.201049 0.171771
H9    H     H_    0.553529 0.716101 0.309189 0.156925
H10   H     H_    0.293937 0.757128 0.166313 0.120897
C33   C     C_2   0.197581 0.975531 0.315291 0.220714
H11   H     H_    0.175842 0.026461 0.261296 0.108388
O29   O     O_2   0.107017 0.026685 0.362927 -0.462344
C34   C     C_2   0.514871 0.050053 0.774922 0.336780
H12   H     H_    0.609371 0.053270 0.762112 0.123122
O30   O     O_2   0.529699 0.952298 0.808790 -0.468940

loop_
_geom_bond_atom_site_label_1
_geom_bond_atom_site_label_2
_geom_bond_distance
_ccdc_geom_bond_type
C29   O24   1.291878 A    
O17   Cr5   1.943029 S    
O11   Cr3   2.032721 S    
C10   H6    1.086831 S    
C12   C32   1.489393 S    
C16   H9    1.087132 S    
O19   Cr6   1.927599 S    
C3    C9    1.450774 S    
O4    Cr2   1.938120 S    
O23   Cr5   1.911704 S    
C33   H11   1.084517 S    
C9    C12   1.361335 D    
O8    Cr1   1.914025 S    
C10   C11   1.338884 D    
O20   Cr4   2.038008 S    
C6    C21   1.413043 S    
O7    C6    1.280232 A    
C13   C16   1.352726 D    
O4    C2    1.259399 A    
C22   C28   1.410305 S    
C5    O11   1.267592 A    
C19   C34   1.485517 S    
C17   C20   1.345113 D    
Cr5   O26   1.980284 S    
C18   C19   1.360580 D    
C1    C13   1.456055 S    
O23   C29   1.311590 A    
C19   C20   1.479439 S    
O6    C3    1.261376 A    
C7    C8    1.182456 T    
C32   O28   1.220997 D    
C18   C29   1.469564 S    
Cr3   O13   1.980055 S    
C32   H5    1.085765 S    
O14   C27   1.262472 A    
O22   Cr5   2.059312 S    
C10   C25   1.442201 S    
O6    Cr3   1.914326 S    
C33   O29   1.219253 D    
O1    Cr1   2.029779 S    
C24   C30   1.424125 S    
O21   C28   1.283226 A    
O20   C30   1.273078 A    
O10   Cr2   1.929404 S    
Cr1   O13   1.985847 S    
O1    C3    1.282720 A    
O14   Cr4   2.052808 S    
C34   O30   1.218902 D    
C23   C24   1.199789 T    
C15   H8    1.086372 S    
O5    Cr3   2.062913 S    
O12   Cr3   1.942598 S    
C31   O27   1.218624 D    
O15   Cr4   1.918622 S    
C25   O16   1.269824 A    
C21   C22   1.194171 T    
C14   H10   1.088555 S    
C15   C16   1.452394 S    
O7    Cr1   2.054027 S    
O12   C6    1.259952 A    
C11   H1    1.087864 S    
O19   C27   1.270146 A    
C14   C27   1.446221 S    
Cr2   O13   1.967906 S    
O21   Cr4   1.934628 S    
O15   C25   1.271011 A    
C1    O3    1.273691 A    
C28   O22   1.250662 A    
C26   O18   1.254839 A    
Cr4   O26   1.984772 S    
O9    Cr2   2.052336 S    
O2    Cr1   1.935761 S    
O10   C5    1.267964 A    
C34   H12   1.086045 S    
C18   H3    1.086950 S    
O18   Cr6   2.061799 S    
O8    C4    1.308577 A    
O25   Cr6   1.940734 S    
C2    O5    1.257553 A    
C8    C26   1.393009 S    
C31   H2    1.086056 S    
C4    C23   1.423836 S    
O2    C1    1.261776 A    
O25   C30   1.266820 A    
C14   C15   1.334666 D    
O16   Cr5   2.027757 S    
C2    C7    1.393427 S    
C9    H7    1.086888 S    
Cr6   O26   1.966814 S    
O3    Cr2   2.048567 S    
O17   C26   1.262241 A    
C13   C33   1.482516 S    
C4    O9    1.287567 A    
C11   C12   1.446051 S    
O24   Cr6   2.042952 S    
C20   C31   1.490190 S    
C5    C17   1.456018 S    
C17   H4    1.086275 S    
