data_mof_unit_47397.cif
_audit_creation_date              2012-12-10T16:43:23-0500
_audit_creation_method            fapswitch 2.2
_symmetry_space_group_name_H-M    P1
_symmetry_Int_Tables_number       1
_space_group_crystal_system       triclinic
_cell_length_a                    10.75725
_cell_length_b                    8.70369
_cell_length_c                    7.540283
_cell_angle_alpha                 103.407438
_cell_angle_beta                  94.748493
_cell_angle_gamma                 93.531282
_cell_volume                      682.001105844

loop_
_atom_site_label
_atom_site_type_symbol
_atom_type_description
_atom_site_fract_x
_atom_site_fract_y
_atom_site_fract_z
_atom_type_partial_charge
C1    C     C_R   0.496520 0.199852 0.452916 0.903670
C2    C     C_R   0.079440 0.637835 0.635416 0.099359
C3    C     C_R   0.129961 0.518480 0.506287 -0.082924
C4    C     C_R   0.051876 0.408164 0.372997 -0.138702
C5    C     C_R   0.923830 0.409472 0.369803 -0.211387
C6    C     C_R   0.871546 0.521342 0.499791 -0.083594
C7    C     C_2   0.494374 0.031373 0.427273 -0.360189
C8    C     C_2   0.505741 0.968588 0.572632 -0.324208
C9    C     C_R   0.263290 0.506720 0.502488 0.814876
C10   C     C_R   0.503872 0.800159 0.547009 0.812989
C11   C     C_R   0.737236 0.507305 0.499808 0.760351
C12   C     C_R   0.155665 0.756815 0.766101 -0.123055
C13   C     C_R   0.102410 0.870146 0.893249 -0.084003
C14   C     C_R   0.973404 0.874554 0.885765 -0.124387
C15   C     C_R   0.896492 0.762772 0.753807 -0.182232
C16   C     C_R   0.947868 0.639985 0.630756 0.098038
Cu1   Cu    Cu3+1 0.513920 0.517380 0.684380 1.020085
Cu2   Cu    Cu3+1 0.486080 0.482620 0.315620 1.034122
H1    H     H_    0.090156 0.317385 0.273525 0.201595
H2    H     H_    0.611380 0.604235 0.045039 0.184663
H3    H     H_    0.256484 0.764850 0.772382 0.148858
H4    H     H_    0.161356 0.955857 0.997259 0.154761
H5    H     H_    0.932785 0.965870 0.981538 0.137604
H6    H     H_    0.797091 0.775536 0.748663 0.146257
H7    H     H_    0.865142 0.319353 0.268811 0.154191
H8    H     H_    0.483407 0.958717 0.287740 0.169337
H9    H     H_    0.516617 0.041221 0.712169 0.184511
N1    N     N_2   0.465100 0.456430 0.038520 0.064100
N2    N     N_2   0.534900 0.543570 0.961480 -0.200432
O1    O     O_R   0.509050 0.286130 0.619770 -0.531245
O2    O     O_R   0.485540 0.256780 0.308360 -0.593451
O3    O     O_R   0.331410 0.514680 0.655740 -0.513606
O4    O     O_R   0.307900 0.485330 0.344330 -0.512240
O5    O     O_R   0.514460 0.743220 0.691640 -0.615843
O6    O     O_R   0.490950 0.713870 0.380230 -0.592745
O7    O     O_R   0.692100 0.514670 0.655670 -0.595085
O8    O     O_R   0.668590 0.485320 0.344260 -0.611505
S1    S     S_3+6 0.319170 0.360367 0.944343 0.149349
O9    O     O_2   0.223987 0.480436 0.952055 -0.255558
O10   O     O_2   0.314087 0.259586 0.753500 -0.299930
O11   O     O_3   0.275508 0.236137 0.072074 -0.532086
H10   H     H_    0.326627 0.145039 0.037279 0.329692

loop_
_geom_bond_atom_site_label_1
_geom_bond_atom_site_label_2
_ccdc_geom_bond_type
C14   H5    S    
C9    O4    A    
C10   O6    A    
C3    C9    S    
Cu1   O7    S    
C2    C16   A    
O11   H10   S    
N1    S1    S    
C2    C12   A    
Cu1   Cu2   S    
Cu2   N1    S    
C7    C8    D    
C10   O5    A    
C13   C14   A    
S1    O10   D    
Cu1   O1    S    
N1    N2    D    
C5    C6    A    
C7    H8    S    
C5    H7    S    
C1    O1    A    
Cu2   O8    S    
C13   H4    S    
C2    C3    A    
H2    N2    S    
S1    O9    D    
Cu2   O4    S    
Cu1   O5    S    
C6    C16   A    
C3    C4    A    
C1    O2    A    
Cu1   N2    S    
C12   C13   A    
S1    O11   S    
C8    C10   S    
Cu2   O6    S    
C6    C11   S    
C11   O8    A    
Cu1   O3    S    
C14   C15   A    
C15   H6    S    
Cu2   O2    S    
C9    O3    A    
C8    H9    S    
C1    C7    S    
C4    H1    S    
C12   H3    S    
C15   C16   A    
C4    C5    A    
C11   O7    A    
