data_mof_unit_55698.cif
_audit_creation_date              2013-03-05T15:50:56-0500
_audit_creation_method            fapswitch 2.2
_symmetry_space_group_name_H-M    P1
_symmetry_Int_Tables_number       1
_space_group_crystal_system       triclinic
_cell_length_a                    12.045952
_cell_length_b                    12.802022
_cell_length_c                    15.734674
_cell_angle_alpha                 90.765888
_cell_angle_beta                  85.507547
_cell_angle_gamma                 94.647363
_cell_volume                      2411.01573576

loop_
_atom_site_label
_atom_site_type_symbol
_atom_site_description
_atom_site_fract_x
_atom_site_fract_y
_atom_site_fract_z
_atom_type_partial_charge
O1    O     O_R   0.421690 0.658830 0.504140 -0.583878
O2    O     O_R   0.609320 0.646410 0.494190 -0.623017
C1    C     C_R   0.523335 0.700272 0.497576 0.964240
O3    O     O_R   0.406150 0.506210 0.627840 -0.630055
O4    O     O_R   0.593770 0.493790 0.617880 -0.610708
C2    C     C_R   0.499547 0.499957 0.661598 0.870930
Zn1   Zn    Zn3+2 0.374720 0.508290 0.506640 1.067103
Zn2   Zn    Zn3+2 0.625280 0.491710 0.493360 1.061758
O5    O     O_R   0.390680 0.353590 0.505810 -0.572658
O6    O     O_R   0.578310 0.341170 0.495860 -0.585215
O7    O     O_R   0.406230 0.506210 0.382120 -0.604306
O8    O     O_R   0.593850 0.493790 0.372160 -0.553425
C3    C     C_R   0.476411 0.299210 0.498250 0.985330
C4    C     C_R   0.500461 0.499724 0.338461 1.000674
C5    C     C_3   0.398919 0.547324 0.959301 0.089872
C6    C     C_3   0.611879 0.558013 0.946506 0.239548
C7    C     C_3   0.615188 0.545599 0.044030 -0.406669
H1    H     H_    0.422351 0.638877 0.077760 0.255493
H2    H     H_    0.606500 0.642194 0.933800 0.195382
H3    H     H_    0.630991 0.624580 0.073326 0.198392
H4    H     H_    0.685441 0.500213 0.059242 0.283669
C8    C     C_1   0.501112 0.496808 0.249735 -0.012650
C9    C     C_3   0.503659 0.495431 0.916938 -0.142695
C10   C     C_3   0.407030 0.555874 0.056984 -0.519703
C11   C     C_3   0.502819 0.491797 0.083065 -0.009939
C12   C     C_3   0.482246 0.377304 0.047861 0.172571
C13   C     C_3   0.500815 0.379365 0.948871 0.000667
C14   C     C_1   0.501858 0.493955 0.174483 0.082530
C15   C     C_1   0.501276 0.497341 0.825521 0.141070
C16   C     C_1   0.499155 0.498727 0.750400 -0.014162
H5    H     H_    0.583484 0.350694 0.930450 0.214870
H6    H     H_    0.393531 0.350850 0.066541 0.169738
H7    H     H_    0.323390 0.494821 0.948679 0.202212
H8    H     H_    0.325822 0.525769 0.090083 0.207047
C17   C     C_R   0.459054 0.186440 0.494437 -0.241453
C18   C     C_R   0.540019 0.812015 0.495853 -0.200713
C19   C     C_R   0.624000 0.971168 0.554429 0.373152
C20   C     C_R   0.618264 0.862861 0.546125 -0.294187
C21   C     C_R   0.468681 0.867472 0.451189 0.443021
C22   C     C_R   0.456164 0.971518 0.474556 -0.189820
C23   C     C_R   0.539907 0.025616 0.520871 -0.035503
C24   C     C_R   0.536085 0.132162 0.533766 -0.176399
C25   C     C_R   0.371191 0.132400 0.452657 0.364492
C26   C     C_R   0.362139 0.022611 0.454348 0.392312
H9    H     H_    0.595859 0.175011 0.571779 0.220684
H10   H     H_    0.675693 0.818333 0.577689 0.208695
N1    N     N_R   0.207800 0.519340 0.515510 -0.118962
N2    N     N_R   0.792190 0.480660 0.484490 -0.166270
C27   C     C_R   0.960920 0.425888 0.408055 -0.269145
C28   C     C_R   0.844739 0.427616 0.416389 0.548146
C29   C     C_R   0.856508 0.529760 0.543877 -0.087376
C30   C     C_R   0.974836 0.527783 0.536372 0.071726
C31   C     C_R   0.026209 0.475361 0.466895 -0.009061
C32   C     C_R   0.143064 0.473185 0.456803 0.102387
C33   C     C_R   0.160437 0.571434 0.583785 0.105634
C34   C     C_R   0.043790 0.577058 0.595354 -0.220210
H11   H     H_    0.182609 0.433774 0.402664 0.173817
H12   H     H_    0.213210 0.608378 0.629949 0.163099
H13   H     H_    0.001963 0.387330 0.354036 0.217591
H14   H     H_    0.008211 0.618703 0.649957 0.175149
H15   H     H_    0.816167 0.571679 0.596250 0.166660
S1    S     S_3+6 0.561983 0.280269 0.092346 0.099979
O9    O     O_2   0.526682 0.266058 0.185465 -0.184203
O10   O     O_2   0.538149 0.177278 0.047610 -0.201916
O11   O     O_3   0.700100 0.314440 0.081232 -0.512038
H16   H     H_    0.728549 0.275915 0.030143 0.402089
S2    S     S_3+6 0.280203 0.198768 0.391916 0.099902
O12   O     O_2   0.189025 0.238719 0.451240 -0.272827
O13   O     O_2   0.343953 0.289126 0.345367 -0.319850
O14   O     O_3   0.222865 0.118715 0.318987 -0.430763
H17   H     H_    0.167612 0.159924 0.293863 0.397292
N3    N     N_R   0.713116 0.023490 0.598364 0.212307
O15   O     O_R   0.745316 0.981957 0.666413 -0.312935
O16   O     O_R   0.775745 0.100263 0.561755 -0.337863
S3    S     S_3+6 0.226878 0.953354 0.463177 0.135163
O17   O     O_2   0.190068 0.921593 0.376861 -0.151446
O18   O     O_2   0.228936 0.856892 0.516350 -0.293965
O19   O     O_3   0.133665 0.030235 0.511235 -0.467066
H18   H     H_    0.060889 0.988186 0.511537 0.404459
S4    S     S_3+6 0.424280 0.815442 0.352502 0.091852
O20   O     O_2   0.320097 0.743134 0.367491 -0.229409
O21   O     O_2   0.402956 0.902509 0.294182 -0.205328
O22   O     O_3   0.526011 0.747390 0.305196 -0.588441
H19   H     H_    0.502013 0.730287 0.247492 0.375257
N4    N     N_R   0.381948 0.649156 0.921962 0.232567
O23   O     O_R   0.299069 0.656429 0.874633 -0.321710
O24   O     O_R   0.442939 0.733978 0.939925 -0.333262
S5    S     S_3+6 0.779314 0.366642 0.328311 0.102624
O25   O     O_2   0.670316 0.305715 0.352482 -0.236005
O26   O     O_2   0.762766 0.449566 0.264780 -0.269271
O27   O     O_3   0.864073 0.282033 0.279718 -0.531168
H20   H     H_    0.827874 0.258994 0.227482 0.427917
S6    S     S_3+6 0.743913 0.530671 0.890747 0.048737
O28   O     O_2   0.834432 0.602482 0.925966 -0.217145
O29   O     O_2   0.770331 0.419363 0.902467 -0.277479
O30   O     O_3   0.742383 0.554924 0.786113 -0.555731
H21   H     H_    0.817536 0.540020 0.761077 0.384593
N5    N     N_R   0.418091 0.307561 0.908837 0.225978
O31   O     O_R   0.311384 0.310348 0.928353 -0.351609
O32   O     O_R   0.452193 0.235752 0.855952 -0.290768

loop_
_geom_bond_atom_site_label_1
_geom_bond_atom_site_label_2
_geom_bond_distance
_ccdc_geom_bond_type
C33   C34   1.410208 A    
C13   N5    1.472833 S    
C12   H6    1.112627 S    
S6    O28   1.503267 D    
C23   C24   1.380252 A    
C29   H15   1.082100 S    
S3    O17   1.502289 D    
N4    O23   1.301292 A    
C11   C14   1.437485 S    
Zn1   O7    1.966547 S    
C12   C13   1.556371 S    
S1    O9    1.502567 D    
H1    C10   1.112854 S    
C9    C15   1.441516 S    
C19   C20   1.387592 A    
C3    C17   1.443016 S    
S4    O22   1.681535 S    
O4    C2    1.287788 A    
O7    C4    1.287967 A    
N5    O31   1.301188 A    
C7    H3    1.114084 S    
C17   C24   1.390230 A    
O5    C3    1.288544 A    
S1    O10   1.503943 D    
N2    C29   1.373805 A    
C6    C7    1.548775 S    
O14   H17   0.990604 S    
C9    C13   1.571780 S    
C17   C25   1.417444 A    
C28   S5    1.787064 S    
C5    N4    1.472744 S    
N2    C28   1.397847 A    
S6    O29   1.501834 D    
C8    C14   1.183491 T    
O3    Zn1   1.974072 S    
N4    O24   1.301490 A    
C13   H5    1.105243 S    
S2    O12   1.502290 D    
C10   C11   1.552189 S    
N3    O16   1.301485 A    
C21   C22   1.393876 A    
O19   H18   0.990591 S    
N3    O15   1.301271 A    
C11   C12   1.567669 S    
C31   C32   1.406641 A    
C10   H8    1.114071 S    
C34   H14   1.083129 S    
S2    O13   1.501626 D    
C24   H9    1.082505 S    
Zn1   N1    2.020903 S    
C26   S3    1.787152 S    
C25   C26   1.401356 A    
Zn2   N2    2.020782 S    
C25   S2    1.781398 S    
C15   C16   1.184681 T    
O22   H19   0.990669 S    
S5    O27   1.683764 S    
Zn2   O8    1.974074 S    
O30   H21   0.990580 S    
C6    S6    1.812531 S    
S3    O18   1.503801 D    
N1    C32   1.354296 A    
O3    C2    1.289830 A    
C22   C23   1.420140 A    
C2    C16   1.397207 S    
S5    O26   1.503299 D    
C27   C28   1.397323 A    
S6    O30   1.681278 S    
N5    O32   1.301348 A    
C33   H12   1.081593 S    
O27   H20   0.990715 S    
C30   C31   1.403619 A    
N1    C33   1.367790 A    
Zn1   O5    2.004999 S    
C5    C10   1.549592 S    
S1    O11   1.681827 S    
O1    Zn1   1.964099 S    
C18   C21   1.393989 A    
O2    Zn2   2.004999 S    
O8    C4    1.288730 A    
S4    O20   1.502909 D    
O6    C3    1.297346 A    
O4    Zn2   1.966547 S    
C6    C9    1.572747 S    
C27   H13   1.083074 S    
S2    O14   1.679915 S    
C7    C11   1.553649 S    
C21   S4    1.784847 S    
C4    C8    1.395501 S    
C18   C20   1.393335 A    
O2    C1    1.287338 A    
C12   S1    1.810417 S    
C29   C30   1.423263 A    
C1    C18   1.428688 S    
C6    H2    1.106656 S    
C27   C31   1.376410 A    
C5    C9    1.571553 S    
S4    O21   1.503707 D    
C19   C23   1.413801 A    
S3    O19   1.681508 S    
C7    H4    1.107336 S    
C20   H10   1.084208 S    
C22   C26   1.412016 A    
S5    O25   1.496892 D    
Zn2   O6    1.964099 S    
O11   H16   0.990214 S    
C19   N3    1.437464 S    
O1    C1    1.291402 A    
C5    H7    1.108683 S    
C30   C34   1.403328 A    
C32   H11   1.082129 S    
