data_mof_unit_22944.cif
_audit_creation_date              2012-12-10T18:53:46-0500
_audit_creation_method            fapswitch 2.2
_symmetry_space_group_name_H-M    P1
_symmetry_Int_Tables_number       1
_space_group_crystal_system       triclinic
_cell_length_a                    10.69134
_cell_length_b                    9.839224
_cell_length_c                    19.173209
_cell_angle_alpha                 90.003024
_cell_angle_beta                  90.139967
_cell_angle_gamma                 89.922398
_cell_volume                      2016.90805499

loop_
_atom_site_label
_atom_site_type_symbol
_atom_type_description
_atom_site_fract_x
_atom_site_fract_y
_atom_site_fract_z
_atom_type_partial_charge
C1    C     C_R   0.259916 0.500061 0.499987 0.844217
C2    C     C_R   0.063808 0.616501 0.478092 -0.158304
C3    C     C_R   0.872489 0.499914 0.499979 -0.032743
C4    C     C_R   0.127511 0.500086 0.500022 -0.032737
C5    C     C_R   0.579883 0.071836 0.542203 -0.046840
C6    C     C_R   0.420117 0.928164 0.457797 -0.046878
C7    C     C_R   0.420122 0.072083 0.457791 -0.048054
C8    C     C_R   0.579878 0.927917 0.542209 -0.048040
C9    C     C_R   0.606241 0.548653 0.254802 -0.049778
C10   C     C_R   0.393721 0.451209 0.745176 -0.049700
C11   C     C_R   0.606150 0.548969 0.745477 -0.052247
C12   C     C_R   0.740084 0.499939 0.500014 0.844252
C13   C     C_R   0.393741 0.451072 0.254549 -0.052253
C14   C     C_R   0.608306 0.542907 0.181466 -0.026060
C15   C     C_R   0.391632 0.456854 0.818515 -0.026084
C16   C     C_R   0.608269 0.543230 0.818818 -0.024685
C17   C     C_R   0.391627 0.456677 0.181205 -0.024721
C18   C     C_R   0.499952 0.499779 0.145558 -0.104242
C19   C     C_R   0.499973 0.499967 0.854443 -0.104200
C20   C     C_R   0.499973 0.499953 0.290393 -0.217655
C21   C     C_R   0.499969 0.500031 0.709608 -0.217681
C22   C     C_2   0.713264 0.605827 0.295311 0.536631
C23   C     C_R   0.499980 0.499908 0.930085 0.201105
C24   C     C_2   0.286736 0.394029 0.704640 0.536827
C25   C     C_2   0.712955 0.606577 0.705249 0.524381
C26   C     C_2   0.286878 0.393679 0.294808 0.524377
C27   C     C_2   0.722656 0.579939 0.141310 0.541914
C28   C     C_2   0.277259 0.419778 0.858647 0.541739
C29   C     C_2   0.722601 0.580466 0.859263 0.541627
C30   C     C_2   0.277271 0.419496 0.140775 0.541671
C31   C     C_R   0.499930 0.499778 0.069915 0.201116
C32   C     C_R   0.499976 0.499994 0.365925 0.814110
C33   C     C_R   0.500010 0.500005 0.634075 0.814115
C34   C     C_R   0.064335 0.383587 0.521934 -0.158569
C35   C     C_R   0.935665 0.616413 0.478067 -0.158592
C36   C     C_R   0.936192 0.383499 0.521909 -0.158289
H1    H     H_    0.113682 0.293630 0.539625 0.170439
H2    H     H_    0.260231 0.438508 0.654977 0.029433
H3    H     H_    0.739648 0.562211 0.655651 0.028969
H4    H     H_    0.260252 0.438161 0.344390 0.028901
H5    H     H_    0.714261 0.630733 0.091270 0.057679
H6    H     H_    0.285621 0.369092 0.908716 0.057762
H7    H     H_    0.714176 0.630936 0.909368 0.057662
H8    H     H_    0.285662 0.368929 0.090694 0.057643
H9    H     H_    0.886318 0.706370 0.460376 0.170419
H10   H     H_    0.887269 0.293487 0.539563 0.159958
H11   H     H_    0.112732 0.706513 0.460437 0.159952
H12   H     H_    0.643743 0.126302 0.575933 0.137540
H13   H     H_    0.356256 0.873698 0.424067 0.137525
H14   H     H_    0.356296 0.126751 0.424041 0.149575
H15   H     H_    0.643703 0.873248 0.575960 0.149568
H16   H     H_    0.739694 0.561467 0.345017 0.029513
N1    N     N_R   0.500000 0.857200 0.500000 -0.088850
N2    N     N_R   0.500000 0.142800 0.500000 -0.088852
N3    N     N_R   0.427068 0.588908 0.034507 -0.140560
N4    N     N_R   0.572861 0.410790 0.965492 -0.140506
N5    N     N_R   0.427090 0.588969 0.965329 -0.139802
N6    N     N_R   0.572838 0.410728 0.034672 -0.139735
O1    O     O_R   0.316770 0.614620 0.500000 -0.620607
O2    O     O_2   0.230963 0.293267 0.724812 -0.524930
O3    O     O_2   0.768299 0.707623 0.725573 -0.526539
O4    O     O_2   0.231402 0.292689 0.274526 -0.526521
O5    O     O_2   0.826773 0.548566 0.162159 -0.479988
O6    O     O_2   0.173137 0.450977 0.837738 -0.480087
O7    O     O_2   0.826776 0.549659 0.838564 -0.480089
O8    O     O_2   0.173124 0.450468 0.161452 -0.480005
O9    O     O_R   0.683230 0.385380 0.500000 -0.620600
O10   O     O_R   0.683230 0.614620 0.500000 -0.629538
O11   O     O_R   0.316770 0.385380 0.500000 -0.629517
O12   O     O_R   0.499990 0.614700 0.398140 -0.610008
O13   O     O_R   0.500010 0.385300 0.601860 -0.609970
O14   O     O_R   0.500010 0.614700 0.601860 -0.604671
O15   O     O_R   0.499990 0.385300 0.398140 -0.604639
O16   O     O_2   0.769148 0.706467 0.275075 -0.524938
Zn1   Zn    Zn3+2 0.500000 0.653120 0.500000 0.969323
Zn2   Zn    Zn3+2 0.500000 0.346880 0.500000 0.969364

loop_
_geom_bond_atom_site_label_1
_geom_bond_atom_site_label_2
_ccdc_geom_bond_type
C2    C35   A    
C34   H1    S    
C14   C18   A    
C19   C23   S    
C23   N4    A    
O10   Zn1   S    
C15   C19   A    
C12   O10   A    
C31   N6    A    
C10   C15   A    
C1    O1    A    
O13   Zn2   S    
C9    C22   S    
C21   C33   S    
C11   C25   S    
O11   Zn2   S    
C3    C12   S    
C33   O14   A    
C24   H2    S    
C36   H10   S    
C14   C27   S    
C29   H7    S    
C17   C30   S    
C30   H8    S    
N1    Zn1   S    
O14   Zn1   S    
C5    H12   S    
C10   C21   A    
C12   O9    A    
C4    C34   A    
C5    N2    A    
C32   O15   A    
C32   O12   A    
C10   C24   S    
C16   C29   S    
C11   C21   A    
C1    O11   A    
C2    C4    A    
C9    C14   A    
C11   C16   A    
C27   H5    S    
C9    C20   A    
C3    C35   A    
C24   O2    D    
C17   C18   A    
C25   O3    D    
C8    H15   S    
C30   O8    D    
C27   O5    D    
C29   O7    D    
C28   O6    D    
N3    N5    A    
O15   Zn2   S    
N2    Zn2   S    
C13   C26   S    
C22   O16   D    
C6    N1    A    
C35   H9    S    
O1    Zn1   S    
C22   H16   S    
C20   C32   S    
C23   N5    A    
C13   C20   A    
C7    H14   S    
C8    N1    A    
C5    C8    A    
C6    C7    A    
O9    Zn2   S    
C2    H11   S    
C13   C17   A    
C1    C4    S    
C26   O4    D    
C25   H3    S    
C26   H4    S    
C15   C28   S    
C3    C36   A    
C16   C19   A    
C28   H6    S    
N4    N6    A    
C34   C36   A    
C6    H13   S    
C33   O13   A    
O12   Zn1   S    
C18   C31   S    
C7    N2    A    
C31   N3    A    
