data_mof_unit_53162.cif
_audit_creation_date              2012-12-10T16:46:42-0500
_audit_creation_method            fapswitch 2.2
_symmetry_space_group_name_H-M    P1
_symmetry_Int_Tables_number       1
_space_group_crystal_system       triclinic
_cell_length_a                    15.852664
_cell_length_b                    8.723229
_cell_length_c                    7.464915
_cell_angle_alpha                 103.152436
_cell_angle_beta                  94.387324
_cell_angle_gamma                 92.539463
_cell_volume                      1000.24495185

loop_
_atom_site_label
_atom_site_type_symbol
_atom_type_description
_atom_site_fract_x
_atom_site_fract_y
_atom_site_fract_z
_atom_type_partial_charge
C1    C     C_R   0.496591 0.199773 0.453790 0.888631
C2    C     C_3   0.947447 0.336981 0.505938 -0.402527
C3    C     C_3   0.917146 0.502555 0.499918 0.195384
C4    C     C_3   0.959109 0.628628 0.670242 0.202343
C5    C     C_3   0.057908 0.627150 0.676629 0.187420
C6    C     C_1   0.824777 0.501147 0.495211 -0.016960
C7    C     C_1   0.175397 0.502577 0.507284 -0.028033
C8    C     C_1   0.250905 0.501245 0.506292 -0.152899
C9    C     C_2   0.496969 0.032274 0.431202 -0.385737
C10   C     C_2   0.489847 0.966844 0.575503 0.233618
C11   C     C_R   0.340347 0.499834 0.502059 0.804740
C12   C     C_R   0.498476 0.799663 0.547356 0.756185
C13   C     C_R   0.659649 0.500287 0.497987 0.813145
C14   C     C_3   0.045363 0.339157 0.514284 -0.489760
C15   C     C_3   0.044827 0.545016 0.326373 -0.355015
C16   C     C_3   0.947003 0.544983 0.323159 -0.441651
C17   C     C_1   0.749154 0.500446 0.494352 -0.138625
C18   C     C_3   0.083190 0.504272 0.506338 0.255336
Cu1   Cu    Cu3+1 0.509300 0.517380 0.684380 1.013063
Cu2   Cu    Cu3+1 0.490700 0.482620 0.315620 1.029892
H1    H     H_    0.919968 0.248909 0.380296 0.188061
H2    H     H_    0.070482 0.307930 0.643878 0.171817
H3    H     H_    0.924793 0.297317 0.626293 0.176495
H4    H     H_    0.940178 0.746355 0.653402 0.161789
H5    H     H_    0.506081 0.962244 0.294430 0.154328
H6    H     H_    0.434007 0.377652 0.948710 0.209734
H7    H     H_    0.064451 0.247868 0.396748 0.198280
H8    H     H_    0.071108 0.662667 0.315559 0.211130
H9    H     H_    0.062265 0.457207 0.203735 0.157155
H10   H     H_    0.917699 0.458387 0.198105 0.195088
H11   H     H_    0.926338 0.663252 0.312989 0.190033
H12   H     H_    0.083848 0.592532 0.804071 0.099894
N1    N     N_2   0.476670 0.456430 0.038530 -0.111579
N2    N     N_2   0.523330 0.543570 0.961470 0.070019
O1    O     O_R   0.506050 0.286130 0.619770 -0.526510
O2    O     O_R   0.490330 0.256780 0.308370 -0.598355
O3    O     O_R   0.387300 0.514690 0.655770 -0.599293
O4    O     O_R   0.371580 0.485340 0.344370 -0.587891
O5    O     O_R   0.509670 0.743220 0.691630 -0.608125
O6    O     O_R   0.493950 0.713870 0.380230 -0.544010
O7    O     O_R   0.628420 0.514660 0.655630 -0.583814
O8    O     O_R   0.612700 0.485310 0.344230 -0.520991
O9    O     O_3   0.473089 0.056440 0.746717 -0.714224
H13   H     H_    0.461987 0.987048 0.831521 0.337020
O10   O     O_3   0.579574 0.646390 0.075636 -0.578374
H14   H     H_    0.609082 0.702064 0.994409 0.339115
O11   O     O_3   0.093480 0.777957 0.677493 -0.747327
H15   H     H_    0.088029 0.845212 0.802146 0.326807
O12   O     O_3   0.929233 0.608706 0.837040 -0.749441
H16   H     H_    0.952234 0.512143 0.865204 0.314619

loop_
_geom_bond_atom_site_label_1
_geom_bond_atom_site_label_2
_ccdc_geom_bond_type
C12   O6    A    
C15   C18   S    
Cu2   O8    S    
O9    H13   S    
C15   H9    S    
C14   H7    S    
C11   O4    A    
Cu2   O4    S    
C9    C10   D    
C14   C18   S    
H6    N1    S    
Cu1   Cu2   S    
C13   C17   S    
C4    O12   S    
C5    H12   S    
C7    C18   S    
C12   O5    A    
C13   O7    A    
C2    C3    S    
C2    C14   S    
C9    H5    S    
C7    C8    T    
N2    O10   S    
Cu1   O1    S    
O10   H14   S    
C16   H11   S    
C5    O11   S    
C14   H2    S    
C15   H8    S    
Cu1   O5    S    
C2    H1    S    
C8    C11   S    
C4    H4    S    
Cu2   N1    S    
C10   C12   S    
C13   O8    A    
N1    N2    D    
Cu2   O6    S    
C15   C16   S    
C16   H10   S    
C3    C4    S    
Cu2   O2    S    
Cu1   O7    S    
C1    C9    S    
C1    O1    A    
O12   H16   S    
C3    C6    S    
C2    H3    S    
C11   O3    A    
C6    C17   T    
C5    C18   S    
Cu1   O3    S    
C10   O9    S    
C3    C16   S    
O11   H15   S    
C1    O2    A    
C4    C5    S    
Cu1   N2    S    
