data_mof_unit_23489.cif
_audit_creation_date              2012-10-26T17:11:32-0400
_audit_creation_method            fapswitch 2.2
_symmetry_space_group_name_H-M    P1
_symmetry_Int_Tables_number       1
_space_group_crystal_system       triclinic
_cell_length_a                    27.89354
_cell_length_b                    18.70634
_cell_length_c                    16.88811
_cell_angle_alpha                 90.057412
_cell_angle_beta                  62.861225
_cell_angle_gamma                 90.25252
_cell_volume                      7841.73786892

loop_
_atom_site_label
_atom_site_type_symbol
_atom_type_description
_atom_site_fract_x
_atom_site_fract_y
_atom_site_fract_z
_atom_type_partial_charge
C1    C     C_R   0.289242 0.717366 0.335069 0.580705
C2    C     C_R   0.589727 0.999904 0.535397 -0.024499
C3    C     C_R   0.689610 0.715826 0.904536 0.025732
C4    C     C_R   0.927424 0.901569 0.065843 0.569951
C5    C     C_R   0.072481 0.098527 0.934302 0.564891
C6    C     C_R   0.076880 0.908633 0.930481 0.576432
C7    C     C_R   0.924255 0.093313 0.068344 0.564424
C8    C     C_R   0.427284 0.401753 0.065966 0.564808
C9    C     C_R   0.572719 0.598265 0.934019 0.560104
C10   C     C_R   0.575739 0.406686 0.931658 0.561285
C11   C     C_R   0.425180 0.594977 0.068131 0.565798
C12   C     C_R   0.028613 0.621567 0.570774 0.004167
C13   C     C_R   0.902912 0.499025 0.485455 -0.024095
C14   C     C_R   0.971190 0.378522 0.429997 0.000903
C15   C     C_R   0.930309 0.618999 0.558629 0.003196
C16   C     C_R   0.069422 0.381074 0.442228 0.002517
C17   C     C_R   0.540258 0.130129 0.530902 0.000096
C18   C     C_R   0.460070 0.869862 0.467940 -0.005781
C19   C     C_R   0.457891 0.130376 0.476270 -0.002773
C20   C     C_R   0.542405 0.869625 0.522667 -0.008818
C21   C     C_R   0.996206 0.683688 0.590208 0.291199
C22   C     C_R   0.003505 0.316336 0.410821 0.281181
C23   C     C_R   0.947137 0.682033 0.585385 0.286832
C24   C     C_R   0.096923 0.501083 0.515133 -0.021555
C25   C     C_R   0.052546 0.317980 0.415708 0.282467
C26   C     C_R   0.519118 0.195542 0.518551 0.281639
C27   C     C_R   0.481318 0.804450 0.480072 0.276274
C28   C     C_R   0.477937 0.195606 0.492138 0.281560
C29   C     C_R   0.522464 0.804401 0.506572 0.277419
C30   C     C_R   0.965851 0.560308 0.527473 -0.025489
C31   C     C_R   0.033926 0.439806 0.473279 -0.026818
C32   C     C_R   0.014589 0.561243 0.534421 -0.025350
C33   C     C_R   0.985208 0.438875 0.466307 -0.027480
C34   C     C_R   0.478178 0.065295 0.490196 -0.026903
C35   C     C_R   0.581321 0.871988 0.554291 0.273561
C36   C     C_R   0.522136 0.934702 0.508708 -0.029873
C37   C     C_R   0.520988 0.065242 0.513091 -0.026525
C38   C     C_R   0.479335 0.934751 0.485788 -0.029621
C39   C     C_R   0.456722 0.000060 0.478173 0.024353
C40   C     C_R   0.543559 0.999934 0.520820 0.023691
C41   C     C_R   0.951375 0.499333 0.493087 0.027578
C42   C     C_R   0.048432 0.500793 0.507587 0.028784
C43   C     C_R   0.388390 0.934903 0.453448 0.010024
C44   C     C_R   0.611746 0.065089 0.545950 0.016846
C45   C     C_R   0.612410 0.934579 0.542952 0.010667
C46   C     C_R   0.418826 0.128001 0.444963 0.276833
C47   C     C_R   0.387708 0.065415 0.456508 0.013980
C48   C     C_R   0.887206 0.437737 0.453851 0.015490
C49   C     C_R   0.112684 0.562367 0.546620 0.021069
C50   C     C_R   0.130393 0.440297 0.489720 0.011257
C51   C     C_R   0.869420 0.559788 0.510870 0.015842
C52   C     C_R   0.336196 0.934716 0.456778 -0.000606
C53   C     C_R   0.663840 0.065274 0.543004 0.004550
C54   C     C_R   0.664148 0.934652 0.541584 -0.000599
C55   C     C_R   0.335878 0.065346 0.458234 0.000005
C56   C     C_R   0.834454 0.435638 0.459890 0.012191
C57   C     C_R   0.420244 0.872794 0.438080 0.273874
C58   C     C_R   0.165474 0.564425 0.540432 0.020214
C59   C     C_R   0.174194 0.437138 0.511200 0.001009
C60   C     C_R   0.825686 0.562911 0.489206 0.004422
C61   C     C_R   0.311285 0.999935 0.458675 -0.138972
C62   C     C_R   0.688697 0.000060 0.541316 -0.134473
C63   C     C_R   0.807161 0.499701 0.468886 -0.127978
C64   C     C_R   0.192760 0.500346 0.531437 -0.125017
C65   C     C_R   0.579936 0.127209 0.561066 0.276529
C66   C     C_R   0.120425 0.386616 0.440404 0.279270
C67   C     C_R   0.879318 0.613462 0.560327 0.276723
C68   C     C_R   0.924725 0.381846 0.415986 0.274176
C69   C     C_R   0.706030 0.273412 0.669869 0.582722
C70   C     C_R   0.075168 0.618260 0.584581 0.275699
C71   C     C_R   0.204328 0.739025 0.964978 0.029486
C72   C     C_R   0.780226 0.233263 0.045215 0.028770
C73   C     C_R   0.779584 0.769852 0.044714 0.024676
C74   C     C_R   0.221251 0.227325 0.955103 0.030231
C75   C     C_R   0.719603 0.266587 0.954954 0.029179
C76   C     C_R   0.266437 0.705432 0.056229 0.029616
C77   C     C_R   0.280725 0.266876 0.044573 0.026519
C78   C     C_R   0.719442 0.733591 0.954991 0.021236
C79   C     C_R   0.253486 0.701743 0.922789 -0.053473
C80   C     C_R   0.703279 0.732237 0.671440 0.591996
C81   C     C_R   0.802107 0.277593 0.970139 -0.075730
C82   C     C_R   0.727552 0.797274 0.073357 -0.057471
C83   C     C_R   0.210592 0.292100 0.001722 -0.057386
C84   C     C_R   0.697705 0.222294 0.030067 -0.072573
C85   C     C_R   0.220482 0.749132 0.094265 -0.055429
C86   C     C_R   0.291372 0.202070 0.997976 -0.061727
C87   C     C_R   0.771585 0.706513 0.925982 -0.047181
C88   C     C_R   0.280344 0.677481 0.970226 0.240845
C89   C     C_R   0.772116 0.294708 0.925285 0.283839
C90   C     C_R   0.697354 0.779248 0.029196 0.268983
C91   C     C_R   0.296615 0.267966 0.328548 0.592517
C92   C     C_R   0.240064 0.312099 0.046455 0.288487
C93   C     C_R   0.727687 0.205213 0.074950 0.285034
C94   C     C_R   0.185707 0.755464 0.056158 0.229838
C95   C     C_R   0.261886 0.182082 0.953233 0.278695
C96   C     C_R   0.801763 0.724450 0.970202 0.271094
C97   C     C_R   0.144617 0.828796 0.941394 -0.129762
C98   C     C_R   0.855740 0.170875 0.055634 -0.166694
C99   C     C_R   0.853485 0.832814 0.058675 -0.137164
C100  C     C_R   0.146516 0.166464 0.941956 -0.148619
C101  C     C_R   0.644146 0.328998 0.944447 -0.163552
C102  C     C_R   0.793964 0.226581 0.330139 0.586759
C103  C     C_R   0.352265 0.670239 0.064499 -0.132126
C104  C     C_R   0.353820 0.331766 0.058547 -0.142214
C105  C     C_R   0.646224 0.668472 0.941217 -0.136454
C106  C     C_R   0.123517 0.860881 0.889666 -0.002103
C107  C     C_R   0.877355 0.140499 0.108401 -0.000013
C108  C     C_R   0.884002 0.847959 0.103539 0.002313
C109  C     C_R   0.116104 0.151799 0.896799 -0.000469
C110  C     C_R   0.622615 0.359471 0.891622 -0.001224
C111  C     C_R   0.376535 0.638902 0.112936 -0.006038
C112  C     C_R   0.384009 0.347930 0.103692 -0.007037
C113  C     C_R   0.204477 0.771047 0.670359 0.598013
C114  C     C_R   0.615962 0.652171 0.896218 -0.002348
C115  C     C_R   0.148973 0.848747 0.798364 0.190187
C116  C     C_R   0.851123 0.151230 0.200604 0.192585
C117  C     C_R   0.870119 0.815624 0.186496 0.194300
C118  C     C_R   0.130375 0.184051 0.813727 0.188889
C119  C     C_R   0.648896 0.348788 0.799411 0.191176
C120  C     C_R   0.350618 0.644407 0.206209 0.201704
C121  C     C_R   0.370154 0.316039 0.186870 0.185657
C122  C     C_R   0.629756 0.683962 0.813004 0.192331
C123  C     C_R   0.180318 0.786796 0.765946 0.025595
C124  C     C_R   0.204089 0.230581 0.671266 0.569881
C125  C     C_R   0.814557 0.208014 0.235515 0.023618
C126  C     C_R   0.820359 0.779764 0.231008 0.007765
C127  C     C_R   0.180880 0.218095 0.768515 0.009082
C128  C     C_R   0.685417 0.291953 0.764518 0.020877
C129  C     C_R   0.305370 0.687662 0.245908 0.017814
C130  C     C_R   0.320997 0.278714 0.230826 0.019919
C131  C     C_R   0.678761 0.721597 0.769137 0.019664
C132  C     C_R   0.188758 0.741658 0.825747 0.188151
C133  C     C_R   0.795227 0.242065 0.180343 0.246538
C134  C     C_R   0.791998 0.760325 0.182192 0.210450
C135  C     C_R   0.796385 0.768437 0.328597 0.563390
C136  C     C_R   0.210417 0.234854 0.816419 0.225438
C137  C     C_R   0.704665 0.257800 0.819752 0.245663
C138  C     C_R   0.272943 0.694454 0.202668 0.184760
C139  C     C_R   0.293472 0.257599 0.181303 0.247944
C140  C     C_R   0.706106 0.743183 0.818656 0.242682
C141  C     C_R   0.196434 0.631775 0.528531 0.572291
C142  C     C_R   0.803532 0.368252 0.471614 0.561122
C143  C     C_R   0.799370 0.630712 0.485977 0.558166
C144  C     C_R   0.200574 0.369304 0.514201 0.554503
C145  C     C_R   0.696522 0.131699 0.527605 0.548898
C146  C     C_R   0.410461 0.000088 0.463864 -0.023794
C147  C     C_R   0.303491 0.868290 0.472328 0.548753
C148  C     C_R   0.303321 0.131585 0.472999 0.540049
C149  C     C_R   0.696686 0.868417 0.526961 0.538844
C150  C     C_R   0.177644 0.767958 0.911394 0.029054
C151  C     C_R   0.811790 0.216916 0.093491 0.023082
C152  C     C_R   0.809246 0.786959 0.095733 0.022961
C153  C     C_R   0.191871 0.210128 0.903875 0.022886
C154  C     C_R   0.688063 0.282913 0.906636 0.024157
C155  C     C_R   0.297264 0.689686 0.108150 0.027642
C156  C     C_R   0.310360 0.284644 0.095210 0.020050
Cl1   Cl    Cl    0.552906 0.721907 0.508519 -0.357426
Cl2   Cl    Cl    0.429006 0.183920 0.354170 -0.417347
Cl3   Cl    Cl    0.427502 0.816802 0.348354 -0.435497
Cl4   Cl    Cl    0.572399 0.183195 0.650958 -0.467284
Cl5   Cl    Cl    0.177001 0.350882 0.348049 -0.433798
Cl6   Cl    Cl    0.822665 0.649285 0.652572 -0.511467
Cl7   Cl    Cl    0.922781 0.333848 0.326652 -0.473460
Cl8   Cl    Cl    0.077291 0.666260 0.673777 -0.438336
Cl9   Cl    Cl    0.117638 0.772814 0.130977 -0.467999
Cl10  Cl    Cl    0.698656 0.147045 0.167082 -0.508700
Cl11  Cl    Cl    0.866565 0.687757 0.932003 -0.448739
Cl12  Cl    Cl    0.447574 0.278143 0.490101 -0.353297
Cl13  Cl    Cl    0.277152 0.100746 0.894418 -0.527278
Cl14  Cl    Cl    0.801066 0.353104 0.833354 -0.502176
Cl15  Cl    Cl    0.326610 0.607493 0.919867 -0.484233
Cl16  Cl    Cl    0.224842 0.393608 0.104953 -0.427003
Cl17  Cl    Cl    0.632589 0.815967 0.067107 -0.468469
Cl18  Cl    Cl    0.147860 0.917358 0.726222 -0.503512
Cl19  Cl    Cl    0.855827 0.084750 0.272307 -0.497156
Cl20  Cl    Cl    0.917691 0.811719 0.229198 -0.439251
Cl21  Cl    Cl    0.082578 0.189444 0.771627 -0.487504
Cl22  Cl    Cl    0.644309 0.415361 0.727704 -0.484403
Cl23  Cl    Cl    0.452278 0.721359 0.474491 -0.373587
Cl24  Cl    Cl    0.364545 0.585126 0.275824 -0.459090
Cl25  Cl    Cl    0.417006 0.315429 0.231031 -0.410069
Cl26  Cl    Cl    0.582928 0.684363 0.768780 -0.399364
Cl27  Cl    Cl    0.204318 0.650491 0.797677 -0.487413
Cl28  Cl    Cl    0.750262 0.315509 0.216059 -0.462960
Cl29  Cl    Cl    0.737242 0.698812 0.223524 -0.481833
Cl30  Cl    Cl    0.270323 0.287271 0.771476 -0.466201
Cl31  Cl    Cl    0.749562 0.184272 0.784082 -0.476811
Cl32  Cl    Cl    0.202487 0.684424 0.270477 -0.513262
Cl33  Cl    Cl    0.239037 0.195607 0.222369 -0.441708
Cl34  Cl    Cl    0.548342 0.278573 0.523793 -0.363913
Cl35  Cl    Cl    0.758286 0.808496 0.778987 -0.427303
Cl36  Cl    Cl    0.087985 0.236624 0.401864 -0.359552
Cl37  Cl    Cl    0.911596 0.763361 0.599664 -0.351310
Cl38  Cl    Cl    0.979703 0.232099 0.395001 -0.375873
Cl39  Cl    Cl    0.019896 0.767910 0.606326 -0.359166
Cl40  Cl    Cl    0.570908 0.816030 0.645188 -0.415596
Cu1   Cu    Cu3+1 0.209920 0.785290 0.495070 1.226886
Cu2   Cu    Cu3+1 0.504760 0.500000 0.075850 1.197365
Cu3   Cu    Cu3+1 0.995240 1.000000 0.924150 1.183756
Cu4   Cu    Cu3+1 0.004760 0.000000 0.075850 1.201530
Cu5   Cu    Cu3+1 0.790080 0.214710 0.504930 1.248193
Cu6   Cu    Cu3+1 0.790080 0.785290 0.504930 1.254369
Cu7   Cu    Cu3+1 0.209920 0.214710 0.495070 1.243290
Cu8   Cu    Cu3+1 0.709920 0.285290 0.495070 1.271199
Cu9   Cu    Cu3+1 0.290080 0.714710 0.504930 1.246416
Cu10  Cu    Cu3+1 0.290080 0.285290 0.504930 1.269683
Cu11  Cu    Cu3+1 0.709920 0.714710 0.495070 1.263044
Cu12  Cu    Cu3+1 0.495240 0.500000 0.924150 1.228251
H1    H     H_    0.271106 0.999775 0.463908 0.179897
H2    H     H_    0.209172 0.776188 0.156606 0.207443
H3    H     H_    0.322426 0.166940 0.996992 0.175321
H4    H     H_    0.788790 0.671510 0.868625 0.206987
H5    H     H_    0.136049 0.854073 0.003502 0.203275
H6    H     H_    0.871172 0.156165 0.986244 0.169565
H7    H     H_    0.864080 0.856331 0.994125 0.184701
H8    H     H_    0.135174 0.143942 0.007253 0.181326
H9    H     H_    0.628681 0.343675 0.013850 0.173305
H10   H     H_    0.375273 0.674171 0.993206 0.204709
H11   H     H_    0.364209 0.355212 0.994037 0.187272
H12   H     H_    0.728805 0.000220 0.536379 0.183269
H13   H     H_    0.635989 0.644877 0.005593 0.183249
H14   H     H_    0.769967 0.499887 0.463335 0.184535
H15   H     H_    0.229991 0.500151 0.536869 0.185716
H16   H     H_    0.271592 0.689671 0.852774 0.212071
H17   H     H_    0.842246 0.299646 0.947234 0.175546
H18   H     H_    0.710370 0.832382 0.130606 0.178665
H19   H     H_    0.179611 0.327301 0.002563 0.180488
H20   H     H_    0.657548 0.200273 0.053013 0.178874
O1    O     O_R   0.255040 0.869590 0.478480 -0.509897
O2    O     O_R   0.817950 0.203450 0.375560 -0.433811
O3    O     O_R   0.817950 0.796550 0.375560 -0.461835
O4    O     O_R   0.182050 0.203450 0.624440 -0.458595
O5    O     O_R   0.682050 0.296550 0.624440 -0.433126
O6    O     O_R   0.317950 0.703450 0.375560 -0.429721
O7    O     O_R   0.317950 0.296550 0.375560 -0.441232
O8    O     O_R   0.682050 0.703450 0.624440 -0.442859
O9    O     O_R   0.250530 0.763330 0.367210 -0.487366
O10   O     O_R   0.749470 0.236670 0.632790 -0.464898
O11   O     O_R   0.749470 0.763330 0.632790 -0.429404
O12   O     O_R   0.744960 0.130410 0.521520 -0.505037
O13   O     O_R   0.250530 0.236670 0.367210 -0.432207
O14   O     O_R   0.750530 0.263330 0.367210 -0.461492
O15   O     O_R   0.249470 0.736670 0.632790 -0.486321
O16   O     O_R   0.249470 0.263330 0.632790 -0.457771
O17   O     O_R   0.750530 0.736670 0.367210 -0.460543
O18   O     O_R   0.177260 0.690030 0.513710 -0.463968
O19   O     O_R   0.822740 0.309970 0.486290 -0.474000
O20   O     O_R   0.822740 0.690030 0.486290 -0.465436
O21   O     O_R   0.177260 0.309970 0.513710 -0.471095
O22   O     O_R   0.677260 0.190030 0.513710 -0.468941
O23   O     O_R   0.744960 0.869590 0.521520 -0.515288
O24   O     O_R   0.322740 0.809970 0.486290 -0.473308
O25   O     O_R   0.322740 0.190030 0.486290 -0.463956
O26   O     O_R   0.677260 0.809970 0.513710 -0.467657
O27   O     O_R   0.051640 0.926880 0.885090 -0.438828
O28   O     O_R   0.948360 0.073120 0.114910 -0.441572
O29   O     O_R   0.948360 0.926880 0.114910 -0.431920
O30   O     O_R   0.051640 0.073120 0.885090 -0.435856
O31   O     O_R   0.551640 0.426880 0.885090 -0.445900
O32   O     O_R   0.448360 0.573120 0.114910 -0.443282
O33   O     O_R   0.448360 0.426880 0.114910 -0.433473
O34   O     O_R   0.255040 0.130410 0.478480 -0.518683
O35   O     O_R   0.551640 0.573120 0.885090 -0.435906
O36   O     O_R   0.940620 0.926560 0.986760 -0.523427
O37   O     O_R   0.059380 0.073440 0.013240 -0.530266
O38   O     O_R   0.059380 0.926560 0.013240 -0.506804
O39   O     O_R   0.940620 0.073440 0.986760 -0.525808
O40   O     O_R   0.440620 0.426560 0.986760 -0.519774
O41   O     O_R   0.559380 0.573440 0.013240 -0.525900
O42   O     O_R   0.559380 0.426560 0.013240 -0.523314
O43   O     O_R   0.440620 0.573440 0.986760 -0.490691
O44   O     O_R   0.755040 0.369590 0.478480 -0.502341
O45   O     O_R   0.244960 0.630410 0.521520 -0.501675
O46   O     O_R   0.244960 0.369590 0.521520 -0.512005
O47   O     O_R   0.755040 0.630410 0.478480 -0.511617
O48   O     O_R   0.182050 0.796550 0.624440 -0.429820

loop_
_geom_bond_atom_site_label_1
_geom_bond_atom_site_label_2
_ccdc_geom_bond_type
C100  C153  A    
C5    O37   A    
C31   C42   A    
C132  C150  A    
C87   H4    S    
C133  C151  A    
C74   C83   A    
C102  C125  S    
C14   C33   A    
Cu2   O32   S    
C19   C46   A    
C79   H16   S    
C3    C105  A    
C16   C31   A    
C9    C114  S    
C115  Cl18  S    
C1    C129  S    
C52   C61   A    
C77   C156  S    
C144  O46   A    
Cu2   O41   S    
C131  C140  A    
C13   C51   A    
Cu1   O9    S    
C44   C53   A    
C91   O13   A    
C113  O15   A    
C97   C150  A    
C124  O16   A    
C117  C126  A    
C119  C128  A    
C57   Cl3   S    
C47   C146  A    
C100  C109  A    
C58   C64   A    
C63   H14   S    
C94   Cl9   S    
C109  C118  A    
C147  O24   A    
C115  C123  A    
Cu5   O10   S    
C127  C136  A    
C101  C110  A    
C34   C39   A    
C66   Cl5   S    
C105  C114  A    
C133  Cl28  S    
C72   C151  S    
C6    C106  S    
C124  O4    A    
C35   Cl40  S    
C124  C127  S    
C50   C59   A    
C35   C45   A    
C15   C30   A    
C16   C25   A    
C100  H8    S    
C136  Cl30  S    
C25   Cl36  S    
C76   C155  S    
C106  C115  A    
C18   C38   A    
Cu3   O30   S    
C136  C153  A    
C147  O1    A    
C67   Cl6   S    
Cu3   O27   S    
C92   Cl16  S    
C6    O27   A    
C84   C93   A    
C86   C95   A    
C28   Cl12  S    
C2    C40   A    
C126  C134  A    
C102  O2    A    
C10   O31   A    
C111  C120  A    
C148  O34   A    
C76   C85   A    
Cu6   O3    S    
C78   C87   A    
C144  O21   A    
Cu5   O19   S    
C123  C132  A    
C27   C29   A    
C80   O8    A    
C58   C141  S    
C141  O45   A    
C121  C130  A    
C71   C79   A    
C99   C108  A    
C82   H18   S    
Cu12  O35   S    
C77   C86   A    
C37   C40   A    
C60   C143  S    
Cu7   O4    S    
C75   C84   A    
C71   C150  S    
C46   Cl2   S    
C91   O7    A    
C143  O20   A    
C85   C94   A    
C69   O5    A    
C20   C35   A    
C69   C128  S    
C2    C44   A    
C22   C25   A    
C6    O38   A    
C30   C41   A    
C102  O14   A    
Cu4   O38   S    
Cu6   O23   S    
C88   Cl15  S    
C44   C65   A    
C65   Cl4   S    
Cu11  O17   S    
C2    C45   A    
C24   C50   A    
C120  C129  A    
Cu3   O36   S    
C104  C112  A    
Cu1   O48   S    
C1    O9    A    
C138  Cl32  S    
C104  H11   S    
C50   C66   A    
C4    O36   A    
C15   C67   A    
C51   C67   A    
C7    O39   A    
C19   C28   A    
Cu4   O28   S    
Cu8   O44   S    
C93   Cl10  S    
C116  C125  A    
C73   C152  S    
C7    C107  S    
C118  C127  A    
C122  C131  A    
C12   C70   A    
Cu5   O2    S    
C32   C42   A    
C116  Cl19  S    
C11   O43   A    
C108  C117  A    
C110  C119  A    
C59   C144  S    
Cu2   O33   S    
Cu8   O14   S    
Cu1   O1    S    
Cu6   O20   S    
C99   C152  A    
Cu6   Cu11  S    
C14   C22   A    
C56   C142  S    
C112  C121  A    
Cu9   O24   S    
C55   C148  S    
C101  C154  A    
C105  H13   S    
C55   C61   A    
C98   H6    S    
C107  C116  A    
Cu2   O42   S    
C75   C89   A    
C103  H10   S    
Cu3   Cu4   S    
C142  O19   A    
Cu12  O31   S    
C140  Cl35  S    
C135  O3    A    
C51   C60   A    
C8    O33   A    
Cu9   O15   S    
Cu10  O25   S    
C138  C155  A    
C4    O29   A    
C34   C37   A    
C24   C42   A    
C135  O17   A    
Cu1   Cu9   S    
C86   H3    S    
C13   C41   A    
Cu7   O34   S    
Cu4   O29   S    
C78   C90   A    
C4    C108  S    
C80   O11   A    
Cu9   O6    S    
Cu11  O26   S    
C27   Cl23  S    
C8    C112  S    
C7    O28   A    
C145  O12   A    
Cu9   O45   S    
C113  O48   A    
C103  C111  A    
C9    O41   A    
Cu7   O21   S    
C69   O10   A    
C72   C81   A    
C81   C89   A    
C80   C131  S    
C97   H5    S    
C143  O47   A    
C130  C139  A    
C79   C88   A    
C98   C151  A    
Cu7   Cu10  S    
C11   C111  S    
C91   C130  S    
C29   Cl1   S    
C54   C62   A    
Cu12  O40   S    
C98   C107  A    
C62   H12   S    
Cu8   O5    S    
C18   C57   A    
C113  C123  S    
C1    O6    A    
C134  C152  A    
C23   Cl37  S    
C53   C145  S    
C96   Cl11  S    
C61   H1    S    
C48   C68   A    
C72   C93   A    
C103  C155  A    
C126  C135  S    
C49   C70   A    
C21   C23   A    
C16   C66   A    
C73   C82   A    
Cu5   O12   S    
C121  Cl25  S    
C68   Cl7   S    
C46   C47   A    
C17   C65   A    
Cu10  O16   S    
C139  Cl33  S    
Cu11  O47   S    
C82   C90   A    
C33   C41   A    
C11   O32   A    
C36   C38   A    
C120  Cl24  S    
C132  Cl27  S    
C43   C146  A    
C38   C39   A    
C5    C109  S    
C39   C146  A    
C137  C154  A    
C10   C110  S    
C43   C52   A    
C20   C36   A    
C64   H15   S    
C10   O42   A    
C14   C68   A    
C73   C96   A    
C3    C78   S    
C137  Cl31  S    
C149  O23   A    
C77   C92   A    
C8    O40   A    
C85   H2    S    
C26   Cl34  S    
C71   C94   A    
C83   H19   S    
C83   C92   A    
C90   Cl17  S    
C59   C64   A    
C81   H17   S    
C60   C63   A    
C17   C26   A    
C89   Cl14  S    
Cu1   O18   S    
C129  C138  A    
C31   C33   A    
C119  Cl22  S    
C76   C88   A    
Cu8   O22   S    
C15   C23   A    
C148  O25   A    
C12   C32   A    
C134  Cl29  S    
Cu11  O8    S    
C54   C149  S    
C20   C29   A    
Cu10  O46   S    
Cu2   Cu12  S    
C145  O22   A    
C36   C40   A    
Cu6   O11   S    
C43   C57   A    
Cu3   O39   S    
C149  O26   A    
C12   C21   A    
C21   Cl39  S    
C49   C58   A    
C74   C153  S    
Cu10  O7    S    
C128  C137  A    
C53   C62   A    
Cu12  O43   S    
C87   C96   A    
C141  O18   A    
C56   C63   A    
C17   C37   A    
C104  C156  A    
C95   Cl13  S    
C117  Cl20  S    
Cu4   O37   S    
C45   C54   A    
C52   C147  S    
Cu5   Cu8   S    
C97   C106  A    
C84   H20   S    
C47   C55   A    
C125  C133  A    
C24   C49   A    
C48   C56   A    
C74   C95   A    
C18   C27   A    
C19   C34   A    
C70   Cl8   S    
C13   C48   A    
Cu7   O13   S    
C26   C28   A    
C30   C32   A    
C75   C154  S    
C99   H7    S    
C139  C156  A    
C9    O35   A    
C5    O30   A    
C142  O44   A    
C114  C122  A    
C118  Cl21  S    
C101  H9    S    
C122  Cl26  S    
C22   Cl38  S    
C3    C140  A    
