data_mof_unit_9901.cif
_audit_creation_date              2012-12-11T20:21:50-0500
_audit_creation_method            fapswitch 2.2
_symmetry_space_group_name_H-M    P1
_symmetry_Int_Tables_number       1
_space_group_crystal_system       triclinic
_cell_length_a                    8.246403
_cell_length_b                    17.3838
_cell_length_c                    26.991404
_cell_angle_alpha                 99.7
_cell_angle_beta                  92.840208
_cell_angle_gamma                 81.517273
_cell_volume                      3771.06872687

loop_
_atom_site_label
_atom_site_type_symbol
_atom_type_description
_atom_site_fract_x
_atom_site_fract_y
_atom_site_fract_z
_atom_type_partial_charge
Ba1   Ba    Ba6+2 0.860160 0.462360 0.521850 1.649002
Ba2   Ba    Ba6+2 0.329680 0.537570 0.478140 1.643409
C1    C     C_3   0.757665 0.177632 0.655482 -0.365100
C2    C     C_3   0.701225 0.254388 0.635807 0.363307
C3    C     C_3   0.495109 0.649218 0.633121 0.298146
C4    C     C_3   0.490660 0.667968 0.690171 -0.358900
C5    C     C_3   0.992667 0.714502 0.346955 0.646268
C6    C     C_3   0.994109 0.740876 0.295383 -0.055204
C7    C     C_3   0.461398 0.740626 0.375935 0.392720
C8    C     C_3   0.424692 0.822195 0.360967 -0.371814
C9    C     C_R   0.996745 0.423417 0.170539 0.610425
C10   C     C_R   0.844604 0.552378 0.175512 0.558621
C11   C     C_2   0.723132 0.514336 0.270635 -0.086559
C12   C     C_3   0.156543 0.284726 0.652262 0.365136
C13   C     C_3   0.689716 0.514986 0.325274 -0.071078
C14   C     C_1   0.981638 0.478161 0.339110 0.010209
C15   C     C_2   0.013110 0.463839 0.289726 0.113432
C16   C     C_2   0.876711 0.489253 0.252523 0.199339
C17   C     C_R   0.994429 0.492518 0.099403 -0.083409
C18   C     C_R   0.059081 0.428878 0.123661 -0.044316
C19   C     C_R   0.182524 0.371143 0.100402 -0.067767
C20   C     C_R   0.878571 0.552474 0.124530 -0.034127
C21   C     C_2   0.845018 0.521552 0.356650 -0.246285
C22   C     C_2   0.347933 0.476716 0.638968 -0.281120
C23   C     C_3   0.152784 0.250912 0.700391 -0.379705
C24   C     C_R   0.219421 0.441003 0.977428 -0.009451
C25   C     C_R   0.999436 0.552653 0.971499 0.026341
C26   C     C_R   0.129799 0.496088 0.949174 0.041437
C27   C     C_R   0.358230 0.391912 0.955496 -0.124885
C28   C     C_R   0.398411 0.390075 0.905554 0.227663
C29   C     C_R   0.295931 0.437349 0.875120 -0.042150
C30   C     C_R   0.170447 0.494268 0.897961 -0.119146
C31   C     C_R   0.085073 0.549075 0.869450 -0.027136
C32   C     C_R   0.129571 0.547796 0.819169 0.592980
C33   C     C_R   0.314767 0.428922 0.822450 0.581280
C34   C     C_3   0.221532 0.301205 0.415542 0.310294
C35   C     C_2   0.434659 0.450485 0.724984 -0.087742
C36   C     C_3   0.455906 0.423773 0.669211 -0.052675
C37   C     C_1   0.204485 0.511964 0.656767 0.035427
C38   C     C_2   0.158839 0.510168 0.703362 -0.107265
C39   C     C_2   0.283060 0.482546 0.742093 0.180583
C40   C     C_R   0.169450 0.437243 0.026700 0.028619
C41   C     C_R   0.041548 0.494755 0.049478 0.049326
C42   C     C_R   0.958638 0.553765 0.022673 0.018208
C43   C     C_R   0.239867 0.376127 0.053669 -0.097277
C44   C     C_R   0.799859 0.611414 0.098246 -0.063734
C45   C     C_3   0.259284 0.211565 0.401907 -0.381976
C46   C     C_R   0.914609 0.606209 0.941485 -0.104937
C47   C     C_R   0.957880 0.604826 0.891960 -0.062060
C48   C     C_R   0.835928 0.611236 0.048206 -0.102029
C49   C     C_2   0.455918 0.282492 0.518917 -0.257581
C50   C     C_3   0.384703 0.232278 0.550414 -0.048008
C51   C     C_2   0.435484 0.145614 0.534760 -0.106676
C52   C     C_2   0.560545 0.118441 0.503018 0.005480
C53   C     C_2   0.637720 0.176079 0.479936 -0.126573
C54   C     C_1   0.577818 0.252130 0.488140 0.071843
C55   C     C_R   0.796632 0.864711 0.479476 -0.143972
C56   C     C_3   0.977738 0.704561 0.591671 0.310567
C57   C     C_R   0.853137 0.783964 0.472234 0.055885
C58   C     C_R   0.623321 0.761168 0.517433 0.026055
C59   C     C_R   0.567230 0.841870 0.525605 -0.117769
C60   C     C_R   0.651928 0.894182 0.506038 0.014124
C61   C     C_2   0.621929 0.032866 0.489982 -0.072431
C62   C     C_2   0.593824 0.979435 0.518297 -0.071484
C63   C     C_R   0.763070 0.732366 0.489483 -0.254232
C64   C     C_3   0.960520 0.793273 0.608677 -0.378969
C65   C     C_3   0.706162 0.347766 0.365093 0.306432
C66   C     C_3   0.733473 0.312414 0.310182 -0.387775
H1    H     H_    0.737058 0.246981 0.595897 0.065124
H2    H     H_    0.354619 0.194374 0.372250 0.122611
H3    H     H_    0.306217 0.186349 0.435713 0.073116
H4    H     H_    0.144015 0.186925 0.387837 0.128691
H5    H     H_    0.855874 0.687270 0.581045 0.000495
H6    H     H_    0.058919 0.688699 0.558839 0.066368
H7    H     H_    0.873896 0.811091 0.640251 0.130881
H8    H     H_    0.913395 0.824543 0.577396 0.060254
H9    H     H_    0.082256 0.810881 0.621217 0.126320
H10   H     H_    0.822709 0.365468 0.381910 0.016870
H11   H     H_    0.608860 0.399581 0.367895 0.022941
H12   H     H_    0.891075 0.158977 0.649317 0.148538
H13   H     H_    0.825645 0.258356 0.307394 0.139288
H14   H     H_    0.779788 0.354558 0.289867 0.069125
H15   H     H_    0.616406 0.297024 0.291906 0.115588
H16   H     H_    0.565273 0.265232 0.638154 -0.060637
H17   H     H_    0.689975 0.130629 0.634863 0.067356
H18   H     H_    0.372477 0.635875 0.618604 0.019076
H19   H     H_    0.588740 0.596723 0.622587 0.070737
H20   H     H_    0.395687 0.719266 0.701838 0.131008
H21   H     H_    0.460677 0.616746 0.705533 0.067897
H22   H     H_    0.612346 0.681532 0.705819 0.137194
H23   H     H_    0.732537 0.184575 0.696353 0.123379
H24   H     H_    0.220314 0.285099 0.730691 0.132784
H25   H     H_    0.060409 0.654006 0.344912 0.077396
H26   H     H_    0.900078 0.714424 0.269606 0.139326
H27   H     H_    0.957961 0.805951 0.300190 0.066598
H28   H     H_    0.558107 0.741765 0.405821 0.013475
H29   H     H_    0.350415 0.727596 0.391820 0.103739
H30   H     H_    0.534972 0.838981 0.346176 0.099014
H31   H     H_    0.384086 0.866145 0.394349 0.087546
H32   H     H_    0.084092 0.344648 0.657196 0.075315
H33   H     H_    0.325663 0.823989 0.331992 0.141337
H34   H     H_    0.238400 0.322416 0.118992 0.111266
H35   H     H_    0.535278 0.434370 0.750377 0.116651
H36   H     H_    0.442469 0.355988 0.977000 0.064690
H37   H     H_    0.335333 0.328823 0.038861 0.069525
H38   H     H_    0.620228 0.528130 0.245389 0.101920
H39   H     H_    0.705980 0.657209 0.115981 0.117200
H40   H     H_    0.812628 0.650149 0.954968 0.068019
H41   H     H_    0.286525 0.289797 0.646749 -0.074229
H42   H     H_    0.888525 0.647420 0.870939 0.119756
H43   H     H_    0.031216 0.525567 0.712893 0.152806
H44   H     H_    0.765718 0.658069 0.030815 0.067803
H45   H     H_    0.845018 0.561638 0.392200 0.096307
H46   H     H_    0.377759 0.474439 0.600017 0.075914
H47   H     H_    0.523816 0.997646 0.552193 0.067401
H48   H     H_    0.741463 0.154739 0.455408 0.083753
H49   H     H_    0.869693 0.903957 0.466641 0.074572
H50   H     H_    0.693869 0.014091 0.456390 0.070601
H51   H     H_    0.370604 0.106667 0.551203 0.069100
H52   H     H_    0.025554 0.254705 0.712492 0.145515
H53   H     H_    0.459975 0.863942 0.548084 0.074624
H54   H     H_    0.419592 0.346313 0.527814 0.075379
H55   H     H_    0.807648 0.669961 0.483983 0.067073
H56   H     H_    0.212243 0.188548 0.694811 0.114484
H57   H     H_    0.336431 0.325735 0.427859 0.011169
H58   H     H_    0.132893 0.315921 0.446611 0.091781
N1    N     N_R   0.906813 0.488311 0.199035 -0.423878
N2    N     N_R   0.242290 0.486985 0.795261 -0.424488
O1    O     O_2   0.906370 0.542040 0.619810 -0.456459
O2    O     O_3   0.655499 0.290488 0.388733 -0.635039
O3    O     O_3   0.090436 0.235532 0.611715 -0.588502
O4    O     O_2   0.283330 0.457940 0.380160 -0.464151
O5    O     O_3   0.051340 0.457960 0.440360 -0.494210
O6    O     O_3   0.503130 0.601610 0.416130 -0.484248
O7    O     O_3   0.155278 0.331432 0.373128 -0.644264
O8    O     O_3   0.616890 0.595000 0.528820 -0.481010
O9    O     O_3   0.087820 0.642040 0.442240 -0.480346
O10   O     O_2   0.190262 0.780787 0.475331 -0.500884
O11   O     O_3   0.066543 0.767466 0.383452 -0.644238
O12   O     O_3   0.138370 0.541980 0.559630 -0.496949
O13   O     O_3   0.572820 0.404940 0.471170 -0.491054
O14   O     O_2   0.345130 0.693150 0.532000 -0.461509
O15   O     O_3   0.534820 0.714386 0.614391 -0.640416
O16   O     O_2   0.345921 0.566897 0.330568 -0.514449
O17   O     O_3   0.512019 0.683216 0.334358 -0.555240
O18   O     O_2   0.017171 0.359708 0.184828 -0.584364
O19   O     O_2   0.391153 0.368135 0.800651 -0.595413
O20   O     O_2   0.760801 0.609734 0.198874 -0.605907
O21   O     O_2   0.068353 0.601362 0.797080 -0.600382
O22   O     O_3   0.686580 0.398330 0.583860 -0.479076
O23   O     O_2   0.771935 0.469133 0.675095 -0.493304
O24   O     O_3   0.043131 0.667859 0.631753 -0.623858
O25   O     O_3   0.773684 0.316302 0.664682 -0.591348
O26   O     O_2   0.844570 0.306830 0.467970 -0.467174
O27   O     O_3   0.101900 0.357890 0.557750 -0.485639
O28   O     O_2   0.059648 0.214336 0.512724 -0.483824
P1    P     P_3+3 0.071770 0.565500 0.613330 0.994447
P2    P     P_3+3 0.664870 0.318630 0.453960 0.981474
P3    P     P_3+3 0.158057 0.257695 0.556191 0.950665
P4    P     P_3+3 0.117940 0.434440 0.386660 0.981715
P5    P     P_3+3 0.050882 0.744027 0.443760 0.952661
P6    P     P_3+3 0.672420 0.404675 0.648767 0.951112
P7    P     P_3+3 0.530576 0.693240 0.548673 0.947969
P8    P     P_3+3 0.513742 0.589693 0.350946 0.989923
O29   O     O_3   0.830082 0.713283 0.358730 -0.782385
H59   H     H_    0.778576 0.769141 0.364902 0.278791
N3    N     N_2   0.155175 0.720010 0.273560 -0.422107
H60   H     H_    0.194209 0.765235 0.259114 0.205181
C67   C     C_3   0.179445 0.646406 0.239096 -0.180473
H61   H     H_    0.312588 0.627711 0.233061 0.137362
H62   H     H_    0.117212 0.653699 0.202402 0.096822
H63   H     H_    0.128668 0.600247 0.254595 0.111129
N4    N     N_2   0.140001 0.401637 0.271921 -0.390353
H64   H     H_    0.138605 0.346946 0.281504 0.226693
C68   C     C_3   0.294012 0.419927 0.257250 -0.127818
H65   H     H_    0.343406 0.374334 0.225633 0.095091
H66   H     H_    0.384218 0.418693 0.289005 0.105569
H67   H     H_    0.278349 0.477711 0.244370 0.087351
N5    N     N_2   0.545573 0.342141 0.887283 -0.388139
H68   H     H_    0.590241 0.296447 0.906595 0.186111
C69   C     C_3   0.672917 0.383221 0.873023 -0.151285
H69   H     H_    0.773994 0.384188 0.902183 0.076733
H70   H     H_    0.626045 0.444914 0.868510 0.088722
H71   H     H_    0.723140 0.351874 0.836625 0.137588

loop_
_geom_bond_atom_site_label_1
_geom_bond_atom_site_label_2
_ccdc_geom_bond_type
C25   C46   A    
C12   H41   S    
C5    O11   S    
C53   C54   D    
C23   H52   S    
C22   H46   S    
O29   H59   S    
C1    H17   S    
C67   H61   S    
C34   H57   S    
O28   P3    D    
C58   P7    S    
O1    P1    D    
C5    C6    S    
C68   H66   S    
C10   N1    Am   
C46   H40   S    
C51   C52   D    
C6    H27   S    
C56   H6    S    
Ba2   O6    S    
C11   C16   D    
C66   H13   S    
C59   H53   S    
Ba1   P2    S    
O26   P2    D    
Ba1   O1    S    
C63   H55   S    
C3    C4    S    
O12   P1    S    
C3    O15   S    
C54   P2    S    
C52   C61   S    
C31   C47   A    
C10   C20   A    
C22   C37   D    
C4    H20   S    
C34   C45   S    
C1    H23   S    
Ba1   Ba2   S    
Ba1   O27   S    
C60   C62   S    
C15   N4    S    
O24   P1    S    
C25   C42   A    
C56   C64   S    
Ba1   O13   S    
C17   C18   A    
C56   O24   S    
C14   C15   D    
C17   C41   A    
C22   C36   S    
C28   N5    S    
C38   H43   S    
Ba1   O8    S    
C7    C8    S    
C25   C26   A    
C50   P3    S    
C13   C21   S    
C2    O25   S    
C5    O29   S    
C62   H47   S    
O16   P8    D    
C67   H62   S    
C39   N2    S    
C8    H31   S    
C65   H10   S    
Ba1   O5    S    
C1    H12   S    
O15   P7    S    
C2    H1    S    
C32   O21   D    
C43   H37   S    
C31   C32   A    
C68   H67   S    
C19   C43   A    
C12   O3    S    
N4    C68   S    
C5    H25   S    
C9    C18   A    
Ba2   O5    S    
C61   C62   D    
O27   P3    S    
C65   C66   S    
C13   P8    S    
O11   P5    S    
C17   C20   A    
C65   H11   S    
N3    C67   S    
C69   H70   S    
C37   C38   D    
C35   H35   S    
C61   H50   S    
C33   O19   D    
C55   C60   A    
N4    H64   S    
Ba2   O8    S    
C49   C50   S    
O22   P6    S    
C58   C59   A    
C40   C43   A    
C69   H69   S    
C9    N1    Am   
C41   C42   A    
C45   H2    S    
C35   C36   S    
C57   P5    S    
C6    N3    S    
C16   N1    S    
C21   H45   S    
Ba2   O4    S    
C29   C30   A    
C2    H16   S    
C26   C30   A    
O23   P6    D    
C64   H8    S    
C44   H39   S    
C48   H44   S    
C15   C16   S    
C6    H26   S    
Ba1   O22   S    
O4    P4    D    
C18   C19   A    
O3    P3    S    
C7    H28   S    
C45   H3    S    
Ba1   O12   S    
C19   H34   S    
Ba2   P4    S    
C46   C47   A    
C20   C44   A    
C58   C63   A    
C14   C21   D    
C11   C13   S    
Ba2   O14   S    
C67   H63   S    
C29   C33   A    
C65   O2    S    
C40   C41   A    
C3    H18   S    
C1    C2    S    
C34   O7    S    
N3    H60   S    
C50   C51   S    
C24   C40   A    
C55   H49   S    
C69   H71   S    
C42   C48   A    
C49   H54   S    
C64   H9    S    
C52   C53   S    
C38   C39   S    
C23   H24   S    
C7    H29   S    
O7    P4    S    
C66   H15   S    
C8    H33   S    
C34   H58   S    
C49   C54   D    
C11   H38   S    
Ba1   O26   S    
C51   H51   S    
C9    O18   D    
C12   H32   S    
O17   P8    S    
Ba2   O9    S    
C4    H21   S    
C8    H30   S    
C44   C48   A    
C24   C26   A    
O25   P6    S    
O2    P2    S    
O5    P4    S    
Ba2   O12   S    
C30   C31   A    
C10   O20   D    
Ba1   P1    S    
C66   H14   S    
C68   H65   S    
C4    H22   S    
C57   C63   A    
O9    P5    S    
C28   C29   A    
C64   H7    S    
C7    O17   S    
O6    P8    S    
O10   P5    D    
O14   P7    D    
C12   C23   S    
C35   C39   D    
C59   C60   A    
C23   H56   S    
C45   H4    S    
C55   C57   A    
C27   C28   A    
N5    H68   S    
C3    H19   S    
O13   P2    S    
C36   P6    S    
C14   P4    S    
C27   H36   S    
C24   C27   A    
C32   N2    Am   
C53   H48   S    
C33   N2    Am   
Ba2   O13   S    
C37   P1    S    
C56   H5    S    
C47   H42   S    
N5    C69   S    
O8    P7    S    
