data_mof_unit_36840.cif
_audit_creation_date              2013-03-05T16:00:27-0500
_audit_creation_method            fapswitch 2.2
_symmetry_space_group_name_H-M    P1
_symmetry_Int_Tables_number       1
_space_group_crystal_system       triclinic
_cell_length_a                    6.933068
_cell_length_b                    28.777334
_cell_length_c                    32.015131
_cell_angle_alpha                 101.084072
_cell_angle_beta                  89.90065
_cell_angle_gamma                 90.404447
_cell_volume                      6268.19746695

loop_
_atom_site_label
_atom_site_type_symbol
_atom_site_description
_atom_site_fract_x
_atom_site_fract_y
_atom_site_fract_z
_atom_type_partial_charge
O1    O     O_R   0.494350 0.453160 0.452490 -0.593436
O2    O     O_R   0.820990 0.455850 0.538220 -0.597543
O3    O     O_R   0.994300 0.546840 0.547510 -0.594626
C1    C     C_R   0.651878 0.445672 0.551760 0.938109
O4    O     O_R   0.823860 0.447580 0.452250 -0.597314
O5    O     O_R   0.997190 0.538510 0.460920 -0.589737
C2    C     C_R   0.654689 0.434598 0.436430 0.927376
O6    O     O_R   0.491450 0.461490 0.539080 -0.593522
O7    O     O_3   0.661790 0.529840 0.502950 -0.261785
V1    V     V_3+5 0.935470 0.494460 0.499450 1.147988
O8    O     O_R   0.327090 0.544150 0.461780 -0.593502
C3    C     C_R   0.158598 0.554244 0.448361 0.934974
O9    O     O_R   0.324210 0.552420 0.547750 -0.576960
C4    C     C_R   0.155541 0.566041 0.563092 0.967472
V2    V     V_3+5 0.435840 0.505540 0.500550 1.154897
O10   O     O_3   0.159650 0.470160 0.497050 -0.276137
C5    C     C_R   0.983913 0.609450 0.627447 -0.299173
H1    H     H_    0.867929 0.583706 0.620329 0.153304
C6    C     C_R   0.971366 0.644304 0.664589 0.187558
C7    C     C_R   0.121749 0.677973 0.675376 -0.010488
C8    C     C_R   0.283541 0.675988 0.647677 0.064914
C9    C     C_R   0.295823 0.640021 0.610637 0.127063
C10   C     C_R   0.145747 0.605958 0.600683 -0.214646
N1    N     N_R   0.260018 0.726749 0.741083 -0.082952
N2    N     N_R   0.247048 0.760395 0.775960 -0.078471
C11   C     C_R   0.079347 0.784048 0.786286 0.093124
N3    N     N_R   0.924806 0.772312 0.760173 -0.075736
N4    N     N_R   0.938116 0.738763 0.725163 -0.061530
C12   C     C_R   0.106482 0.715405 0.714713 0.145936
C13   C     C_R   0.888024 0.842172 0.839400 -0.132647
C14   C     C_R   0.877242 0.878217 0.875703 -0.153586
H2    H     H_    0.737422 0.892835 0.885734 0.125873
C15   C     C_R   0.044937 0.895489 0.898406 -0.131816
C16   C     C_R   0.223309 0.875429 0.883979 -0.157180
H3    H     H_    0.355571 0.887663 0.900586 0.132049
C17   C     C_R   0.233853 0.839185 0.847949 -0.134157
H4    H     H_    0.373964 0.824799 0.837872 0.115201
C18   C     C_R   0.066567 0.822149 0.825027 0.125414
C19   C     C_R   0.174860 0.659357 0.284418 0.483861
N5    N     N_R   0.121293 0.676628 0.325770 -0.177879
C20   C     C_R   0.059591 0.722461 0.338018 0.453625
C21   C     C_R   0.047899 0.752600 0.308210 -0.046320
C22   C     C_R   0.102627 0.735315 0.265711 -0.010402
C23   C     C_R   0.167650 0.688395 0.253660 -0.046621
C24   C     C_R   0.981790 0.799405 0.319789 -0.122248
C25   C     C_R   0.970004 0.828562 0.289609 -0.118046
C26   C     C_R   0.024736 0.811732 0.247099 -0.045551
C27   C     C_R   0.091833 0.764976 0.235163 -0.011171
C28   C     C_R   0.147917 0.747791 0.192734 -0.046898
C29   C     C_R   0.213849 0.700970 0.181147 -0.117119
C30   C     C_R   0.223220 0.671624 0.211201 -0.123163
C31   C     C_R   0.014657 0.840538 0.216165 0.461439
N6    N     N_R   0.070088 0.823394 0.174920 -0.186180
C32   C     C_R   0.136062 0.777904 0.162907 0.461158
O11   O     O_2   0.234938 0.614213 0.273028 -0.571195
O12   O     O_2   0.006996 0.738664 0.378775 -0.552832
H5    H     H_    0.917989 0.864360 0.299739 0.174772
O13   O     O_2   0.951661 0.885463 0.227367 -0.548402
O14   O     O_2   0.188576 0.761666 0.122149 -0.547229
H6    H     H_    0.257996 0.686772 0.148771 0.174851
C33   C     C_R   0.881139 0.868499 0.130792 -0.061319
H7    H     H_    0.749062 0.856999 0.143920 0.111721
C34   C     C_R   0.871601 0.898025 0.100755 -0.172157
H8    H     H_    0.731271 0.908853 0.091497 0.130501
C35   C     C_R   0.041218 0.913591 0.083197 -0.137083
C36   C     C_R   0.220340 0.898573 0.096402 -0.173248
C37   C     C_R   0.229466 0.868909 0.126284 -0.064959
C38   C     C_R   0.060101 0.853717 0.143807 0.224941
C39   C     C_R   0.264795 0.654395 0.389675 -0.123298
C40   C     C_R   0.277344 0.624226 0.419087 -0.195550
C41   C     C_R   0.148962 0.585886 0.416948 -0.125550
C42   C     C_R   0.010213 0.577758 0.384379 -0.265997
H9    H     H_    0.911082 0.548089 0.382123 0.130437
C43   C     C_R   0.999756 0.607205 0.354100 0.244244
C44   C     C_R   0.127809 0.646038 0.356761 0.190708
C45   C     C_R   0.535699 0.223942 0.838079 0.454609
N7    N     N_R   0.579949 0.176826 0.826132 -0.177860
C46   C     C_R   0.634962 0.158288 0.785128 0.480706
C47   C     C_R   0.645708 0.187242 0.754336 -0.048099
C48   C     C_R   0.598065 0.235486 0.766039 -0.009083
C49   C     C_R   0.542851 0.254126 0.808252 -0.047390
C50   C     C_R   0.701980 0.169101 0.712168 -0.127974
C51   C     C_R   0.709807 0.198384 0.682027 -0.114118
C52   C     C_R   0.661137 0.246536 0.693258 -0.046746
C53   C     C_R   0.605058 0.265127 0.735424 -0.012053
C54   C     C_R   0.555563 0.313267 0.747023 -0.045160
C55   C     C_R   0.500617 0.331478 0.789271 -0.119502
C56   C     C_R   0.494614 0.302298 0.819511 -0.119896
C57   C     C_R   0.666520 0.276623 0.663325 0.461070
N8    N     N_R   0.617655 0.323482 0.675012 -0.186223
C58   C     C_R   0.562840 0.342034 0.716024 0.459435
O15   O     O_2   0.481784 0.241411 0.878527 -0.549017
O16   O     O_2   0.679303 0.111971 0.774139 -0.567222
H10   H     H_    0.739923 0.132176 0.702273 0.173263
H11   H     H_    0.753641 0.183102 0.649861 0.174586
O17   O     O_2   0.718575 0.259032 0.622777 -0.546271
O18   O     O_2   0.517257 0.388283 0.726936 -0.551229
H12   H     H_    0.451378 0.317610 0.851712 0.174977
C59   C     C_R   0.456422 0.373351 0.630714 -0.063968
H13   H     H_    0.318351 0.365605 0.643779 0.110816
C60   C     C_R   0.464414 0.402906 0.600677 -0.176357
H14   H     H_    0.331348 0.417536 0.591348 0.132506
C61   C     C_R   0.642138 0.413606 0.583173 -0.136480
C62   C     C_R   0.811274 0.393759 0.596453 -0.175613
C63   C     C_R   0.802859 0.364144 0.626385 -0.064693
H15   H     H_    0.934762 0.349466 0.636261 0.112268
C64   C     C_R   0.625566 0.353760 0.643829 0.224454
C65   C     C_R   0.424455 0.110039 0.853013 0.247328
C66   C     C_R   0.415620 0.080491 0.883276 -0.270842
H16   H     H_    0.306953 0.052771 0.880033 0.129827
C67   C     C_R   0.548085 0.085880 0.917042 -0.129119
C68   C     C_R   0.689294 0.121587 0.920564 -0.176134
H17   H     H_    0.792711 0.126441 0.946387 0.137584
C69   C     C_R   0.695801 0.151967 0.891281 -0.129549
C70   C     C_R   0.565790 0.146256 0.857048 0.188570
C71   C     C_R   0.463473 0.380428 0.379928 -0.151807
C72   C     C_R   0.451939 0.344537 0.343597 -0.133087
H18   H     H_    0.310935 0.333762 0.330624 0.113697
C73   C     C_R   0.619744 0.323017 0.324267 0.120037
C74   C     C_R   0.799527 0.338372 0.342436 -0.129918
C75   C     C_R   0.811106 0.374298 0.378812 -0.156699
C76   C     C_R   0.643189 0.395890 0.398066 -0.132392
N9    N     N_R   0.768848 0.264204 0.266527 -0.074029
N10   N     N_R   0.757375 0.230239 0.231786 -0.075276
C77   C     C_R   0.583629 0.215434 0.214286 0.107368
N11   N     N_R   0.421861 0.236196 0.233176 -0.074013
N12   N     N_R   0.433334 0.270160 0.267918 -0.075473
C78   C     C_R   0.607078 0.284963 0.285420 0.106481
C79   C     C_R   0.391155 0.161977 0.157309 -0.129298
C80   C     C_R   0.379541 0.125977 0.120989 -0.152216
H19   H     H_    0.238592 0.115045 0.108062 0.127129
C81   C     C_R   0.547429 0.104316 0.101783 -0.131496
C82   C     C_R   0.727163 0.119816 0.119890 -0.151886
C83   C     C_R   0.738732 0.155782 0.156164 -0.131347
H20   H     H_    0.879745 0.166573 0.169124 0.114021
C84   C     C_R   0.570947 0.177345 0.175465 0.119487
O19   O     O_R   0.699050 0.038480 0.960880 -0.591518
O20   O     O_R   0.366680 0.052470 0.047720 -0.595996
O21   O     O_R   0.193410 0.961530 0.039110 -0.593585
C85   C     C_R   0.535883 0.065506 0.063497 0.926332
O22   O     O_R   0.369510 0.044100 0.961740 -0.589732
O23   O     O_R   0.196260 0.953110 0.952520 -0.594805
C86   C     C_R   0.538566 0.054125 0.948293 0.945107
O24   O     O_R   0.696210 0.046900 0.047470 -0.595165
O25   O     O_3   0.528780 0.970170 0.997070 -0.273971
V3    V     V_3+5 0.255080 0.005530 0.000540 1.151193
O26   O     O_R   0.866350 0.947520 0.952280 -0.595582
C87   C     C_R   0.035065 0.934463 0.936533 0.928673
O27   O     O_R   0.863520 0.955880 0.038260 -0.595464
C88   C     C_R   0.032035 0.945686 0.051788 0.938826
V4    V     V_3+5 0.754720 0.994440 0.999470 1.148705
O28   O     O_3   0.030880 0.029830 0.002930 -0.269655
H21   H     H_    0.274218 0.635740 0.201022 0.173685
H22   H     H_    0.353957 0.909755 0.083682 0.134183
H23   H     H_    0.368707 0.857950 0.136055 0.110119
H24   H     H_    0.364428 0.683927 0.391992 0.144654
H25   H     H_    0.385783 0.631215 0.443846 0.140740
N13   N     N_2   0.807137 0.644569 0.691420 -0.116697
H26   H     H_    0.682512 0.632443 0.675231 0.156394
C89   C     C_3   0.837780 0.622272 0.727663 -0.864457
H27   H     H_    0.867733 0.583950 0.716809 0.250013
H28   H     H_    0.706257 0.626104 0.747840 0.251326
H29   H     H_    0.960193 0.639261 0.747320 0.255395
N14   N     N_2   0.863188 0.597083 0.320453 -0.103423
H30   H     H_    0.833648 0.561440 0.310840 0.184807
C90   C     C_3   0.689194 0.624774 0.327751 -0.887546
H31   H     H_    0.597503 0.617082 0.298876 0.288378
H32   H     H_    0.723147 0.663238 0.334486 0.253420
H33   H     H_    0.608210 0.615358 0.354915 0.251681
H34   H     H_    0.461984 0.368362 0.799137 0.174539
H35   H     H_    0.950680 0.401148 0.583801 0.133512
N15   N     N_2   0.295729 0.102194 0.817762 -0.101527
H36   H     H_    0.251698 0.067405 0.808597 0.186335
C91   C     C_3   0.135494 0.134563 0.821579 -0.878380
H37   H     H_    0.054749 0.128718 0.791123 0.279193
H38   H     H_    0.186136 0.171903 0.828477 0.249479
H39   H     H_    0.037534 0.128163 0.847329 0.249503
N16   N     N_2   0.433580 0.710667 0.655511 -0.120959
H40   H     H_    0.505946 0.712384 0.683824 0.185805
C92   C     C_3   0.386603 0.756486 0.646136 -0.856742
H41   H     H_    0.520405 0.778039 0.646864 0.249802
H42   H     H_    0.284664 0.775534 0.670123 0.248027
H43   H     H_    0.321194 0.752588 0.614019 0.252213
H44   H     H_    0.804542 0.179638 0.894798 0.142803
H45   H     H_    0.330892 0.396155 0.393720 0.129541
H46   H     H_    0.931943 0.322694 0.328521 0.115964
H47   H     H_    0.952046 0.385218 0.391752 0.127434
H48   H     H_    0.258756 0.177694 0.171197 0.115808
H49   H     H_    0.859727 0.104052 0.106124 0.130121
N17   N     N_2   0.460576 0.638030 0.583568 -0.097458
H50   H     H_    0.588140 0.649254 0.598877 0.174435
C93   C     C_3   0.432284 0.657229 0.545442 -0.808463
H51   H     H_    0.414915 0.696204 0.553688 0.238380
H52   H     H_    0.303157 0.641270 0.527616 0.219074
H53   H     H_    0.560024 0.649190 0.524394 0.238341
H54   H     H_    0.756123 0.829939 0.822650 0.116019
H55   H     H_    0.938363 0.813655 0.352205 0.174338

loop_
_geom_bond_atom_site_label_1
_geom_bond_atom_site_label_2
_geom_bond_distance
_ccdc_geom_bond_type
N13   C89   1.446476 S    
C55   C56   1.398621 A    
C34   C35   1.409477 A    
O21   V3    1.975497 S    
N17   H50   1.031179 S    
C50   H10   1.083010 S    
C20   C21   1.410325 A    
O23   V3    1.976658 S    
C80   C81   1.407785 A    
C6    C7    1.415429 A    
O26   C87   1.301880 A    
C1    O6    1.299579 A    
C68   C69   1.399901 A    
C69   C70   1.404540 A    
N9    C78   1.359703 A    
C82   H49   1.082746 S    
N9    N10   1.334165 A    
N6    C32   1.372967 A    
C71   C72   1.401162 A    
C63   C64   1.403094 A    
C11   N3    1.360297 A    
N11   N12   1.334160 A    
C71   C76   1.408197 A    
C65   C70   1.413276 A    
N14   H30   1.031807 S    
N8    C64   1.446543 S    
O24   V4    1.979806 S    
C54   C58   1.409939 A    
O27   V4    1.971668 S    
O25   V3    2.152129 S    
C13   C14   1.403417 A    
C69   H44   1.082800 S    
C46   O16   1.349058 S    
C24   H55   1.082994 S    
C28   C32   1.410329 A    
C1    C61   1.491029 S    
C65   C66   1.407583 A    
C13   C18   1.407896 A    
C37   H23   1.082842 S    
C16   H3    1.082889 S    
C35   C88   1.492118 S    
C33   C34   1.402217 A    
N6    C38   1.446965 S    
N1    C12   1.358176 A    
C68   H17   1.083188 S    
C66   C67   1.404653 A    
C91   H37   1.109021 S    
O8    V2    1.972050 S    
C13   H54   1.082748 S    
C51   C52   1.406372 A    
N15   C91   1.444688 S    
C81   C82   1.408206 A    
V4    O28   2.155257 S    
C14   C15   1.408172 A    
C40   C41   1.404109 A    
O1    V2    1.979597 S    
O9    C4    1.301093 A    
C9    N17   1.427380 S    
C22   C27   1.418727 A    
C92   H43   1.109969 S    
C67   C86   1.480171 S    
C7    C12   1.495700 S    
C73   C78   1.492978 S    
C36   C37   1.401041 A    
O19   C86   1.296703 A    
C74   C75   1.402776 A    
C60   C61   1.409140 A    
C8    C9    1.419070 A    
C90   H32   1.109887 S    
N14   C90   1.444225 S    
C90   H31   1.108633 S    
C33   H7    1.082837 S    
O7    V1    2.152237 S    
C62   C63   1.400418 A    
C92   H42   1.109701 S    
C15   C16   1.407656 A    
C32   O14   1.349052 S    
C19   O11   1.348780 S    
C39   H24   1.082831 S    
C43   C44   1.412057 A    
C37   C38   1.403364 A    
C60   H14   1.082752 S    
N16   H40   1.029469 S    
N1    N2    1.333239 A    
C42   H9    1.083830 S    
C42   C43   1.407134 A    
C89   H29   1.110424 S    
C19   N5    1.373153 A    
C36   H22   1.082788 S    
C54   C55   1.406321 A    
C11   C18   1.492136 S    
C83   C84   1.407252 A    
C29   C30   1.398790 A    
N2    C11   1.359325 A    
N7    C46   1.373039 A    
C55   H34   1.083003 S    
C58   O18   1.349080 S    
C34   H8    1.082737 S    
O22   C86   1.297519 A    
C93   H52   1.110540 S    
C4    C10   1.497225 S    
O2    C1    1.300228 A    
C22   C23   1.408134 A    
C93   H53   1.110325 S    
C20   O12   1.349019 S    
C48   C53   1.418227 A    
C15   C87   1.492311 S    
O23   C87   1.298772 A    
C75   H47   1.082686 S    
C79   C84   1.408247 A    
C26   C27   1.408308 A    
C73   C74   1.408248 A    
C51   H11   1.082997 S    
C5    H1    1.083836 S    
C75   C76   1.407777 A    
C5    C10   1.402989 A    
C31   N6    1.373033 A    
C52   C53   1.408255 A    
C91   H39   1.108805 S    
C53   C54   1.408307 A    
O25   V4    1.706407 S    
O3    C4    1.300427 A    
C31   O13   1.349030 S    
O22   V3    1.979565 S    
C45   O15   1.349055 S    
C62   H35   1.082706 S    
V3    O28   1.704511 S    
C77   C84   1.492982 S    
N5    C20   1.372937 A    
C59   C60   1.401738 A    
C3    C41   1.482640 S    
C28   C29   1.406381 A    
O6    V2    1.971544 S    
O9    V2    1.982250 S    
C25   H5    1.082994 S    
C77   N11   1.359701 A    
C21   C22   1.408308 A    
C19   C23   1.409825 A    
N12   C78   1.360068 A    
O2    V1    1.979782 S    
C61   C62   1.409454 A    
N15   H36   1.031799 S    
C23   C30   1.406319 A    
O4    C2    1.301861 A    
C79   C80   1.402775 A    
C63   H15   1.082821 S    
C25   C26   1.406479 A    
N4    C12   1.359994 A    
N17   C93   1.447507 S    
O21   C88   1.298762 A    
C67   C68   1.403104 A    
O1    C2    1.298554 A    
C6    N13   1.424283 S    
C14   H2    1.082839 S    
C85   O24   1.298594 A    
C48   C49   1.408207 A    
C74   H46   1.082577 S    
C45   C49   1.409597 A    
O5    V1    1.975702 S    
C47   C50   1.406164 A    
N16   C92   1.446836 S    
O8    C3    1.299255 A    
N5    C44   1.448429 S    
C26   C31   1.410521 A    
O20   C85   1.301926 A    
C81   C85   1.492939 S    
C59   C64   1.404054 A    
C71   H45   1.082748 S    
C83   H20   1.082572 S    
C72   H18   1.082571 S    
C59   H13   1.082777 S    
C40   H25   1.082878 S    
C29   H6    1.082994 S    
C89   H27   1.111600 S    
C43   N14   1.421534 S    
C57   O17   1.349076 S    
C72   C73   1.407253 A    
C80   H19   1.082685 S    
O7    V2    1.706814 S    
C41   C42   1.404939 A    
C35   C36   1.409739 A    
O3    V1    1.976780 S    
V1    O10   1.704375 S    
O27   C88   1.301568 A    
C93   H51   1.109097 S    
O5    C3    1.296239 A    
C45   N7    1.372922 A    
C46   C47   1.409378 A    
C33   C38   1.404091 A    
N8    C58   1.372950 A    
C82   C83   1.401175 A    
O20   V3    1.977285 S    
C65   N15   1.422614 S    
C27   C28   1.408362 A    
O26   V4    1.982662 S    
C17   C18   1.407356 A    
C5    C6    1.403497 A    
C39   C44   1.404638 A    
C16   C17   1.400699 A    
N13   H26   1.031843 S    
C8    N16   1.425108 S    
C39   C40   1.401321 A    
C91   H38   1.109218 S    
C49   C56   1.406239 A    
C47   C48   1.408175 A    
C24   C25   1.399011 A    
O4    V1    1.976797 S    
C7    C8    1.423328 A    
C90   H33   1.109833 S    
C17   H4    1.082744 S    
C50   C51   1.398616 A    
C52   C57   1.409901 A    
C79   H48   1.082581 S    
C66   H16   1.083829 S    
N3    N4    1.334817 A    
C9    C10   1.418346 A    
O19   V4    1.972846 S    
C2    C76   1.492892 S    
C30   H21   1.083011 S    
C57   N8    1.373018 A    
N7    C70   1.447922 S    
C21   C24   1.406361 A    
C56   H12   1.082999 S    
C92   H41   1.110031 S    
V2    O10   2.155261 S    
C89   H28   1.110367 S    
N10   C77   1.360071 A    
