data_mof_unit_42871.cif
_audit_creation_date              2012-12-10T19:10:29-0500
_audit_creation_method            fapswitch 2.2
_symmetry_space_group_name_H-M    P1
_symmetry_Int_Tables_number       1
_space_group_crystal_system       triclinic
_cell_length_a                    10.636284
_cell_length_b                    9.846318
_cell_length_c                    15.691951
_cell_angle_alpha                 89.555293
_cell_angle_beta                  91.562197
_cell_angle_gamma                 89.342486
_cell_volume                      1642.61774432

loop_
_atom_site_label
_atom_site_type_symbol
_atom_type_description
_atom_site_fract_x
_atom_site_fract_y
_atom_site_fract_z
_atom_type_partial_charge
C1    C     C_R   0.257875 0.500093 0.500490 0.818849
C2    C     C_3   0.615926 0.414507 0.952895 -0.575419
C3    C     C_3   0.619204 0.417847 0.051308 -0.408497
C4    C     C_1   0.505211 0.501259 0.825813 0.013166
C5    C     C_1   0.511719 0.508964 0.174537 -0.099621
C6    C     C_1   0.508264 0.505765 0.249890 -0.229394
C7    C     C_3   0.074579 0.566449 0.583554 -0.378147
C8    C     C_3   0.072629 0.350067 0.498232 -0.384474
C9    C     C_3   0.929986 0.568891 0.582418 -0.397868
C10   C     C_3   0.929838 0.349086 0.500319 -0.403571
C11   C     C_3   0.066533 0.577888 0.422803 -0.425314
C12   C     C_3   0.120936 0.498755 0.501248 0.176952
C13   C     C_3   0.878294 0.497212 0.501222 0.187109
C14   C     C_R   0.502423 0.501079 0.338617 0.906384
C15   C     C_3   0.922760 0.572342 0.420752 -0.392998
C16   C     C_3   0.455919 0.085128 0.413529 0.052434
C17   C     C_3   0.421192 0.929516 0.424582 0.045813
C18   C     C_3   0.627756 0.077209 0.516487 -0.254711
C19   C     C_3   0.629027 0.918041 0.501107 -0.257712
C20   C     C_3   0.420843 0.079863 0.567008 -0.303304
C21   C     C_3   0.439453 0.918589 0.575580 -0.265031
C22   C     C_R   0.742025 0.499060 0.500825 0.824361
C23   C     C_R   0.500800 0.499588 0.661437 0.908743
C24   C     C_3   0.526072 0.655113 0.048239 -0.433020
C25   C     C_3   0.383227 0.453056 0.049843 -0.429220
C26   C     C_3   0.381669 0.445760 0.951618 0.288676
C27   C     C_3   0.530027 0.652709 0.949845 0.293260
C28   C     C_1   0.503265 0.499247 0.750394 -0.141509
C29   C     C_3   0.510667 0.508935 0.083055 0.239814
C30   C     C_3   0.506080 0.505341 0.917395 0.163212
H1    H     H_    0.895918 0.676180 0.583811 0.174196
H2    H     H_    0.892401 0.294289 0.443363 0.164199
H3    H     H_    0.094127 0.685892 0.427421 0.170883
H4    H     H_    0.103243 0.535088 0.362796 0.158267
H5    H     H_    0.883618 0.677724 0.417517 0.170526
H6    H     H_    0.889212 0.518798 0.362312 0.156882
H7    H     H_    0.368663 0.142560 0.394674 0.122932
H8    H     H_    0.321403 0.934148 0.444746 0.098368
H9    H     H_    0.701910 0.125763 0.479165 0.139775
H10   H     H_    0.678172 0.891725 0.441992 0.136106
H11   H     H_    0.445251 0.127480 0.629155 0.189242
H12   H     H_    0.497196 0.893845 0.634042 0.183238
H13   H     H_    0.319998 0.105087 0.553517 0.139490
H14   H     H_    0.346973 0.869883 0.585081 0.164316
H15   H     H_    0.657517 0.097451 0.583793 0.151360
H16   H     H_    0.685215 0.868069 0.553561 0.158161
H17   H     H_    0.447100 0.720662 0.069178 0.214754
H18   H     H_    0.305138 0.519159 0.071866 0.217689
H19   H     H_    0.368026 0.349680 0.076744 0.153878
H20   H     H_    0.614469 0.699828 0.074584 0.152780
H21   H     H_    0.376481 0.336898 0.933210 0.113914
H22   H     H_    0.625856 0.683334 0.930904 0.106355
H23   H     H_    0.711354 0.457590 0.074642 0.191409
H24   H     H_    0.610591 0.312828 0.076840 0.194962
H25   H     H_    0.707351 0.450538 0.928812 0.205458
H26   H     H_    0.604439 0.307873 0.931116 0.204922
H27   H     H_    0.109869 0.672194 0.588550 0.177600
H28   H     H_    0.103650 0.299426 0.438999 0.166980
H29   H     H_    0.111088 0.509075 0.640607 0.185039
H30   H     H_    0.111545 0.290208 0.553634 0.175973
H31   H     H_    0.895989 0.517036 0.640584 0.165016
H32   H     H_    0.900143 0.292770 0.558103 0.174464
N1    N     N_3   0.499750 0.138610 0.498180 -0.059373
N2    N     N_3   0.499750 0.861390 0.498180 -0.047030
O1    O     O_R   0.314910 0.616040 0.499980 -0.637475
O2    O     O_R   0.314910 0.383960 0.499980 -0.631376
O3    O     O_R   0.500120 0.616090 0.377110 -0.613449
O4    O     O_R   0.500120 0.383910 0.377110 -0.627461
O5    O     O_R   0.685320 0.616040 0.499960 -0.636076
O6    O     O_R   0.685320 0.383960 0.499960 -0.640254
O7    O     O_R   0.500110 0.615990 0.622830 -0.604769
O8    O     O_R   0.500110 0.384010 0.622830 -0.622527
Zn1   Zn    Zn3+2 0.500150 0.654960 0.499960 0.915979
Zn2   Zn    Zn3+2 0.500150 0.345040 0.499960 0.899473
Cl1   Cl    Cl    0.425636 0.779043 0.903312 -0.577758
Cl2   Cl    Cl    0.241264 0.523490 0.906554 -0.575612
C31   C     C_3   0.555416 0.108157 0.340595 -0.373162
C32   C     C_3   0.500759 0.150313 0.251369 -0.375254
C33   C     C_3   0.550366 0.062516 0.179071 -0.914400
H33   H     H_    0.507466 0.097781 0.117379 0.262289
H34   H     H_    0.527226 0.953978 0.187502 0.262697
H35   H     H_    0.654129 0.071857 0.175949 0.260474
H36   H     H_    0.396368 0.153965 0.248799 0.209089
H37   H     H_    0.531897 0.253522 0.236780 0.243974
H38   H     H_    0.623622 0.187507 0.358763 0.212468
H39   H     H_    0.615104 0.016316 0.333738 0.184853
C34   C     C_3   0.403632 0.861178 0.335526 -0.349452
C35   C     C_3   0.282809 0.777279 0.321776 -0.363999
C36   C     C_3   0.253008 0.752332 0.227393 -0.906052
H40   H     H_    0.229298 0.849535 0.193976 0.270386
H41   H     H_    0.334541 0.704897 0.196774 0.274178
H42   H     H_    0.171324 0.683609 0.220729 0.252799
H43   H     H_    0.289504 0.678235 0.353963 0.264492
H44   H     H_    0.201183 0.833942 0.347038 0.191176
H45   H     H_    0.381836 0.943491 0.290213 0.211345
H46   H     H_    0.491198 0.816987 0.310850 0.221716

loop_
_geom_bond_atom_site_label_1
_geom_bond_atom_site_label_2
_ccdc_geom_bond_type
C34   C35   S    
C24   C27   S    
C20   H11   S    
C19   H16   S    
C31   C32   S    
C9    H31   S    
C18   C19   S    
C2    H25   S    
C17   N2    S    
C5    C6    T    
C3    H24   S    
C18   N1    S    
C14   O3    A    
O4    Zn2   S    
O2    Zn2   S    
O1    Zn1   S    
C16   C31   S    
C7    H29   S    
C3    C29   S    
C9    C13   S    
C24   C29   S    
C21   N2    S    
C8    H28   S    
C11   C15   S    
C32   H36   S    
C16   C17   S    
C34   H45   S    
O6    Zn2   S    
C26   Cl2   S    
N2    Zn1   S    
O5    Zn1   S    
O3    Zn1   S    
C16   N1    S    
C36   H41   S    
C22   O5    A    
C16   H7    S    
C31   H38   S    
C27   C30   S    
C24   H20   S    
C10   H32   S    
C1    C12   S    
C27   Cl1   S    
C15   H5    S    
C4    C28   T    
C5    C29   S    
C25   C29   S    
C7    C12   S    
C35   H44   S    
C23   O7    A    
C11   H3    S    
O8    Zn2   S    
C33   H34   S    
C32   C33   S    
C25   C26   S    
C21   H12   S    
C18   H9    S    
C10   H2    S    
C6    C14   S    
C21   H14   S    
C1    O1    A    
C19   N2    S    
C8    C12   S    
C34   H46   S    
C1    O2    A    
C23   C28   S    
C35   C36   S    
C36   H42   S    
C25   H18   S    
C31   H39   S    
C26   C30   S    
C13   C15   S    
C18   H15   S    
C15   H6    S    
C20   H13   S    
C27   H22   S    
O7    Zn1   S    
C7    C9    S    
C35   H43   S    
C17   C34   S    
C24   H17   S    
C23   O8    A    
C11   H4    S    
C10   C13   S    
C33   H35   S    
C11   C12   S    
N1    Zn2   S    
C2    C30   S    
C20   N1    S    
C2    C3    S    
C2    H26   S    
C26   H21   S    
C8    H30   S    
C3    H23   S    
C22   O6    A    
C13   C22   S    
C17   H8    S    
C25   H19   S    
C19   H10   S    
C9    H1    S    
C33   H33   S    
C32   H37   S    
C20   C21   S    
C8    C10   S    
C14   O4    A    
C36   H40   S    
C7    H27   S    
C4    C30   S    
