data_mof_unit_31562.cif
_audit_creation_date              2012-10-26T20:06:03-0400
_audit_creation_method            fapswitch 2.2
_symmetry_space_group_name_H-M    P1
_symmetry_Int_Tables_number       1
_space_group_crystal_system       triclinic
_cell_length_a                    9.542204
_cell_length_b                    10.832169
_cell_length_c                    13.520161
_cell_angle_alpha                 90.176325
_cell_angle_beta                  73.320009
_cell_angle_gamma                 90.009024
_cell_volume                      1338.67240655

loop_
_atom_site_label
_atom_site_type_symbol
_atom_type_description
_atom_site_fract_x
_atom_site_fract_y
_atom_site_fract_z
_atom_type_partial_charge
C1    C     C_R   0.499949 0.737854 0.500218 0.556263
C2    C     C_R   0.386319 0.452106 0.810234 -0.003616
C3    C     C_R   0.627038 0.936181 0.500805 -0.133758
C4    C     C_R   0.424195 0.484721 0.698741 0.543240
C5    C     C_R   0.627055 0.063909 0.500710 -0.135312
C6    C     C_R   0.499874 0.128263 0.500258 0.021107
C7    C     C_R   0.372606 0.063842 0.500073 -0.132304
C8    C     C_R   0.372583 0.936115 0.500180 -0.133983
C9    C     C_R   0.499848 0.871753 0.500429 0.022391
C10   C     C_R   0.906733 0.593005 0.546706 0.040319
C11   C     C_R   0.055615 0.593510 0.545876 0.054644
C12   C     C_R   0.448051 0.447955 0.974840 0.031770
C13   C     C_R   0.093557 0.407564 0.452474 0.032191
C14   C     C_R   0.945036 0.407739 0.452315 0.018235
C15   C     C_R   0.499958 0.262143 0.500011 0.545829
C16   C     C_R   0.577540 0.501063 0.300618 0.548880
C17   C     C_R   0.807618 0.515465 0.025050 -0.117713
C18   C     C_R   0.621676 0.500118 0.187939 0.002835
C19   C     C_R   0.240468 0.427229 0.863513 -0.125626
C20   C     C_R   0.198267 0.409441 0.969610 -0.135558
C21   C     C_R   0.298590 0.424749 0.025552 -0.108626
C22   C     C_2   0.899482 0.491626 0.799212 0.521118
C23   C     C_R   0.493509 0.446414 0.865501 0.002882
C24   C     C_R   0.554521 0.470240 0.028428 0.009567
C25   C     C_R   0.704098 0.488412 0.971954 0.033670
C26   C     C_R   0.748008 0.471043 0.864508 0.050978
C27   C     C_R   0.644568 0.437532 0.815497 -0.122549
C28   C     C_R   0.516338 0.478118 0.136477 -0.126931
C29   C     C_R   0.767054 0.520039 0.131896 -0.146422
Cu1   Cu    Cu3+1 0.359340 0.499980 0.500000 0.962026
Cu2   Cu    Cu3+1 0.640660 0.500020 0.500000 0.940070
H1    H     H_    0.849810 0.538645 0.170561 0.131594
H2    H     H_    0.405017 0.466922 0.182869 0.121710
H3    H     H_    0.159458 0.418866 0.822656 0.182724
H4    H     H_    0.255724 0.413855 0.107830 0.096120
H5    H     H_    0.086198 0.385930 0.009484 0.114292
H6    H     H_    0.686482 0.402987 0.737858 0.182901
H7    H     H_    0.726503 0.888193 0.501115 0.125351
H8    H     H_    0.073246 0.606727 0.759517 0.339691
H9    H     H_    0.726535 0.111956 0.500945 0.128411
H10   H     H_    0.273135 0.111835 0.499780 0.131385
H11   H     H_    0.273085 0.888075 0.499982 0.124984
H12   H     H_    0.835649 0.667134 0.585038 0.116513
H13   H     H_    0.096104 0.668574 0.582820 0.106278
H14   H     H_    0.164737 0.333537 0.414031 0.100199
H15   H     H_    0.905091 0.333877 0.413710 0.104286
H16   H     H_    0.921416 0.530380 0.985093 0.159100
N1    N     N_R   0.147940 0.499970 0.499970 -0.212696
N2    N     N_R   0.852060 0.500060 0.499990 -0.232057
O1    O     O_R   0.381250 0.680340 0.500010 -0.516382
O2    O     O_R   0.971049 0.601804 0.808749 -0.725416
O3    O     O_R   0.618820 0.680370 0.500010 -0.511947
O4    O     O_R   0.323240 0.499950 0.650980 -0.490459
O5    O     O_R   0.560810 0.499980 0.650980 -0.513837
O6    O     O_R   0.381180 0.319630 0.499990 -0.506996
O7    O     O_R   0.618750 0.319660 0.499990 -0.517921
O8    O     O_R   0.439190 0.500020 0.349020 -0.512282
O9    O     O_R   0.676760 0.500050 0.349020 -0.504619
O10   O     O_2   0.958701 0.415320 0.733670 -0.536543

loop_
_geom_bond_atom_site_label_1
_geom_bond_atom_site_label_2
_ccdc_geom_bond_type
C13   N1    A    
C2    C4    S    
C6    C7    A    
C3    C9    A    
C23   C27   A    
C4    O4    A    
C17   C29   A    
Cu1   O6    S    
C12   C24   A    
H8    O2    S    
C19   C20   A    
Cu2   O3    S    
C6    C15   S    
C25   C26   A    
C17   C25   A    
C15   O7    A    
Cu1   O1    S    
C1    C9    S    
C11   H13   S    
C14   H15   S    
C18   C29   A    
C16   O9    A    
C13   C14   A    
C24   C25   A    
C13   H14   S    
C12   C23   A    
C11   N1    A    
C5    C6    A    
Cu2   N2    S    
C21   H4    S    
Cu2   O9    S    
Cu1   N1    S    
Cu1   O4    S    
C8    H11   S    
C28   H2    S    
C29   H1    S    
C16   O8    A    
C7    H10   S    
Cu2   O5    S    
C26   C27   A    
Cu1   Cu2   S    
Cu2   O7    S    
C1    O3    A    
C14   N2    A    
C10   C11   A    
C22   C26   S    
C20   H5    S    
Cu1   O8    S    
C17   H16   S    
C22   O10   D    
C7    C8    A    
C18   C28   A    
C20   C21   A    
C16   C18   S    
C1    O1    A    
C5    H9    S    
C2    C23   A    
C27   H6    S    
C22   O2    S    
C4    O5    A    
C10   H12   S    
C2    C19   A    
C10   N2    A    
C12   C21   A    
C24   C28   A    
C3    H7    S    
C8    C9    A    
C3    C5    A    
C19   H3    S    
C15   O6    A    
