data_mof_unit_46175.cif
_audit_creation_date              2012-12-10T17:03:38-0500
_audit_creation_method            fapswitch 2.2
_symmetry_space_group_name_H-M    P1
_symmetry_Int_Tables_number       1
_space_group_crystal_system       triclinic
_cell_length_a                    10.068508
_cell_length_b                    10.743102
_cell_length_c                    13.151263
_cell_angle_alpha                 90.089783
_cell_angle_beta                  69.802269
_cell_angle_gamma                 90.184843
_cell_volume                      1335.04943273

loop_
_atom_site_label
_atom_site_type_symbol
_atom_type_description
_atom_site_fract_x
_atom_site_fract_y
_atom_site_fract_z
_atom_type_partial_charge
C1    C     C_R   0.501270 0.737168 0.497905 0.927177
C2    C     C_R   0.370777 0.495695 0.821915 -0.090558
C3    C     C_2   0.611530 0.067240 0.501412 -0.148675
C4    C     C_R   0.421070 0.502625 0.704056 0.874140
C5    C     C_2   0.493438 0.131303 0.514082 -0.327716
C6    C     C_2   0.608610 0.933280 0.507462 -0.163782
C7    C     C_2   0.505709 0.868796 0.489017 -0.319434
C8    C     C_2   0.075855 0.399778 0.497361 -0.154711
C9    C     C_2   0.919757 0.402879 0.516840 -0.016300
C10   C     C_R   0.498645 0.262822 0.502835 0.936328
C11   C     C_R   0.578925 0.499428 0.295786 0.880985
C12   C     C_R   0.457432 0.468337 0.971098 -0.005585
C13   C     C_R   0.791796 0.579812 0.007801 0.016821
C14   C     C_R   0.627964 0.504395 0.178030 -0.082662
C15   C     C_R   0.256526 0.416456 0.871655 -0.199247
C16   C     C_R   0.248008 0.355046 0.966058 -0.185633
C17   C     C_R   0.353737 0.371572 0.010915 0.021368
C18   C     C_3   0.929015 0.595774 0.424155 -0.601949
C19   C     C_1   0.793287 0.725694 0.814354 0.181178
C20   C     C_1   0.933083 0.624479 0.949123 0.159445
C21   C     C_1   0.362672 0.275728 0.085500 0.131404
C22   C     C_3   0.536745 0.737100 0.769283 -0.842577
C23   C     C_R   0.461351 0.534506 0.877542 0.052311
C24   C     C_R   0.558947 0.500042 0.019194 0.045790
C25   C     C_R   0.682511 0.569953 0.961738 0.015665
C26   C     C_R   0.681990 0.637900 0.869508 -0.047047
C27   C     C_R   0.561893 0.632164 0.837730 0.144428
C28   C     C_R   0.530278 0.477328 0.128434 -0.208986
C29   C     C_R   0.762805 0.546469 0.116175 -0.235196
H1    H     H_    0.841666 0.561806 0.154006 0.157779
H2    H     H_    0.167047 0.284364 0.997395 0.153627
H3    H     H_    0.712806 0.113108 0.486758 0.168041
H4    H     H_    0.866206 0.624846 0.373961 0.236300
H5    H     H_    0.031928 0.563969 0.365523 0.190380
H6    H     H_    0.941253 0.679302 0.469931 0.176985
H7    H     H_    0.542095 0.827770 0.808383 0.234807
H8    H     H_    0.619697 0.736124 0.687840 0.257971
H9    H     H_    0.430648 0.733121 0.761467 0.222103
H10   H     H_    0.389756 0.088473 0.535670 0.150618
H11   H     H_    0.694091 0.887691 0.525507 0.170470
H12   H     H_    0.424144 0.911385 0.464440 0.154201
H13   H     H_    0.127827 0.310022 0.486175 0.165491
H14   H     H_    0.092159 0.577914 0.530124 0.196308
H15   H     H_    0.859931 0.318608 0.547697 0.124251
H16   H     H_    0.424731 0.450082 0.178522 0.171737
H17   H     H_    0.184520 0.389182 0.830457 0.167049
N1    N     N_2   0.148270 0.498670 0.498870 -0.193662
N2    N     N_2   0.852610 0.498640 0.498840 -0.052362
N3    N     N_1   0.881264 0.796113 0.769626 -0.207929
N4    N     N_1   0.046567 0.660025 0.902760 -0.188959
N5    N     N_1   0.369604 0.198756 0.144950 -0.203478
O1    O     O_R   0.386950 0.680940 0.500020 -0.611357
O2    O     O_R   0.613110 0.680900 0.499980 -0.625415
O3    O     O_R   0.330780 0.500000 0.653640 -0.607192
O4    O     O_R   0.556930 0.499960 0.653610 -0.592373
O5    O     O_R   0.386890 0.319100 0.500020 -0.619223
O6    O     O_R   0.613050 0.319060 0.499980 -0.616721
O7    O     O_R   0.443070 0.500040 0.346390 -0.605559
O8    O     O_R   0.669220 0.500000 0.346360 -0.619531
Zn1   Zn    Zn3+2 0.349000 0.500030 0.500020 0.948717
Zn2   Zn    Zn3+2 0.651000 0.499970 0.499980 0.939945

loop_
_geom_bond_atom_site_label_1
_geom_bond_atom_site_label_2
_ccdc_geom_bond_type
C12   C17   A    
C2    C4    S    
O6    Zn2   S    
C6    C7    D    
C23   C27   A    
C11   O7    A    
C10   O5    A    
C18   H6    S    
C19   N3    T    
C13   C20   S    
C3    C6    S    
C4    O3    A    
C5    H10   S    
N2    Zn2   S    
C8    N1    D    
C5    C10   S    
O3    Zn1   S    
C16   H2    S    
C1    O2    A    
C2    C15   A    
C18   H5    S    
C12   C23   A    
C13   C25   A    
C26   C27   A    
C29   H1    S    
O2    Zn2   S    
C11   O8    A    
O4    Zn2   S    
C13   C29   A    
C11   C14   S    
C8    H13   S    
C22   C27   S    
C7    H12   S    
C4    O4    A    
C3    H3    S    
C1    O1    A    
C6    H11   S    
C28   H16   S    
O8    Zn2   S    
C18   H4    S    
C14   C29   A    
O7    Zn1   S    
C15   C16   A    
C22   H9    S    
C24   C28   A    
C21   N5    T    
C10   O6    A    
C22   H7    S    
C24   C25   A    
C9    N2    D    
C2    C23   A    
C19   C26   S    
C12   C24   A    
C16   C17   A    
C9    H15   S    
C20   N4    T    
O1    Zn1   S    
C15   H17   S    
C14   C28   A    
C25   C26   A    
C1    C7    S    
C22   H8    S    
H14   N1    S    
C17   C21   S    
O5    Zn1   S    
N1    Zn1   S    
C8    C9    S    
C3    C5    D    
C18   N2    S    
