data_mof_unit_29424.cif
_audit_creation_date              2012-12-10T20:27:16-0500
_audit_creation_method            fapswitch 2.2
_symmetry_space_group_name_H-M    P1
_symmetry_Int_Tables_number       1
_space_group_crystal_system       triclinic
_cell_length_a                    10.569188
_cell_length_b                    10.680326
_cell_length_c                    9.898834
_cell_angle_alpha                 91.0268
_cell_angle_beta                  103.102638
_cell_angle_gamma                 90.570076
_cell_volume                      1088.02545169

loop_
_atom_site_label
_atom_site_type_symbol
_atom_type_description
_atom_site_fract_x
_atom_site_fract_y
_atom_site_fract_z
_atom_type_partial_charge
C1    C     C_R   0.500887 0.260565 0.498979 0.911323
C2    C     C_R   0.584651 0.574104 0.095560 0.518542
C3    C     C_R   0.587957 0.570997 0.952244 0.310026
C4    C     C_R   0.257810 0.505997 0.443129 0.840880
C5    C     C_R   0.423190 0.417515 0.908746 0.144432
C6    C     C_3   0.279111 0.405326 0.867053 0.278596
C7    C     C_3   0.278758 0.406036 0.020959 -0.549710
C8    C     C_R   0.496839 0.739675 0.500239 0.919723
C9    C     C_R   0.742140 0.505826 0.557121 0.951076
C10   C     C_2   0.117943 0.527445 0.413796 0.148813
C11   C     C_2   0.069441 0.598000 0.504381 0.421175
C12   C     C_R   0.504931 0.129036 0.495008 -0.122822
C13   C     C_2   0.880370 0.532054 0.587132 -0.415287
C14   C     C_2   0.929313 0.590158 0.491338 -0.225860
C15   C     C_R   0.585650 0.066279 0.601599 -0.054473
C16   C     C_3   0.654369 0.776061 0.166710 0.184026
C17   C     C_3   0.783415 0.839774 0.164783 -0.826409
C18   C     C_3   0.111645 0.289831 0.729770 0.131690
C19   C     C_3   0.066782 0.158722 0.676838 -0.825296
C20   C     C_3   0.090390 0.753947 0.678460 0.037738
C21   C     C_3   0.192099 0.837193 0.771839 -0.740806
C22   C     C_3   0.229753 0.915040 0.211661 0.084089
C23   C     C_R   0.432069 0.063632 0.379270 -0.333984
C24   C     C_3   0.137806 0.811991 0.138274 -0.793320
C25   C     C_R   0.422919 0.933094 0.381654 0.447062
C26   C     C_R   0.494267 0.871982 0.499544 -0.114243
C27   C     C_R   0.578928 0.938843 0.605159 -0.127978
C28   C     C_3   0.599391 0.939348 0.760594 0.179526
C29   C     C_3   0.608981 0.081568 0.755933 0.321381
C30   C     C_R   0.423287 0.417360 0.050713 0.054513
H1    H     H_    0.867953 0.616857 0.393088 0.245172
H2    H     H_    0.619100 0.818569 0.253873 0.171015
H3    H     H_    0.581868 0.798776 0.070087 0.137358
H4    H     H_    0.823187 0.800884 0.078728 0.290619
H5    H     H_    0.769015 0.941874 0.149711 0.224915
H6    H     H_    0.854431 0.825301 0.264516 0.233338
H7    H     H_    0.658578 0.653704 0.814267 0.371205
H8    H     H_    0.101294 0.351513 0.638770 0.150556
H9    H     H_    0.047915 0.322821 0.798379 0.149389
H10   H     H_    0.067342 0.097189 0.765978 0.246480
H11   H     H_    0.966250 0.161657 0.612044 0.211696
H12   H     H_    0.233654 0.488714 0.810156 0.116756
H13   H     H_    0.131969 0.120021 0.613281 0.257862
H14   H     H_    0.032157 0.708920 0.744996 0.163209
H15   H     H_    0.027347 0.814179 0.600806 0.145571
H16   H     H_    0.264710 0.778860 0.841123 0.258613
H17   H     H_    0.241172 0.896133 0.707309 0.292423
H18   H     H_    0.145316 0.898700 0.837099 0.196315
H19   H     H_    0.087845 0.419765 0.249067 0.336548
H20   H     H_    0.241918 0.984712 0.133247 0.159563
H21   H     H_    0.184422 0.960148 0.291282 0.136228
H22   H     H_    0.113887 0.746995 0.215531 0.263525
H23   H     H_    0.232780 0.490684 0.054720 0.186632
H24   H     H_    0.046995 0.854008 0.078792 0.204766
H25   H     H_    0.183583 0.758258 0.065401 0.253424
H26   H     H_    0.498158 0.813544 0.828239 0.352054
H27   H     H_    0.246058 0.315928 0.057247 0.221731
H28   H     H_    0.941331 0.505734 0.685816 0.145709
H29   H     H_    0.378419 0.114510 0.291420 0.156988
H30   H     H_    0.690208 0.892963 0.815140 0.115875
H31   H     H_    0.530635 0.132232 0.791631 0.198307
H32   H     H_    0.798629 0.085115 0.776266 0.320986
N1    N     N_R   0.499160 0.499140 0.142600 -0.171007
N2    N     N_R   0.499160 0.499180 0.856960 -0.207129
O1    O     O_R   0.500020 0.316790 0.614700 -0.595027
O2    O     O_3   0.673569 0.646269 0.190502 -0.581629
O3    O     O_3   0.683811 0.640477 0.914221 -0.777318
O4    O     O_3   0.242778 0.287245 0.802352 -0.575715
O5    O     O_3   0.153587 0.662251 0.613900 -0.623621
O6    O     O_3   0.035401 0.471824 0.299140 -0.769053
O7    O     O_3   0.351009 0.861725 0.270761 -0.610765
O8    O     O_3   0.487535 0.902811 0.803875 -0.773848
O9    O     O_R   0.500000 0.316760 0.385350 -0.612742
O10   O     O_R   0.317820 0.500020 0.571850 -0.577995
O11   O     O_R   0.317800 0.499980 0.342510 -0.617359
O12   O     O_R   0.500000 0.683240 0.614650 -0.647007
O13   O     O_R   0.499980 0.683210 0.385300 -0.578336
O14   O     O_R   0.682200 0.500020 0.657490 -0.610231
O15   O     O_R   0.682180 0.499980 0.428150 -0.560570
O16   O     O_3   0.733683 0.130128 0.816788 -0.769687
Zn1   Zn    Zn3+2 0.500010 0.500020 0.653140 0.987201
Zn2   Zn    Zn3+2 0.499990 0.499980 0.346860 1.002589

loop_
_geom_bond_atom_site_label_1
_geom_bond_atom_site_label_2
_ccdc_geom_bond_type
C24   H22   S    
C8    C26   S    
O9    Zn2   S    
C14   H1    S    
C3    N2    A    
C24   H25   S    
C23   H29   S    
C12   C23   A    
C26   C27   A    
H32   O16   S    
C28   C29   S    
C5    C30   A    
C5    C6    S    
C11   C14   S    
C24   H24   S    
C8    O12   A    
C18   C19   S    
C9    O15   A    
C9    C13   S    
C4    O11   A    
C15   C27   A    
C16   C17   S    
H26   O8    S    
C1    O1    A    
C25   O7    S    
C17   H6    S    
C4    O10   A    
C20   H15   S    
C22   H20   S    
C21   H18   S    
C6    O4    S    
C7    C30   S    
C30   N1    A    
C28   O8    S    
C1    C12   S    
C20   H14   S    
C19   H13   S    
C15   C29   S    
C28   H30   S    
C29   H31   S    
N1    Zn2   S    
C19   H10   S    
C13   H28   S    
C25   C26   A    
C5    N2    A    
C18   H9    S    
C16   H3    S    
O1    Zn1   S    
C12   C15   A    
C10   O6    S    
H19   O6    S    
C8    O13   A    
C22   C24   S    
C20   O5    S    
C16   O2    S    
C17   H4    S    
C7    H23   S    
O10   Zn1   S    
C4    C10   S    
C22   O7    S    
C2    N1    A    
C21   H16   S    
C3    O3    S    
C2    O2    S    
O12   Zn1   S    
O15   Zn2   S    
C11   O5    S    
O11   Zn2   S    
C6    C7    S    
C16   H2    S    
C1    O9    A    
C2    C3    A    
C18   H8    S    
O14   Zn1   S    
C29   O16   S    
O13   Zn2   S    
H7    O3    S    
C9    O14   A    
C23   C25   A    
N2    Zn1   S    
C10   C11   D    
C20   C21   S    
C6    H12   S    
C27   C28   S    
C17   H5    S    
C13   C14   D    
C18   O4    S    
C7    H27   S    
C19   H11   S    
C22   H21   S    
C21   H17   S    
