data_mof_unit_32272.cif
_audit_creation_date              2012-12-10T17:49:40-0500
_audit_creation_method            fapswitch 2.2
_symmetry_space_group_name_H-M    P1
_symmetry_Int_Tables_number       1
_space_group_crystal_system       triclinic
_cell_length_a                    10.500985
_cell_length_b                    10.677885
_cell_length_c                    9.938389
_cell_angle_alpha                 90.42043
_cell_angle_beta                  90.286499
_cell_angle_gamma                 91.517631
_cell_volume                      1113.93883513

loop_
_atom_site_label
_atom_site_type_symbol
_atom_type_description
_atom_site_fract_x
_atom_site_fract_y
_atom_site_fract_z
_atom_type_partial_charge
Br1   Br    Br    0.307345 0.782729 0.782868 -0.466041
Br2   Br    Br    0.561046 0.126725 0.203462 -0.513887
C1    C     C_R   0.515020 0.261014 0.499364 0.896367
C2    C     C_R   0.539138 0.063042 0.620866 0.025520
C3    C     C_R   0.533695 0.127274 0.498031 -0.158154
C4    C     C_R   0.257549 0.499290 0.499498 0.915068
C5    C     C_R   0.520502 0.059899 0.376840 0.276588
C6    C     C_R   0.491468 0.934273 0.380873 -0.208465
C7    C     C_R   0.475857 0.873835 0.504151 -0.140009
C8    C     C_R   0.331379 0.338080 0.137745 -0.108501
C9    C     C_R   0.249340 0.257061 0.066775 -0.173330
C10   C     C_R   0.250397 0.255801 0.927527 -0.125600
C11   C     C_R   0.332980 0.336053 0.858357 -0.102397
C12   C     C_3   0.959669 0.601153 0.435266 -0.135716
C13   C     C_R   0.417489 0.419548 0.926781 0.150520
C14   C     C_R   0.417054 0.420110 0.071196 0.182769
C15   C     C_R   0.578850 0.577011 0.072426 -0.042517
C16   C     C_R   0.487590 0.739525 0.501139 0.915478
C17   C     C_R   0.578702 0.577095 0.929491 -0.046797
C18   C     C_R   0.742412 0.499818 0.500428 0.888622
C19   C     C_3   0.039136 0.398498 0.562964 0.653608
C20   C     C_3   0.954093 0.394551 0.436821 -0.245736
C21   C     C_3   0.877393 0.498851 0.501285 -0.069043
C22   C     C_3   0.960190 0.500946 0.628722 -0.204457
C23   C     C_3   0.039335 0.497045 0.370983 -0.208275
C24   C     C_3   0.045219 0.603195 0.562290 -0.217076
C25   C     C_3   0.122498 0.499298 0.498154 -0.083510
C26   C     C_R   0.599489 0.114406 0.736360 -0.239830
C27   C     C_R   0.589464 0.053379 0.858918 -0.259176
C28   C     C_R   0.508638 0.948491 0.870856 0.658187
C29   C     C_R   0.451452 0.895055 0.755806 0.193508
C30   C     C_R   0.485007 0.942284 0.626890 -0.051338
F1    F     F_    0.485020 0.899460 0.994029 -0.639522
F2    F     F_    0.084852 0.294623 0.627766 -0.697498
H1    H     H_    0.912607 0.309260 0.387173 0.168322
H2    H     H_    0.085821 0.688604 0.612120 0.204312
H3    H     H_    0.922164 0.684179 0.383118 0.157257
H4    H     H_    0.075443 0.495696 0.266163 0.179132
H5    H     H_    0.658126 0.199195 0.731302 0.196152
H6    H     H_    0.640340 0.091488 0.944875 0.223728
H7    H     H_    0.487728 0.883025 0.286354 0.241521
H8    H     H_    0.643324 0.640103 0.126724 0.152391
H9    H     H_    0.326545 0.332075 0.244430 0.210037
H10   H     H_    0.185084 0.194343 0.120369 0.170732
H11   H     H_    0.186794 0.192212 0.872577 0.205371
H12   H     H_    0.327749 0.329764 0.751628 0.232136
H13   H     H_    0.642933 0.640355 0.876763 0.143930
H14   H     H_    0.924654 0.501297 0.733760 0.167099
N1    N     N_R   0.498800 0.498800 0.142780 -0.123805
N2    N     N_R   0.498760 0.498720 0.857170 -0.121000
O1    O     O_R   0.500000 0.316780 0.614690 -0.651605
O2    O     O_R   0.499990 0.316750 0.385360 -0.598986
O3    O     O_R   0.313960 0.499980 0.614650 -0.600765
O4    O     O_R   0.313940 0.499960 0.385310 -0.655021
O5    O     O_R   0.500010 0.683250 0.614640 -0.592303
O6    O     O_R   0.500000 0.683220 0.385310 -0.621900
O7    O     O_R   0.686060 0.500040 0.614690 -0.638209
O8    O     O_R   0.686040 0.500020 0.385350 -0.611888
Zn1   Zn    Zn3+2 0.500010 0.500020 0.653130 0.969613
Zn2   Zn    Zn3+2 0.499990 0.499980 0.346870 0.974388

loop_
_geom_bond_atom_site_label_1
_geom_bond_atom_site_label_2
_ccdc_geom_bond_type
C12   C21   S    
C6    C7    A    
C21   C22   S    
C27   C28   A    
C14   N1    A    
O5    Zn1   S    
C23   H4    S    
C23   C25   S    
C4    C25   S    
C26   H5    S    
C18   C21   S    
C16   O6    A    
C9    C10   A    
O3    Zn1   S    
C13   N2    A    
C9    H10   S    
C28   F1    S    
O4    Zn2   S    
C19   C20   S    
C10   C11   A    
C12   H3    S    
C20   H1    S    
C17   N2    A    
C24   C25   S    
C2    C30   A    
N1    Zn2   S    
C16   O5    A    
C4    O4    A    
N2    Zn1   S    
C27   H6    S    
C24   H2    S    
C26   C27   A    
C2    C26   A    
C22   C24   S    
C18   O7    A    
C11   C13   A    
C12   C23   S    
C19   C25   S    
C28   C29   A    
C1    O2    A    
C17   H13   S    
O7    Zn1   S    
O1    Zn1   S    
C8    C9    A    
C4    O3    A    
O8    Zn2   S    
C13   C14   A    
C22   H14   S    
O6    Zn2   S    
C7    C16   S    
Br1   C29   S    
C6    H7    S    
Br2   C5    S    
C5    C6    A    
C19   C22   S    
C15   N1    A    
C3    C5    A    
C1    O1    A    
C11   H12   S    
C10   H11   S    
C8    C14   A    
C19   F2    S    
O2    Zn2   S    
C7    C30   A    
C15   C17   A    
C8    H9    S    
C15   H8    S    
C18   O8    A    
C20   C21   S    
C12   C24   S    
C29   C30   A    
C2    C3    A    
C1    C3    S    
C20   C23   S    
