data_mof_unit_38338.cif
_audit_creation_date              2012-10-26T21:09:10-0400
_audit_creation_method            fapswitch 2.2
_symmetry_space_group_name_H-M    P1
_symmetry_Int_Tables_number       1
_space_group_crystal_system       triclinic
_cell_length_a                    15.452947
_cell_length_b                    15.442083
_cell_length_c                    9.769518
_cell_angle_alpha                 89.874139
_cell_angle_beta                  90.384079
_cell_angle_gamma                 89.892273
_cell_volume                      2331.1957866

loop_
_atom_site_label
_atom_site_type_symbol
_atom_type_description
_atom_site_fract_x
_atom_site_fract_y
_atom_site_fract_z
_atom_type_partial_charge
C1    C     C_R   0.382296 0.883286 0.499470 0.547758
C2    C     C_2   0.725484 0.206082 0.390042 -0.168380
C3    C     C_2   0.232003 0.299171 0.394578 -0.161400
C4    C     C_2   0.225772 0.705842 0.390153 -0.168408
C5    C     C_2   0.692673 0.827662 0.506618 -0.116638
C6    C     C_2   0.695300 0.168704 0.503290 -0.121645
C7    C     C_2   0.192673 0.327664 0.506619 -0.116509
C8    C     C_2   0.195309 0.668702 0.503398 -0.121791
C9    C     C_2   0.309775 0.245155 0.409451 -0.051266
C10   C     C_2   0.301255 0.763079 0.396802 -0.064579
C11   C     C_2   0.809779 0.745157 0.409432 -0.051312
C12   C     C_R   0.381976 0.116124 0.498970 0.548232
C13   C     C_2   0.800935 0.263361 0.396458 -0.064639
C14   C     C_2   0.309044 0.174596 0.493354 -0.008160
C15   C     C_2   0.309999 0.823526 0.497533 -0.024492
C16   C     C_2   0.809039 0.674596 0.493336 -0.008114
C17   C     C_2   0.809972 0.323538 0.497542 -0.024507
C18   C     C_2   0.451072 0.048521 0.924975 0.061107
C19   C     C_2   0.951032 0.548484 0.924976 0.061034
C20   C     C_2   0.436082 0.023614 0.072222 0.059524
C21   C     C_2   0.936065 0.523570 0.072226 0.059617
C22   C     C_R   0.389755 0.277772 0.341624 0.053887
C23   C     C_R   0.882292 0.383282 0.499464 0.547745
C24   C     C_R   0.387177 0.306091 0.204653 -0.075590
C25   C     C_R   0.459607 0.345289 0.146063 -0.102799
C26   C     C_R   0.535553 0.355551 0.222295 -0.105257
C27   C     C_R   0.538864 0.327734 0.358101 -0.105568
C28   C     C_R   0.466547 0.289234 0.417673 -0.072165
C29   C     C_R   0.366768 0.751436 0.287631 0.063914
C30   C     C_R   0.450777 0.722757 0.320589 -0.058127
C31   C     C_R   0.513656 0.716692 0.218750 -0.090286
C32   C     C_R   0.493083 0.738923 0.083588 -0.104505
C33   C     C_R   0.409436 0.766706 0.049853 -0.109953
C34   C     C_R   0.881968 0.616116 0.498967 0.548249
C35   C     C_R   0.346284 0.772687 0.151320 -0.067547
C36   C     C_R   0.889751 0.777727 0.341522 0.053914
C37   C     C_R   0.887135 0.806034 0.204545 -0.075622
C38   C     C_R   0.959573 0.845158 0.145861 -0.102858
C39   C     C_R   0.035570 0.855338 0.221989 -0.105207
C40   C     C_R   0.038921 0.827526 0.357792 -0.105375
C41   C     C_R   0.966589 0.789123 0.417475 -0.072013
C42   C     C_R   0.865986 0.252168 0.286477 0.064032
C43   C     C_R   0.950098 0.223262 0.318219 -0.057890
C44   C     C_R   0.012577 0.217744 0.215686 -0.090218
C45   C     C_R   0.619961 0.113882 0.500401 0.548798
C46   C     C_R   0.991492 0.240733 0.081028 -0.104723
C47   C     C_R   0.907733 0.268728 0.048489 -0.110020
C48   C     C_R   0.844984 0.274176 0.150653 -0.067425
C49   C     C_1   0.231119 0.143409 0.559195 0.186364
C50   C     C_1   0.243390 0.840872 0.598109 0.175656
C51   C     C_1   0.731097 0.643400 0.559118 0.186115
C52   C     C_1   0.743629 0.340609 0.598681 0.175664
C53   C     C_R   0.425120 0.136698 0.881674 0.086679
C54   C     C_R   0.337733 0.162203 0.881925 -0.084582
C55   C     C_R   0.314351 0.246149 0.842656 -0.125747
C56   C     C_R   0.619075 0.884948 0.500862 0.550325
C57   C     C_R   0.377641 0.304838 0.800987 -0.134562
C58   C     C_R   0.464718 0.280234 0.801534 -0.148331
C59   C     C_R   0.488580 0.196772 0.842769 -0.048411
C60   C     C_R   0.924983 0.636634 0.881664 0.086731
C61   C     C_R   0.837569 0.662049 0.881943 -0.084566
C62   C     C_R   0.814094 0.745965 0.842653 -0.125708
C63   C     C_R   0.877313 0.804708 0.800909 -0.134477
C64   C     C_R   0.964413 0.780189 0.801399 -0.148337
C65   C     C_R   0.988372 0.696765 0.842686 -0.048401
C66   C     C_1   0.349294 0.026406 0.125380 0.240426
C67   C     C_R   0.119965 0.613880 0.500412 0.548780
C68   C     C_1   0.849280 0.526312 0.125406 0.240372
C69   C     C_1   0.583477 0.006411 0.105877 0.353047
C70   C     C_1   0.083472 0.506431 0.105861 0.353007
C71   C     C_R   0.119073 0.384946 0.500862 0.550385
C72   C     C_2   0.732019 0.799195 0.394575 -0.161707
Cu1   Cu    Cu3+1 0.500020 1.000000 0.638630 0.955817
Cu2   Cu    Cu3+1 0.000020 0.500000 0.638630 0.955674
Cu3   Cu    Cu3+1 0.499980 0.000000 0.361370 0.997655
Cu4   Cu    Cu3+1 0.999980 0.500000 0.361370 0.997608
H1    H     H_    0.711237 0.820440 0.293520 0.147495
H2    H     H_    0.014103 0.440002 0.886749 0.210503
H3    H     H_    0.328940 0.298978 0.143591 0.112665
H4    H     H_    0.456503 0.369329 0.042329 0.129595
H5    H     H_    0.591420 0.386123 0.176752 0.130799
H6    H     H_    0.596986 0.337495 0.418045 0.139532
H7    H     H_    0.469990 0.270241 0.523951 0.114777
H8    H     H_    0.467732 0.706395 0.425269 0.109761
H9    H     H_    0.578468 0.695296 0.244793 0.124181
H10   H     H_    0.541975 0.734729 0.005037 0.113730
H11   H     H_    0.393697 0.784202 0.945234 0.121146
H12   H     H_    0.696733 0.192420 0.290585 0.161278
H13   H     H_    0.282106 0.795648 0.124352 0.112065
H14   H     H_    0.828867 0.798964 0.143545 0.112664
H15   H     H_    0.956440 0.869200 0.042131 0.129626
H16   H     H_    0.091449 0.885843 0.176368 0.130924
H17   H     H_    0.097087 0.837216 0.417644 0.139663
H18   H     H_    0.970067 0.770144 0.523758 0.114728
H19   H     H_    0.967454 0.206333 0.422512 0.109770
H20   H     H_    0.077482 0.196198 0.240804 0.123717
H21   H     H_    0.040078 0.236973 0.001948 0.113625
H22   H     H_    0.891605 0.286822 0.944268 0.121742
H23   H     H_    0.211205 0.320384 0.293513 0.147424
H24   H     H_    0.780723 0.297336 0.124630 0.112189
H25   H     H_    0.287429 0.116945 0.909541 0.128641
H26   H     H_    0.246984 0.265385 0.843515 0.119094
H27   H     H_    0.359320 0.369572 0.769382 0.126119
H28   H     H_    0.513783 0.326121 0.770920 0.141624
H29   H     H_    0.556415 0.179093 0.844864 0.140734
H30   H     H_    0.787315 0.616742 0.909588 0.128572
H31   H     H_    0.746708 0.765130 0.843536 0.119089
H32   H     H_    0.858917 0.869417 0.769280 0.126147
H33   H     H_    0.013424 0.826118 0.770717 0.141559
H34   H     H_    0.197263 0.691986 0.290594 0.161245
H35   H     H_    0.056227 0.679156 0.844749 0.140630
H36   H     H_    0.718005 0.811357 0.607309 0.112914
H37   H     H_    0.727975 0.176764 0.601188 0.123198
H38   H     H_    0.218024 0.311383 0.607310 0.112825
H39   H     H_    0.227784 0.676951 0.601423 0.123162
H40   H     H_    0.514058 0.939991 0.886752 0.210593
N1    N     N_2   0.498660 0.000000 0.846910 -0.356328
N2    N     N_1   0.779579 0.528230 0.167983 -0.324590
N3    N     N_1   0.653955 0.011718 0.067360 -0.342835
N4    N     N_1   0.153944 0.511753 0.067328 -0.343011
N5    N     N_2   0.998660 0.500000 0.846910 -0.356376
N6    N     N_2   0.498630 1.000000 0.153040 -0.282486
N7    N     N_2   0.998630 0.500000 0.153040 -0.282368
N8    N     N_1   0.169070 0.118334 0.611706 -0.307207
N9    N     N_1   0.190556 0.855083 0.678473 -0.327409
N10   N     N_1   0.669032 0.618318 0.611575 -0.307696
N11   N     N_1   0.691010 0.354601 0.679492 -0.327722
N12   N     N_1   0.279588 0.028367 0.167937 -0.324225
O1    O     O_R   0.410990 0.910970 0.617040 -0.496985
O2    O     O_R   0.589050 0.910970 0.617100 -0.505466
O3    O     O_R   0.089050 0.589030 0.617100 -0.500822
O4    O     O_R   0.089050 0.410970 0.617100 -0.505449
O5    O     O_R   0.589010 0.089030 0.382960 -0.496459
O6    O     O_R   0.589010 0.910970 0.382960 -0.497900
O7    O     O_R   0.089010 0.589030 0.382960 -0.496412
O8    O     O_R   0.089010 0.410970 0.382960 -0.498005
O9    O     O_R   0.410990 0.089030 0.617040 -0.488527
O10   O     O_R   0.910990 0.410970 0.617040 -0.497021
O11   O     O_R   0.910990 0.589030 0.617040 -0.488504
O12   O     O_R   0.410950 0.910970 0.382900 -0.483887
O13   O     O_R   0.410950 0.089030 0.382900 -0.487846
O14   O     O_R   0.910950 0.410970 0.382900 -0.483881
O15   O     O_R   0.910950 0.589030 0.382900 -0.487841
O16   O     O_R   0.589050 0.089030 0.617100 -0.500781

loop_
_geom_bond_atom_site_label_1
_geom_bond_atom_site_label_2
_ccdc_geom_bond_type
C31   H9    S    
C6    C45   S    
Cu2   O4    S    
C25   H4    S    
C23   O10   A    
C16   C51   S    
C40   H17   S    
C4    C8    D    
C53   C59   A    
Cu3   O6    S    
C53   C54   A    
H40   N1    S    
Cu2   O10   S    
C55   H26   S    
C26   C27   A    
C37   C38   A    
C47   H22   S    
Cu2   Cu4   S    
C37   H14   S    
C3    C9    S    
C7    H38   S    
C20   C66   S    
C11   C36   S    
C19   C21   S    
Cu1   O2    S    
C5    C72   D    
C1    O1    A    
C10   C15   D    
C7    C71   S    
C30   C31   A    
C9    C22   S    
C14   C49   S    
Cu3   N6    S    
C34   O11   A    
C12   O13   A    
C15   C50   S    
H2    N5    S    
C2    C13   S    
C65   H35   S    
Cu3   O13   S    
C18   C53   S    
C16   C34   S    
C71   O4    A    
C46   C47   A    
C70   N7    S    
C52   N11   T    
C31   C32   A    
C70   N4    T    
C33   H11   S    
C45   O16   A    
C43   H19   S    
C23   O14   A    
C2    H12   S    
C1    C15   S    
C29   C30   A    
C20   N6    D    
C8    H39   S    
C68   N2    T    
C22   C28   A    
Cu2   O3    S    
C28   H7    S    
Cu1   Cu3   S    
C36   C41   A    
C2    C6    D    
C48   H24   S    
C17   C52   S    
C13   C42   S    
Cu4   O7    S    
C44   C46   A    
Cu4   O8    S    
C57   H27   S    
Cu1   O1    S    
C34   O15   A    
Cu1   N1    S    
C47   C48   A    
C24   C25   A    
C71   O8    A    
C11   C72   S    
C42   C48   A    
C62   H31   S    
C58   C59   A    
C49   N8    T    
C38   H15   S    
C69   N3    T    
C60   C61   A    
C21   N7    D    
C67   O7    A    
C9    C14   D    
C6    H37   S    
C62   C63   A    
C44   H20   S    
C11   C16   D    
C24   H3    S    
C41   H18   S    
C32   H10   S    
C59   H29   S    
C50   N9    T    
C17   C23   S    
C61   H30   S    
C1    O12   A    
C18   N1    D    
C54   H25   S    
C35   H13   S    
C40   C41   A    
C46   H21   S    
C12   C14   S    
C60   C65   A    
C26   H5    S    
C64   H33   S    
C55   C57   A    
C43   C44   A    
C22   C24   A    
C58   H28   S    
C42   C43   A    
C4    C10   S    
C39   H16   S    
C39   C40   A    
C4    H34   S    
C54   C55   A    
C19   N5    D    
Cu4   N7    S    
C45   O5    A    
C5    C56   S    
C27   H6    S    
C67   O3    A    
C51   N10   T    
C72   H1    S    
C56   O6    A    
Cu3   O5    S    
C5    H36   S    
C19   C60   S    
Cu2   O11   S    
C29   C35   A    
C3    C7    D    
C13   C17   D    
Cu3   O12   S    
C64   C65   A    
C25   C26   A    
C21   C68   S    
C32   C33   A    
C10   C29   S    
C57   C58   A    
C38   C39   A    
Cu1   O9    S    
C69   N6    S    
C33   C35   A    
C66   N12   T    
C18   C20   S    
C30   H8    S    
C61   C62   A    
C63   C64   A    
Cu4   O15   S    
C3    H23   S    
Cu2   N5    S    
C8    C67   S    
C36   C37   A    
C27   C28   A    
C12   O9    A    
C63   H32   S    
C56   O2    A    
Cu1   O16   S    
Cu4   O14   S    
