data_mof_unit_32166.cif
_audit_creation_date              2012-12-11T14:08:19-0500
_audit_creation_method            fapswitch 2.2
_symmetry_space_group_name_H-M    P1
_symmetry_Int_Tables_number       1
_space_group_crystal_system       triclinic
_cell_length_a                    10.958863
_cell_length_b                    10.970103
_cell_length_c                    18.692867
_cell_angle_alpha                 90.321872
_cell_angle_beta                  89.928083
_cell_angle_gamma                 59.418568
_cell_volume                      1934.62378026

loop_
_atom_site_label
_atom_site_type_symbol
_atom_type_description
_atom_site_fract_x
_atom_site_fract_y
_atom_site_fract_z
_atom_type_partial_charge
C1    C     C_R   0.235298 0.646688 0.608404 0.552297
C2    C     C_3   0.732500 0.497387 0.806695 -0.230008
C3    C     C_3   0.684806 0.656359 0.818354 0.054109
C4    C     C_3   0.644645 0.610020 0.685537 0.049346
C5    C     C_3   0.750812 0.664197 0.689611 -0.220055
C6    C     C_3   0.709237 0.470273 0.728105 -0.242170
C7    C     C_2   0.666967 0.152081 0.670955 -0.001234
C8    C     C_2   0.691862 0.175382 0.831487 -0.126793
C9    C     C_2   0.799965 0.110525 0.784246 -0.173742
C10   C     C_2   0.779674 0.139280 0.706886 -0.177738
C11   C     C_2   0.176145 0.666988 0.680245 -0.122270
C12   C     C_R   0.625830 0.584541 0.609540 0.564199
C13   C     C_2   0.190401 0.662452 0.838065 -0.116911
C14   C     C_2   0.179590 0.566790 0.797705 -0.178738
C15   C     C_2   0.207791 0.553907 0.720728 -0.185690
C16   C     C_2   0.689429 0.655033 0.326305 -0.097678
C17   C     C_2   0.748664 0.699229 0.181720 -0.077997
C18   C     C_2   0.846747 0.574700 0.216671 0.047383
C19   C     C_2   0.819797 0.563415 0.293975 0.025251
C20   C     C_2   0.676384 0.132828 0.334274 -0.105804
C21   C     C_2   0.650493 0.149126 0.179450 -0.122776
C22   C     C_2   0.599005 0.085670 0.221175 -0.160625
C23   C     C_R   0.627329 0.226883 0.601997 0.557095
C24   C     C_2   0.598168 0.088900 0.299475 0.016600
C25   C     C_2   0.261698 0.624401 0.316381 0.003743
C26   C     C_2   0.231217 0.627178 0.153508 -0.081465
C27   C     C_2   0.284855 0.696843 0.190436 0.033121
C28   C     C_2   0.317597 0.675015 0.268818 -0.200729
C29   C     C_R   0.702129 0.105710 0.899072 0.547200
C30   C     C_R   0.716701 0.682321 0.891744 0.557472
C31   C     C_R   0.118353 0.706106 0.907092 0.551645
C32   C     C_R   0.674820 0.106266 0.105131 0.548076
C33   C     C_R   0.741951 0.717496 0.103762 0.592432
C34   C     C_R   0.293125 0.618115 0.392647 0.545511
C35   C     C_R   0.122024 0.695441 0.097580 0.589515
C36   C     C_R   0.648033 0.622880 0.394890 0.558380
C37   C     C_R   0.622498 0.220602 0.398097 0.552670
C38   C     C_3   0.525190 0.747318 0.799902 -0.244506
C39   C     C_3   0.500446 0.714182 0.722646 -0.241957
C40   C     C_3   0.769302 0.696960 0.767002 -0.232940
Cr1   Cr    Cr6+3 0.393010 0.398050 0.501480 1.027183
Cr2   Cr    Cr6+3 0.398820 0.707980 0.501630 1.002125
Cr3   Cr    Cr6+3 0.708140 0.393940 0.496850 0.976233
Cr4   Cr    Cr6+3 0.937950 0.938450 0.008940 1.033316
Cr5   Cr    Cr6+3 0.626180 0.937030 0.994750 1.006573
Cr6   Cr    Cr6+3 0.937790 0.625760 0.001410 0.980302
H1    H     H_    0.488701 0.862040 0.804713 0.133604
H2    H     H_    0.812384 0.389659 0.704177 0.132114
H3    H     H_    0.884048 0.637153 0.780475 0.134066
H4    H     H_    0.856518 0.581082 0.669071 0.144971
H5    H     H_    0.903257 0.025624 0.801240 0.152465
H6    H     H_    0.858180 0.154336 0.679264 0.131868
H7    H     H_    0.589026 0.261539 0.815157 0.095048
H8    H     H_    0.143482 0.499657 0.820484 0.151314
H9    H     H_    0.255793 0.448664 0.697303 0.146827
H10   H     H_    0.231733 0.725301 0.815456 0.097103
H11   H     H_    0.461431 0.724500 0.838030 0.119783
H12   H     H_    0.124487 0.772813 0.703428 0.104716
H13   H     H_    0.674993 0.793226 0.210554 0.074805
H14   H     H_    0.602860 0.743074 0.299337 0.112732
H15   H     H_    0.554728 0.026949 0.196552 0.178032
H16   H     H_    0.694838 0.210441 0.200591 0.081237
H17   H     H_    0.763945 0.133696 0.307713 0.079121
H18   H     H_    0.433710 0.664593 0.724396 0.115480
H19   H     H_    0.381673 0.716221 0.290360 0.155214
H20   H     H_    0.252072 0.524788 0.170772 0.091572
H21   H     H_    0.437791 0.813346 0.692305 0.139794
H22   H     H_    0.733425 0.811164 0.772727 0.118740
H23   H     H_    0.719110 0.756595 0.654702 0.126273
H24   H     H_    0.846748 0.428138 0.819656 0.140321
H25   H     H_    0.671346 0.467484 0.842840 0.122267
H26   H     H_    0.636585 0.427459 0.726177 0.115592
O1    O     O_R   0.507110 0.256280 0.580300 -0.513064
O2    O     O_R   0.524640 0.695370 0.425100 -0.507422
O3    O     O_R   0.735890 0.504390 0.415980 -0.530612
O4    O     O_R   0.690560 0.277820 0.422350 -0.526903
O5    O     O_3   0.499990 0.499990 0.499980 -0.292512
O6    O     O_R   0.089190 0.825870 0.932320 -0.510885
O7    O     O_R   0.819070 0.053960 0.931440 -0.494380
O8    O     O_R   0.607070 0.076440 0.916460 -0.518993
O9    O     O_R   0.647110 0.806550 0.917690 -0.499359
O10   O     O_R   0.837080 0.593860 0.915300 -0.526669
O11   O     O_R   0.064770 0.636080 0.932550 -0.508660
O12   O     O_R   0.280830 0.527190 0.577940 -0.498779
O13   O     O_R   0.068250 0.829200 0.092940 -0.466827
O14   O     O_R   0.799650 0.057040 0.080330 -0.490004
O15   O     O_R   0.586130 0.079760 0.077080 -0.532359
O16   O     O_R   0.627700 0.809630 0.066580 -0.484218
O17   O     O_R   0.816140 0.597180 0.075920 -0.551465
O18   O     O_R   0.045360 0.639170 0.081440 -0.549653
O19   O     O_3   0.833980 0.833750 0.001700 -0.272365
O20   O     O_R   0.261360 0.738990 0.584270 -0.526469
O21   O     O_R   0.532590 0.694780 0.574370 -0.505638
O22   O     O_R   0.744470 0.503750 0.577000 -0.524804
O23   O     O_R   0.698520 0.277230 0.571620 -0.520261
O24   O     O_R   0.498530 0.256920 0.419280 -0.480821
O25   O     O_R   0.272880 0.527780 0.428680 -0.469950
O26   O     O_R   0.252780 0.739630 0.423250 -0.500216
C41   C     C_3   0.558390 0.121087 0.706324 -0.236743
C42   C     C_3   0.504344 0.043662 0.658376 -0.267470
C43   C     C_3   0.343333 0.126776 0.648567 -0.425025
H27   H     H_    0.289366 0.147386 0.701355 0.127282
H28   H     H_    0.307593 0.229247 0.621719 0.184733
H29   H     H_    0.311237 0.063706 0.615255 0.139196
H30   H     H_    0.559051 0.012181 0.605641 0.197009
H31   H     H_    0.528557 0.945997 0.685842 0.134878
H32   H     H_    0.603723 0.053281 0.753878 0.141170
H33   H     H_    0.467690 0.223239 0.725533 0.139331
C44   C     C_3   0.962376 0.436567 0.174298 -0.224799
C45   C     C_3   0.117039 0.316314 0.191101 -0.323244
C46   C     C_3   0.177037 0.209584 0.128967 -0.435091
H34   H     H_    0.117732 0.152642 0.123792 0.180250
H35   H     H_    0.170345 0.263597 0.077764 0.129575
H36   H     H_    0.290419 0.131166 0.138963 0.210243
H37   H     H_    0.187232 0.360624 0.194653 0.222181
H38   H     H_    0.133904 0.251332 0.238615 0.223906
H39   H     H_    0.905435 0.386602 0.150229 0.157107
H40   H     H_    0.002072 0.477522 0.133359 0.227238
C47   C     C_3   0.938922 0.434655 0.332170 -0.170762
C48   C     C_3   0.925199 0.300941 0.323301 -0.294530
C49   C     C_3   0.024261 0.183193 0.373787 -0.399556
H41   H     H_    0.135889 0.153501 0.363625 0.195498
H42   H     H_    0.996259 0.218601 0.430282 0.159006
H43   H     H_    0.014160 0.088481 0.365082 0.166177
H44   H     H_    0.815455 0.325968 0.331961 0.203164
H45   H     H_    0.944761 0.259666 0.267914 0.141923
H46   H     H_    0.040565 0.414239 0.313393 0.223294
H47   H     H_    0.951341 0.458401 0.388625 0.179302
C50   C     C_2   0.507472 0.044552 0.337604 0.600667
O27   O     O_2   0.405959 0.050051 0.307292 -0.524111
O28   O     O_R   0.540643 0.992766 0.407431 -0.678846
H48   H     H_    0.469958 0.968415 0.427807 0.335526
C51   C     C_2   0.310510 0.802874 0.154509 0.594563
O29   O     O_2   0.318942 0.892129 0.190121 -0.528680
O30   O     O_R   0.330313 0.797449 0.080331 -0.685973
H49   H     H_    0.345960 0.875562 0.062466 0.334276
C52   C     C_2   0.184922 0.554037 0.295838 0.540045
O31   O     O_2   0.061593 0.623700 0.277253 -0.506214
O32   O     O_R   0.252664 0.407117 0.301741 -0.725003
H50   H     H_    0.358523 0.361475 0.308167 0.316786

loop_
_geom_bond_atom_site_label_1
_geom_bond_atom_site_label_2
_ccdc_geom_bond_type
C7    C10   D    
Cr5   O8    S    
C43   H27   S    
Cr2   O21   S    
C46   H34   S    
C1    C11   S    
C18   C44   S    
C10   H6    S    
Cr3   O22   S    
C44   H39   S    
O30   H49   S    
Cr6   O17   S    
C25   C28   D    
C6    H26   S    
C39   H18   S    
C52   O32   S    
C42   H30   S    
C7    C41   S    
C8    C29   S    
Cr5   O15   S    
C33   O16   A    
Cr2   O26   S    
Cr1   O5    S    
C38   C39   S    
C48   H45   S    
Cr1   O24   S    
C40   H3    S    
C34   O25   A    
C31   O11   A    
C18   C19   S    
C16   H14   S    
C45   C46   S    
C49   H43   S    
C5    H23   S    
Cr6   O10   S    
C11   C15   D    
C24   C50   S    
C20   C24   D    
C3    C38   S    
C8    C9    D    
C9    H5    S    
Cr5   O19   S    
Cr3   O23   S    
C4    C12   S    
C11   H12   S    
C9    C10   S    
C25   C34   S    
C13   H10   S    
C47   H47   S    
C19   C47   S    
C43   H28   S    
C13   C14   D    
C12   O22   A    
C2    C6    S    
C17   C33   S    
C23   O1    A    
Cr4   O14   S    
C44   H40   S    
Cr3   O3    S    
C21   C32   S    
Cr2   O2    S    
C26   H20   S    
Cr1   O25   S    
Cr5   O16   S    
C4    C6    S    
C48   H44   S    
Cr6   O19   S    
Cr1   O12   S    
C37   O24   A    
C1    O12   A    
C27   C51   S    
C30   O10   A    
C3    C30   S    
C25   C52   S    
C41   H33   S    
C36   O3    A    
C33   O17   A    
C38   H11   S    
C41   C42   S    
C29   O7    A    
C4    C39   S    
O32   H50   S    
C32   O14   A    
C38   H1    S    
C17   C18   D    
C26   C27   D    
C46   H35   S    
C49   H41   S    
Cr4   O19   S    
C6    H2    S    
C17   H13   S    
C14   H8    S    
C37   O4    A    
C3    C40   S    
C1    O20   A    
C51   O29   D    
C22   C24   S    
C5    H4    S    
Cr4   O13   S    
C45   H38   S    
C48   C49   S    
C31   O6    A    
C50   O27   D    
Cr3   O4    S    
C36   O2    A    
C39   H21   S    
C13   C31   S    
Cr4   O7    S    
Cr5   O9    S    
C4    C5    S    
C8    H7    S    
C47   C48   S    
Cr6   O18   S    
Cr3   O5    S    
C41   H32   S    
C52   O31   D    
C42   H31   S    
C30   O9    A    
Cr4   O6    S    
C2    C3    S    
C2    H24   S    
C44   C45   S    
C16   C36   S    
C22   H15   S    
C20   C37   S    
C35   O13   A    
C29   O8    A    
C20   H17   S    
C16   C19   D    
C7    C23   S    
C42   C43   S    
C34   O26   A    
C23   O23   A    
C28   H19   S    
C46   H36   S    
Cr2   O20   S    
O28   H48   S    
C12   O21   A    
C49   H42   S    
Cr1   O1    S    
Cr6   O11   S    
C35   O18   A    
C26   C35   S    
C32   O15   A    
Cr2   O5    S    
C40   H22   S    
C5    C40   S    
C27   C28   S    
C51   O30   S    
C14   C15   S    
C43   H29   S    
C21   H16   S    
C21   C22   D    
C45   H37   S    
C2    H25   S    
C15   H9    S    
C50   O28   S    
C47   H46   S    
