data_mof_unit_14280.cif
_audit_creation_date              2012-12-11T14:50:44-0500
_audit_creation_method            fapswitch 2.2
_symmetry_space_group_name_H-M    P1
_symmetry_Int_Tables_number       1
_space_group_crystal_system       triclinic
_cell_length_a                    20.657017
_cell_length_b                    7.306683
_cell_length_c                    20.27088
_cell_angle_alpha                 89.999037
_cell_angle_beta                  101.582411
_cell_angle_gamma                 89.999541
_cell_volume                      2997.26832958

loop_
_atom_site_label
_atom_site_type_symbol
_atom_type_description
_atom_site_fract_x
_atom_site_fract_y
_atom_site_fract_z
_atom_type_partial_charge
O1    O     O_R   0.423690 0.494470 0.435930 -0.541487
O2    O     O_R   0.576310 0.994470 0.564070 -0.541480
O3    O     O_R   0.556070 0.822310 0.435760 -0.530454
O4    O     O_R   0.443930 0.322310 0.564240 -0.530456
C1    C     C_R   0.575292 0.656422 0.421178 0.708322
C2    C     C_R   0.424708 0.156421 0.578821 0.708286
O5    O     O_R   0.422940 0.824080 0.428040 -0.516507
O6    O     O_R   0.577060 0.324080 0.571960 -0.516477
O7    O     O_R   0.442240 0.995960 0.556300 -0.544415
O8    O     O_R   0.557760 0.495960 0.443700 -0.544422
C3    C     C_R   0.399345 0.655128 0.411211 0.741419
C4    C     C_R   0.600656 0.155125 0.588789 0.741385
O9    O     O_3   0.506490 0.661310 0.542090 -0.377737
O10   O     O_3   0.493510 0.161310 0.457910 -0.377755
V1    V     V_3+5 0.498800 0.935560 0.492190 1.440330
V2    V     V_3+5 0.501200 0.435560 0.507810 1.440347
C5    C     C_R   0.837966 0.092635 0.858666 -0.292801
C6    C     C_R   0.162032 0.592625 0.141338 -0.292791
C7    C     C_R   0.661698 0.138917 0.641218 -0.200324
C8    C     C_R   0.338301 0.638941 0.358785 -0.200315
C9    C     C_R   0.770838 0.002295 0.673329 0.510409
C10   C     C_R   0.229124 0.502526 0.326708 0.510411
C11   C     C_R   0.714678 0.043824 0.625041 -0.302564
C12   C     C_R   0.285297 0.544014 0.374985 -0.302625
C13   C     C_R   0.663700 0.191094 0.708408 0.503477
C14   C     C_R   0.336309 0.691001 0.291586 0.503449
C15   C     C_R   0.722408 0.161700 0.758743 -0.204919
C16   C     C_R   0.277593 0.661649 0.241258 -0.204953
C17   C     C_R   0.777332 0.065518 0.741070 -0.122384
C18   C     C_R   0.222650 0.565592 0.258947 -0.122410
C19   C     C_R   0.836148 0.038940 0.791541 0.366323
C20   C     C_R   0.163839 0.538988 0.208469 0.366277
C21   C     C_R   0.783151 0.179557 0.875873 0.331326
C22   C     C_R   0.216855 0.679484 0.124125 0.331295
C23   C     C_R   0.727628 0.223360 0.826313 0.385893
C24   C     C_R   0.272384 0.723246 0.173681 0.385871
H1    H     H_    0.711109 0.994616 0.573928 0.156649
H2    H     H_    0.288852 0.494926 0.426113 0.156622
C25   C     C_3   0.281896 0.135050 0.835188 0.578100
C26   C     C_3   0.718103 0.635072 0.164811 0.578099
C27   C     C_3   0.218788 0.888831 0.759611 0.224009
C28   C     C_3   0.781211 0.388839 0.240387 0.224008
C29   C     C_3   0.280536 0.894459 0.720737 0.792883
C30   C     C_3   0.719462 0.394467 0.279261 0.792885
H3    H     H_    0.230439 0.783491 0.799880 0.210393
H4    H     H_    0.769559 0.283503 0.200117 0.210394
C31   C     C_1   0.379390 0.150620 0.624655 -0.233323
C32   C     C_1   0.620610 0.650623 0.375345 -0.233301
C33   C     C_3   0.210360 0.079632 0.793770 -0.336591
C34   C     C_3   0.789639 0.579643 0.206229 -0.336589
C35   C     C_3   0.325867 0.191469 0.782020 0.646796
C36   C     C_3   0.674133 0.691486 0.217980 0.646784
C37   C     C_3   0.294359 0.107414 0.709324 -0.328449
C38   C     C_3   0.705641 0.607421 0.290675 -0.328447
C39   C     C_3   0.224624 0.201351 0.676373 0.680904
C40   C     C_3   0.775376 0.701350 0.323627 0.680902
C41   C     C_3   0.183654 0.218164 0.734489 0.604919
C42   C     C_3   0.816345 0.718167 0.265511 0.604914
C43   C     C_1   0.341069 0.136527 0.662694 0.128594
C44   C     C_1   0.658931 0.636532 0.337305 0.128600
C45   C     C_1   0.162332 0.075927 0.840327 0.157200
C46   C     C_1   0.837666 0.575934 0.159671 0.157196
C47   C     C_1   0.122803 0.080295 0.877427 -0.103517
C48   C     C_1   0.877196 0.580296 0.122571 -0.103525
O11   O     O_R   0.942280 0.741210 0.056360 -0.531551
O12   O     O_R   0.057720 0.241210 0.943640 -0.531550
O13   O     O_R   0.077070 0.409690 0.071960 -0.531424
O14   O     O_R   0.922930 0.909690 0.928040 -0.531415
C49   C     C_R   0.100489 0.578783 0.088997 0.818599
C50   C     C_R   0.899510 0.078786 0.911003 0.818582
O15   O     O_R   0.943940 0.411580 0.064250 -0.535858
O16   O     O_R   0.056060 0.911580 0.935750 -0.535859
O17   O     O_R   0.923670 0.239840 0.935920 -0.518283
O18   O     O_R   0.076330 0.739840 0.064080 -0.518297
C51   C     C_R   0.924113 0.578795 0.078096 0.730673
C52   C     C_R   0.075887 0.078795 0.921904 0.730645
O19   O     O_3   0.993540 0.572620 0.957940 -0.378359
O20   O     O_3   0.006460 0.072620 0.042060 -0.378370
V3    V     V_3+5 0.001200 0.298330 0.007800 1.567938
V4    V     V_3+5 0.998800 0.798330 0.992200 1.567947
Cl1   Cl    Cl    0.912093 0.962496 0.773171 -0.538004
Cl2   Cl    Cl    0.087893 0.462494 0.226822 -0.538019
O21   O     O_3   0.333833 0.801769 0.765104 -0.506974
C53   C     C_3   0.398724 0.793698 0.750612 0.047312
H5    H     H_    0.434621 0.794149 0.799324 0.169549
H6    H     H_    0.413172 0.905940 0.721078 0.076034
H7    H     H_    0.408255 0.663971 0.726324 0.121941
O22   O     O_3   0.666165 0.301785 0.234894 -0.506971
C54   C     C_3   0.601274 0.293715 0.249387 0.047293
H8    H     H_    0.565377 0.294175 0.200676 0.169540
H9    H     H_    0.586827 0.405951 0.278923 0.076011
H10   H     H_    0.591743 0.163986 0.273674 0.121955
O23   O     O_3   0.258317 0.797416 0.658719 -0.513081
C55   C     C_3   0.306219 0.722768 0.625350 -0.090362
H11   H     H_    0.324599 0.590032 0.647291 0.217714
H12   H     H_    0.347454 0.814006 0.621973 0.069935
H13   H     H_    0.282146 0.693246 0.572528 0.109778
O24   O     O_3   0.741683 0.297416 0.341280 -0.513081
C56   C     C_3   0.693781 0.222769 0.374649 -0.090353
H14   H     H_    0.675400 0.090035 0.352708 0.217714
H15   H     H_    0.652546 0.314008 0.378027 0.069930
H16   H     H_    0.717854 0.193241 0.427470 0.109779
Cl3   Cl    Cl    0.185120 0.439749 0.768690 -0.589094
Cl4   Cl    Cl    0.814881 0.939755 0.231311 -0.589094
Cl5   Cl    Cl    0.096314 0.196643 0.700140 -0.548343
Cl6   Cl    Cl    0.903686 0.696637 0.299859 -0.548307
O25   O     O_3   0.234341 0.378533 0.649838 -0.549909
C57   C     C_3   0.176226 0.457746 0.610250 -0.010333
H17   H     H_    0.161503 0.579121 0.635919 0.249202
H18   H     H_    0.132467 0.367355 0.598316 0.174524
H19   H     H_    0.187228 0.503421 0.561526 0.113477
O26   O     O_3   0.765659 0.878530 0.350162 -0.549905
C58   C     C_3   0.823774 0.957737 0.389749 -0.010344
H20   H     H_    0.838497 0.079114 0.364079 0.249207
H21   H     H_    0.867534 0.867343 0.401683 0.174518
H22   H     H_    0.812773 0.003410 0.438474 0.113429
Cl7   Cl    Cl    0.278755 0.321911 0.895321 -0.652818
Cl8   Cl    Cl    0.721247 0.821943 0.104680 -0.652794
Cl9   Cl    Cl    0.331626 0.430885 0.772472 -0.574993
Cl10  Cl    Cl    0.668375 0.930901 0.227529 -0.574987
O27   O     O_3   0.188683 0.083844 0.624669 -0.519895
C59   C     C_3   0.206526 0.095642 0.560571 -0.044975
H23   H     H_    0.249244 0.185100 0.558118 0.108694
H24   H     H_    0.163566 0.146943 0.523264 0.165286
H25   H     H_    0.217160 0.957169 0.543519 0.153946
O28   O     O_3   0.811317 0.583835 0.375330 -0.519897
C60   C     C_3   0.793475 0.595628 0.439429 -0.044957
H26   H     H_    0.750755 0.685078 0.441881 0.108688
H27   H     H_    0.836434 0.646934 0.476734 0.165260
H28   H     H_    0.782846 0.457153 0.456482 0.153951
O29   O     O_3   0.786330 0.238188 0.941397 -0.545557
C61   C     C_3   0.768708 0.090772 0.979146 -0.152547
H29   H     H_    0.715093 0.059732 0.963561 0.180500
H30   H     H_    0.778823 0.130402 0.033031 0.186895
H31   H     H_    0.798341 0.965398 0.975198 0.127410
O30   O     O_3   0.213679 0.738090 0.058599 -0.545571
C62   C     C_3   0.231298 0.590653 0.020859 -0.152539
H32   H     H_    0.284911 0.559590 0.036449 0.180530
H33   H     H_    0.221190 0.630273 0.966972 0.186933
H34   H     H_    0.201657 0.465297 0.024809 0.127398
Cl11  Cl    Cl    0.826247 0.854393 0.643656 -0.549108
Cl12  Cl    Cl    0.173652 0.354966 0.356445 -0.549082
Cl13  Cl    Cl    0.668437 0.366692 0.852665 -0.603839
Cl14  Cl    Cl    0.331598 0.866474 0.147316 -0.603871
O31   O     O_3   0.607437 0.267919 0.724071 -0.521060
C63   C     C_3   0.566654 0.126042 0.740001 -0.150780
H35   H     H_    0.592348 0.043737 0.783701 0.151140
H36   H     H_    0.549019 0.035041 0.696128 0.087901
H37   H     H_    0.522392 0.188381 0.754114 0.178434
O32   O     O_3   0.392591 0.767677 0.275908 -0.521067
C64   C     C_3   0.433334 0.625683 0.259992 -0.150917
H38   H     H_    0.407617 0.543384 0.216303 0.151173
H39   H     H_    0.450947 0.534696 0.303877 0.087977
H40   H     H_    0.477612 0.687900 0.245870 0.178443
O33   O     O_3   0.391876 0.124602 0.802292 -0.562564
C65   C     C_3   0.430862 0.210995 0.859271 -0.068883
H41   H     H_    0.404650 0.230503 0.901206 0.188180
H42   H     H_    0.450834 0.343068 0.845036 0.172604
H43   H     H_    0.473976 0.121874 0.878537 0.125725
O34   O     O_3   0.608124 0.624623 0.197707 -0.562565
C66   C     C_3   0.569136 0.711036 0.140732 -0.068834
H44   H     H_    0.595350 0.730576 0.098799 0.188162
H45   H     H_    0.549159 0.843096 0.154973 0.172636
H46   H     H_    0.526026 0.621911 0.121458 0.125745
O35   O     O_3   0.313388 0.977330 0.869925 -0.555386
C67   C     C_3   0.302795 0.948482 0.935823 -0.049638
H47   H     H_    0.318048 0.806549 0.950737 0.174680
H48   H     H_    0.250429 0.963238 0.939734 0.139111
H49   H     H_    0.334806 0.040234 0.972119 0.180486
O36   O     O_3   0.686611 0.477358 0.130073 -0.555384
C68   C     C_3   0.697198 0.448530 0.064173 -0.049656
H50   H     H_    0.681946 0.306599 0.049257 0.174653
H51   H     H_    0.749562 0.463295 0.060257 0.139130
H52   H     H_    0.665182 0.540288 0.027882 0.180484
O37   O     O_3   0.159175 0.838313 0.713997 -0.507035
C69   C     C_3   0.107462 0.779208 0.746138 0.085180
H53   H     H_    0.081566 0.662299 0.717401 0.196301
H54   H     H_    0.069167 0.885113 0.744583 0.192135
H55   H     H_    0.123988 0.737188 0.799579 0.107042
O38   O     O_3   0.840823 0.338312 0.286000 -0.507035
C70   C     C_3   0.892537 0.279208 0.253859 0.085194
H56   H     H_    0.918434 0.162299 0.282597 0.196301
H57   H     H_    0.930831 0.385114 0.255412 0.192145
H58   H     H_    0.876010 0.237190 0.200418 0.107038

loop_
_geom_bond_atom_site_label_1
_geom_bond_atom_site_label_2
_ccdc_geom_bond_type
O14   V4    S    
C26   Cl8   S    
C68   H50   S    
C39   O27   S    
O4    V2    S    
O28   C60   S    
C15   C17   A    
C29   O21   S    
C25   C35   S    
O1    C3    A    
C53   H7    S    
O16   C52   A    
O2    C4    A    
C2    O7    A    
C26   O36   S    
C66   H44   S    
C37   C43   S    
C38   C44   S    
C70   H56   S    
O5    C3    A    
O12   V3    S    
C68   H51   S    
C35   O33   S    
O35   C67   S    
C28   C30   S    
C65   H41   S    
C53   H6    S    
C58   H20   S    
O31   C63   S    
O20   V4    S    
O19   V4    S    
C47   C52   S    
C33   C41   S    
C57   H17   S    
C28   H4    S    
C64   H40   S    
C45   C47   T    
C46   C48   T    
C66   H45   S    
C30   O24   S    
C29   C37   S    
C69   H55   S    
C8    C12   A    
C28   O38   S    
C61   H29   S    
C12   H2    S    
C64   H38   S    
C40   O28   S    
C40   C42   S    
C54   H9    S    
C58   H22   S    
C21   O29   S    
C6    C49   S    
C70   H57   S    
C27   O37   S    
C5    C50   S    
O6    V2    S    
O11   V4    S    
O18   V4    S    
C67   H48   S    
C27   C29   S    
C5    C21   A    
C27   C33   S    
O26   C58   S    
C1    C32   S    
C5    C19   A    
C36   C38   S    
C32   C44   T    
C63   H36   S    
C37   C39   S    
C41   Cl3   S    
C68   H52   S    
C38   C40   S    
C3    C8    S    
O15   C51   A    
C33   C45   S    
C41   Cl5   S    
C34   C42   S    
C14   O32   S    
O13   V3    S    
C53   H5    S    
O4    C2    A    
C2    C31   S    
O20   V3    S    
C55   H13   S    
C15   C23   A    
C26   C36   S    
C9    C17   A    
O15   V3    S    
C39   O25   S    
C42   Cl6   S    
C25   O35   S    
C7    C11   A    
C60   H27   S    
C39   C41   S    
C11   H1    S    
C63   H37   S    
C62   H33   S    
C35   Cl9   S    
O21   C53   S    
O10   V1    S    
C22   O30   S    
O6    C4    A    
O12   C52   A    
C10   Cl12  S    
C50   O17   A    
O17   V3    S    
O19   V3    S    
C49   O18   A    
O1    V2    S    
C54   H10   S    
C55   H12   S    
O2    V1    S    
C6    C22   A    
O27   C59   S    
C28   C34   S    
C36   Cl10  S    
C61   H30   S    
C69   H53   S    
C56   H15   S    
C9    C11   A    
C67   H47   S    
C34   C46   S    
C10   C12   A    
C6    C20   A    
O25   C57   S    
C59   H24   S    
C60   H26   S    
C54   H8    S    
C66   H46   S    
O3    V1    S    
O38   C70   S    
C63   H35   S    
C62   H32   S    
C70   H58   S    
O13   C49   A    
C10   C18   A    
C25   C33   S    
C17   C19   A    
C65   H43   S    
O30   C62   S    
O3    C1    A    
C19   Cl1   S    
C13   O31   S    
C13   C15   A    
C20   Cl2   S    
O23   C55   S    
C14   C16   A    
O11   C51   A    
C57   H19   S    
C29   O23   S    
O34   C66   S    
C59   H25   S    
C65   H42   S    
C24   Cl14  S    
C60   H28   S    
C9    Cl11  S    
C16   C18   A    
O16   V4    S    
O37   C69   S    
C25   Cl7   S    
C56   H14   S    
C18   C20   A    
C8    C14   A    
C61   H31   S    
C26   C34   S    
C62   H34   S    
C4    C7    S    
O5    V1    S    
C21   C23   A    
C48   C51   S    
C57   H18   S    
C22   C24   A    
C64   H39   S    
O7    V1    S    
C55   H11   S    
C7    C13   A    
C31   C43   T    
C30   C38   S    
C1    O8    A    
C56   H16   S    
C42   Cl4   S    
O22   C54   S    
C16   C24   A    
C67   H49   S    
O14   C50   A    
O24   C56   S    
O36   C68   S    
O9    V2    S    
O33   C65   S    
C27   H3    S    
O32   C64   S    
O8    V2    S    
C35   C37   S    
C59   H23   S    
C30   O22   S    
C36   O34   S    
C40   O26   S    
O29   C61   S    
C23   Cl13  S    
C69   H54   S    
C58   H21   S    
