data_mof_unit_56828.cif
_audit_creation_date              2012-10-26T19:09:55-0400
_audit_creation_method            fapswitch 2.2
_symmetry_space_group_name_H-M    P1
_symmetry_Int_Tables_number       1
_space_group_crystal_system       triclinic
_cell_length_a                    16.557798
_cell_length_b                    14.642295
_cell_length_c                    9.545581
_cell_angle_alpha                 90.317558
_cell_angle_beta                  90.0
_cell_angle_gamma                 90.000018
_cell_volume                      2314.23484918

loop_
_atom_site_label
_atom_site_type_symbol
_atom_type_description
_atom_site_fract_x
_atom_site_fract_y
_atom_site_fract_z
_atom_type_partial_charge
Br1   Br    Br    0.258289 0.555889 0.683123 -0.386789
Br2   Br    Br    0.011353 0.693484 0.840466 -0.332943
Br3   Br    Br    0.011353 0.306516 0.159534 -0.332943
Br4   Br    Br    0.000331 0.308013 0.835630 -0.344487
Br5   Br    Br    0.517886 0.192805 0.157099 -0.392648
Br6   Br    Br    0.494163 0.191861 0.834690 -0.361294
Br7   Br    Br    0.494163 0.808139 0.165310 -0.361294
Br8   Br    Br    0.517886 0.807195 0.842901 -0.392649
Br9   Br    Br    0.091179 0.840743 0.356195 -0.367954
Br10  Br    Br    0.091180 0.159257 0.643806 -0.367953
Br11  Br    Br    0.258289 0.444111 0.316876 -0.386787
Br12  Br    Br    0.598546 0.335932 0.667456 -0.343122
Br13  Br    Br    0.757743 0.048596 0.321421 -0.454862
Br14  Br    Br    0.757743 0.951404 0.678580 -0.454863
Br15  Br    Br    0.598546 0.664068 0.332543 -0.343122
Br16  Br    Br    0.000332 0.691987 0.164369 -0.344488
C1    C     C_R   0.114951 0.373922 0.498907 0.643552
C2    C     C_R   0.878311 0.617923 0.500363 0.551383
C3    C     C_R   0.379273 0.880913 0.499478 0.478671
C4    C     C_R   0.379273 0.119087 0.500521 0.478671
C5    C     C_3   0.772808 0.297057 0.655762 -0.027863
C6    C     C_3   0.832219 0.219836 0.422082 -0.030416
C7    C     C_3   0.832218 0.780164 0.577919 -0.030416
C8    C     C_3   0.772808 0.702943 0.344238 -0.027863
C9    C     C_3   0.337613 0.714659 0.549878 -0.031821
C10   C     C_3   0.266058 0.805418 0.344901 -0.017603
C11   C     C_3   0.266058 0.194582 0.655099 -0.017603
C12   C     C_R   0.114951 0.626078 0.501093 0.643551
C13   C     C_3   0.337613 0.285340 0.450121 -0.031821
C14   C     C_3   0.264663 0.646438 0.530041 0.015885
C15   C     C_3   0.183308 0.754175 0.364093 0.054420
C16   C     C_3   0.183309 0.245825 0.635907 0.054420
C17   C     C_3   0.264663 0.353562 0.469958 0.015885
C18   C     C_3   0.688733 0.247874 0.641989 0.025189
C19   C     C_3   0.764867 0.148655 0.460058 -0.030178
C20   C     C_3   0.764867 0.851345 0.539942 -0.030177
C21   C     C_3   0.688733 0.752126 0.358011 0.025189
C22   C     C_3   0.733653 0.352770 0.413066 -0.290364
C23   C     C_R   0.615252 0.874360 0.500519 0.613467
C24   C     C_3   0.733653 0.647230 0.586933 -0.290364
C25   C     C_3   0.240380 0.845881 0.601289 -0.287209
C26   C     C_3   0.240380 0.154119 0.398711 -0.287209
C27   C     C_3   0.807693 0.313942 0.498944 -0.111282
C28   C     C_3   0.807692 0.686058 0.501056 -0.111282
C29   C     C_3   0.308930 0.812460 0.497146 -0.109168
C30   C     C_3   0.308930 0.187540 0.502854 -0.109168
C31   C     C_3   0.182701 0.697472 0.504856 -0.035526
C32   C     C_3   0.182701 0.302527 0.495144 -0.035526
C33   C     C_3   0.682541 0.197223 0.496317 -0.027002
C34   C     C_R   0.615252 0.125640 0.499481 0.613467
C35   C     C_3   0.682541 0.802777 0.503683 -0.027002
C36   C     C_3   0.176770 0.768893 0.626031 -0.199176
C37   C     C_3   0.176770 0.231107 0.373969 -0.199175
C38   C     C_3   0.670433 0.274414 0.385423 -0.200787
C39   C     C_3   0.670433 0.725585 0.614576 -0.200788
C40   C     C_3   0.958887 0.580579 0.082836 0.134445
C41   C     C_3   0.961301 0.582493 0.916161 0.142946
C42   C     C_3   0.961301 0.417507 0.083839 0.142946
C43   C     C_3   0.958887 0.419421 0.917164 0.134446
C44   C     C_3   0.462734 0.083366 0.084938 0.135076
C45   C     C_3   0.084657 0.501294 0.082834 -0.081912
C46   C     C_3   0.457366 0.079472 0.918374 0.124044
C47   C     C_3   0.457365 0.920528 0.081626 0.124044
C48   C     C_3   0.462734 0.916634 0.915062 0.135075
C49   C     C_2   0.762782 0.387373 0.736406 0.330501
C50   C     C_2   0.840002 0.229779 0.261692 0.386229
C51   C     C_2   0.840001 0.770220 0.738308 0.386229
C52   C     C_2   0.762782 0.612627 0.263593 0.330500
C53   C     C_2   0.364280 0.717021 0.703344 0.317950
C54   C     C_2   0.252626 0.901547 0.285271 0.259694
C55   C     C_2   0.252626 0.098454 0.714730 0.259694
C56   C     C_3   0.084657 0.498705 0.917166 -0.081912
C57   C     C_2   0.364280 0.282978 0.296654 0.317951
C58   C     C_2   0.826557 0.236685 0.746234 0.260087
C59   C     C_2   0.913538 0.183541 0.467216 0.288248
C60   C     C_2   0.913538 0.816459 0.532785 0.288248
C61   C     C_2   0.826558 0.763316 0.253767 0.260087
C62   C     C_2   0.411636 0.682153 0.470451 0.379364
C63   C     C_2   0.312858 0.754296 0.230151 0.264666
C64   C     C_2   0.312859 0.245704 0.769849 0.264665
C65   C     C_2   0.411636 0.317847 0.529547 0.379363
C66   C     C_3   0.584583 0.996429 0.082637 -0.070576
C67   C     C_3   0.584583 0.003571 0.917363 -0.070576
C68   C     C_R   0.878311 0.382076 0.499637 0.551384
Cu1   Cu    Cu3+1 0.000100 0.500000 0.642410 1.065914
Cu2   Cu    Cu3+1 0.000100 0.500000 0.357590 1.065914
Cu3   Cu    Cu3+1 0.500100 0.000000 0.642410 1.022406
Cu4   Cu    Cu3+1 0.500100 0.000000 0.357590 1.022406
H1    H     H_    0.274526 0.604742 0.436417 0.238464
H2    H     H_    0.751180 0.385709 0.313594 0.134110
H3    H     H_    0.751180 0.614291 0.686406 0.134110
H4    H     H_    0.704488 0.590401 0.528788 0.163796
H5    H     H_    0.263859 0.871023 0.703129 0.144431
H6    H     H_    0.208864 0.906054 0.557364 0.161116
H7    H     H_    0.208863 0.093946 0.442637 0.161116
H8    H     H_    0.263858 0.128976 0.296872 0.144431
H9    H     H_    0.188295 0.736082 0.728837 0.185342
H10   H     H_    0.115766 0.799272 0.634301 0.249861
H11   H     H_    0.115765 0.200728 0.365700 0.249862
H12   H     H_    0.172822 0.707689 0.273477 0.200231
H13   H     H_    0.188295 0.263917 0.271163 0.185342
H14   H     H_    0.608115 0.302349 0.387438 0.214753
H15   H     H_    0.678722 0.246114 0.278207 0.200197
H16   H     H_    0.678722 0.753885 0.721793 0.200197
H17   H     H_    0.608115 0.697650 0.612561 0.214753
H18   H     H_    0.894771 0.578249 0.114504 0.138136
H19   H     H_    0.897703 0.584449 0.879203 0.113077
H20   H     H_    0.897703 0.415552 0.120797 0.113077
H21   H     H_    0.894770 0.421751 0.885496 0.138136
H22   H     H_    0.399831 0.088495 0.124623 0.113145
H23   H     H_    0.172823 0.292311 0.726523 0.200230
H24   H     H_    0.392662 0.073431 0.889668 0.103655
H25   H     H_    0.392662 0.926570 0.110331 0.103654
H26   H     H_    0.399831 0.911505 0.875377 0.113145
H27   H     H_    0.118383 0.562520 0.118942 0.186867
H28   H     H_    0.120690 0.556994 0.878341 0.197890
H29   H     H_    0.120690 0.443005 0.121659 0.197890
H30   H     H_    0.118383 0.437480 0.881058 0.186867
H31   H     H_    0.622829 0.051664 0.126061 0.210386
H32   H     H_    0.615874 0.067407 0.886504 0.192658
H33   H     H_    0.615874 0.932593 0.113496 0.192659
H34   H     H_    0.274526 0.395258 0.563582 0.238463
H35   H     H_    0.622829 0.948336 0.873939 0.210386
H36   H     H_    0.767543 0.452134 0.682737 0.086365
H37   H     H_    0.818897 0.288768 0.205816 0.121950
H38   H     H_    0.818897 0.711231 0.794184 0.121950
H39   H     H_    0.767543 0.547866 0.317261 0.086366
H40   H     H_    0.342579 0.767760 0.776481 0.118682
H41   H     H_    0.263079 0.961482 0.349303 0.108360
H42   H     H_    0.263079 0.038518 0.650698 0.108360
H43   H     H_    0.342578 0.232239 0.223518 0.118680
H44   H     H_    0.883058 0.210630 0.709613 0.170792
H45   H     H_    0.680951 0.198236 0.728545 0.214062
H46   H     H_    0.919737 0.115733 0.511567 0.164730
H47   H     H_    0.919737 0.884267 0.488434 0.164730
H48   H     H_    0.883059 0.789368 0.290388 0.170794
H49   H     H_    0.457583 0.731040 0.442548 0.145911
H50   H     H_    0.332891 0.790049 0.137829 0.176049
H51   H     H_    0.332891 0.209952 0.862172 0.176050
H52   H     H_    0.457583 0.268960 0.557454 0.145912
H53   H     H_    0.783195 0.113373 0.556751 0.149348
H54   H     H_    0.783195 0.886627 0.443249 0.149349
H55   H     H_    0.680951 0.801765 0.271455 0.214063
H56   H     H_    0.704488 0.409599 0.471210 0.163795
N1    N     N_3   0.001260 0.500000 0.143650 -0.296680
N2    N     N_3   0.001260 0.500000 0.856350 -0.296680
N3    N     N_3   0.501260 1.000000 0.143650 -0.276865
N4    N     N_3   0.501260 0.000000 0.856350 -0.276865
O1    O     O_R   0.091250 0.408820 0.620260 -0.477641
O2    O     O_R   0.908940 0.408800 0.379740 -0.498994
O3    O     O_R   0.908940 0.591200 0.620260 -0.498994
O4    O     O_R   0.908940 0.591200 0.379740 -0.513525
O5    O     O_R   0.408940 0.908800 0.620260 -0.519508
O6    O     O_R   0.408940 0.908800 0.379740 -0.510540
O7    O     O_R   0.408940 0.091200 0.620260 -0.510540
O8    O     O_R   0.408940 0.091200 0.379740 -0.519507
O9    O     O_2   0.744341 0.388563 0.860497 -0.415149
O10   O     O_2   0.871790 0.170155 0.190300 -0.329854
O11   O     O_2   0.871789 0.829845 0.809701 -0.329854
O12   O     O_R   0.091250 0.408820 0.379740 -0.447908
O13   O     O_2   0.744342 0.611438 0.139502 -0.415150
O14   O     O_2   0.407945 0.657108 0.750495 -0.324470
O15   O     O_2   0.227518 0.912685 0.166020 -0.454576
O16   O     O_2   0.227519 0.087316 0.833981 -0.454577
O17   O     O_2   0.407944 0.342892 0.249503 -0.324468
O18   O     O_2   0.806384 0.215761 0.865063 -0.393188
O19   O     O_2   0.974064 0.228911 0.448372 -0.445076
O20   O     O_2   0.974064 0.771089 0.551629 -0.445076
O21   O     O_2   0.806384 0.784242 0.134939 -0.393187
O22   O     O_2   0.423222 0.601159 0.446054 -0.301144
O23   O     O_R   0.091250 0.591180 0.620260 -0.447908
O24   O     O_2   0.320497 0.671482 0.228366 -0.438830
O25   O     O_2   0.320499 0.328518 0.771632 -0.438831
O26   O     O_2   0.423223 0.398842 0.553939 -0.301144
O27   O     O_R   0.091250 0.591180 0.379740 -0.477641
O28   O     O_R   0.591250 0.908820 0.620260 -0.446232
O29   O     O_R   0.591250 0.908820 0.379740 -0.473342
O30   O     O_R   0.591250 0.091180 0.620260 -0.473342
O31   O     O_R   0.591250 0.091180 0.379740 -0.446233
O32   O     O_R   0.908940 0.408800 0.620260 -0.513524

loop_
_geom_bond_atom_site_label_1
_geom_bond_atom_site_label_2
_ccdc_geom_bond_type
C67   H32   S    
C65   H52   S    
C23   C35   S    
Cu3   Cu4   S    
C57   H43   S    
C12   C31   S    
C4    O7    A    
C58   H44   S    
C1    C32   S    
C50   O10   D    
C7    C60   S    
C54   O15   D    
Br16  C40   S    
C66   N3    S    
C59   H46   S    
Cu4   O29   S    
Cu1   Cu2   S    
C37   H11   S    
C6    C19   S    
Cu1   O23   S    
C39   H17   S    
C26   H8    S    
Cu4   O8    S    
C16   H23   S    
C64   O25   D    
Br13  C19   S    
Cu2   O4    S    
Cu2   O2    S    
C26   C37   S    
Br14  C20   S    
C21   C35   S    
C56   N2    S    
C13   C57   S    
Br2   C41   S    
C33   C38   S    
C13   C17   S    
C36   H9    S    
C62   O22   D    
C40   C41   S    
C3    O5    A    
C44   C46   S    
Cu2   O27   S    
C26   C30   S    
C49   H36   S    
C7    C51   S    
C40   N1    S    
C68   O32   A    
C1    O12   A    
C45   N1    S    
C6    C50   S    
C20   H54   S    
C10   C29   S    
C5    C27   S    
C25   H5    S    
C25   H6    S    
C53   H40   S    
C37   H13   S    
C19   C33   S    
Cu3   O5    S    
C44   N3    S    
C4    O8    A    
C66   H33   S    
C35   C39   S    
C10   C15   S    
C15   C31   S    
C41   N2    S    
C48   N4    S    
C27   C68   S    
C16   C32   S    
C66   H31   S    
C14   H1    S    
C2    O4    A    
C47   N3    S    
C23   O29   A    
C60   H47   S    
C32   C37   S    
C42   N1    S    
C48   H26   S    
Cu3   N4    S    
C45   H29   S    
C26   H7    S    
C14   C31   S    
Br11  C17   S    
Cu1   N2    S    
C57   O17   D    
C11   C64   S    
C55   O16   D    
C51   H38   S    
Br9   C15   S    
C45   H27   S    
C23   O28   A    
C5    C18   S    
C34   O30   A    
C18   H45   S    
C42   C43   S    
C52   O13   D    
C39   H16   S    
C66   C67   S    
C54   H41   S    
C24   H4    S    
C7    C28   S    
C9    C62   S    
Cu4   O6    S    
C63   O24   D    
Cu1   O3    S    
C13   C65   S    
Br3   C42   S    
Cu3   O28   S    
C2    C28   S    
C59   O19   D    
C38   H15   S    
C12   O23   A    
C6    C27   S    
C22   C38   S    
C24   C39   S    
C40   H18   S    
C8    C21   S    
C15   H12   S    
C53   O14   D    
C52   H39   S    
Br7   C47   S    
C20   C35   S    
Br8   C48   S    
C45   C56   S    
C49   O9    D    
C61   H48   S    
C19   H53   S    
C33   C34   S    
C17   H34   S    
C10   C54   S    
Cu3   O7    S    
C9    C53   S    
C6    C59   S    
C2    O3    A    
C62   H49   S    
C9    C29   S    
C58   O18   D    
C11   C55   S    
C11   C30   S    
Cu4   O31   S    
C67   N4    S    
C9    C14   S    
C3    O6    A    
C56   H28   S    
C18   C33   S    
C21   H55   S    
Br5   C44   S    
C5    C49   S    
C11   C16   S    
C22   H56   S    
C38   H14   S    
C1    O1    A    
C25   C36   S    
C51   O11   D    
C3    C29   S    
C12   O27   A    
C31   C36   S    
C64   H51   S    
C22   H2    S    
C10   C63   S    
C50   H37   S    
C13   C30   S    
C65   O26   D    
Br6   C46   S    
C34   O31   A    
C22   C27   S    
Br15  C21   S    
Cu3   O30   S    
Cu2   O12   S    
Cu1   O32   S    
C8    C28   S    
C5    C58   S    
Br4   C43   S    
C36   H10   S    
Br1   C14   S    
C43   H21   S    
Cu4   N3    S    
C60   O20   D    
C42   H20   S    
C24   H3    S    
Cu1   O1    S    
C44   H22   S    
C8    C52   S    
C47   C48   S    
C47   H25   S    
C43   N2    S    
Br10  C16   S    
C8    C61   S    
C24   C28   S    
C63   H50   S    
C46   H24   S    
C61   O21   D    
C7    C20   S    
C56   H30   S    
Cu2   N1    S    
C41   H19   S    
C17   C32   S    
C25   C29   S    
C46   N4    S    
C67   H35   S    
Br12  C18   S    
C4    C30   S    
C55   H42   S    
C68   O2    A    
