data_mof_unit_7498.cif
_audit_creation_date              2012-12-11T15:48:37-0500
_audit_creation_method            fapswitch 2.2
_symmetry_space_group_name_H-M    P1
_symmetry_Int_Tables_number       1
_space_group_crystal_system       triclinic
_cell_length_a                    11.114108
_cell_length_b                    10.991182
_cell_length_c                    18.742859
_cell_angle_alpha                 90.066707
_cell_angle_beta                  89.917688
_cell_angle_gamma                 60.067029
_cell_volume                      1984.16118384

loop_
_atom_site_label
_atom_site_type_symbol
_atom_type_description
_atom_site_fract_x
_atom_site_fract_y
_atom_site_fract_z
_atom_type_partial_charge
C1    C     C_R   0.231429 0.648534 0.608056 0.554287
C2    C     C_3   0.792808 0.543159 0.788555 -0.222341
C3    C     C_3   0.726730 0.701041 0.805890 -0.007325
C4    C     C_3   0.678727 0.662378 0.672805 0.094814
C5    C     C_3   0.781270 0.720180 0.675095 -0.256711
C6    C     C_3   0.744824 0.523213 0.716329 0.112250
C7    C     C_R   0.703498 0.114783 0.815418 -0.011629
C8    C     C_R   0.820722 0.084233 0.773180 0.029214
C9    C     C_R   0.808702 0.097125 0.699019 0.030423
C10   C     C_R   0.581711 0.126030 0.705727 -0.154747
C11   C     C_R   0.586321 0.127828 0.779157 -0.186574
C12   C     C_R   0.655239 0.625488 0.599441 0.590263
C13   C     C_3   0.920525 0.139173 0.773161 -0.263463
C14   C     C_3   0.909988 0.146583 0.692101 -0.262024
C15   C     C_R   0.681608 0.136992 0.665399 0.021551
C16   C     C_R   0.161458 0.676388 0.831054 0.003662
C17   C     C_R   0.143826 0.578395 0.790895 0.013373
C18   C     C_R   0.146010 0.577694 0.717286 -0.000917
C19   C     C_R   0.163238 0.785904 0.718919 -0.171190
C20   C     C_R   0.170813 0.780760 0.793085 -0.174302
C21   C     C_3   0.192123 0.425061 0.795544 -0.277326
C22   C     C_3   0.192449 0.424918 0.713718 -0.279139
C23   C     C_R   0.631197 0.221600 0.600198 0.566177
C24   C     C_R   0.166535 0.675441 0.678961 0.008337
C25   C     C_R   0.702882 0.706855 0.179992 0.003719
C26   C     C_R   0.781358 0.577299 0.212142 -0.000752
C27   C     C_R   0.764714 0.558262 0.282015 0.069405
C28   C     C_R   0.595876 0.802915 0.295772 -0.168237
C29   C     C_R   0.614869 0.823253 0.223108 -0.149519
C30   C     C_3   0.803373 0.436861 0.190729 -0.266675
C31   C     C_3   0.778550 0.418514 0.267948 -0.248979
C32   C     C_R   0.668961 0.666667 0.324635 0.018453
C33   C     C_R   0.651568 0.174918 0.170923 0.022197
C34   C     C_R   0.216965 0.652748 0.403360 0.560312
C35   C     C_R   0.518992 0.262340 0.197401 -0.004858
C36   C     C_R   0.500957 0.291504 0.269020 -0.023812
C37   C     C_R   0.747633 0.158225 0.288808 -0.164199
C38   C     C_R   0.766718 0.132962 0.216247 -0.165926
C39   C     C_3   0.387665 0.257448 0.191198 -0.276182
C40   C     C_3   0.371540 0.283796 0.270855 -0.262471
C41   C     C_R   0.612713 0.234748 0.315734 0.026230
C42   C     C_R   0.056684 0.727071 0.195696 -0.005881
C43   C     C_R   0.083021 0.822627 0.231301 0.000950
C44   C     C_R   0.117116 0.807546 0.301610 -0.047116
C45   C     C_R   0.643532 0.625400 0.393847 0.547902
C46   C     C_R   0.070522 0.615508 0.311239 -0.043463
C47   C     C_R   0.042511 0.627758 0.236819 -0.214111
C48   C     C_3   0.173774 0.885423 0.215109 0.164406
C49   C     C_3   0.212399 0.867455 0.293473 -0.231388
C50   C     C_R   0.127842 0.694391 0.340690 0.006135
C51   C     C_R   0.708139 0.088338 0.892496 0.531007
C52   C     C_R   0.755688 0.713225 0.882925 0.554003
C53   C     C_R   0.115942 0.706637 0.905079 0.543182
C54   C     C_R   0.675532 0.107550 0.102912 0.534421
C55   C     C_R   0.730159 0.717039 0.105319 0.547490
C56   C     C_R   0.587307 0.281109 0.388067 0.545116
C57   C     C_R   0.031173 0.745036 0.119295 0.546999
C58   C     C_3   0.567395 0.788064 0.788371 -0.184804
C59   C     C_3   0.539850 0.773668 0.708923 0.161538
C60   C     C_3   0.794077 0.759269 0.753776 -0.270808
Cr1   Cr    Cr6+3 0.392960 0.397920 0.502240 1.041631
Cr2   Cr    Cr6+3 0.398340 0.708480 0.501250 1.002012
Cr3   Cr    Cr6+3 0.708670 0.393570 0.496460 1.050519
Cr4   Cr    Cr6+3 0.937650 0.938540 0.007610 1.012153
Cr5   Cr    Cr6+3 0.625330 0.937370 0.994520 1.003725
Cr6   Cr    Cr6+3 0.937940 0.625230 0.001190 0.991193
H1    H     H_    0.528642 0.900830 0.800095 0.162548
H2    H     H_    0.843765 0.449420 0.689256 0.128205
H3    H     H_    0.900852 0.723219 0.768162 0.132604
H4    H     H_    0.884888 0.639483 0.654857 0.113206
H5    H     H_    0.487473 0.140623 0.682387 0.179635
H6    H     H_    0.496492 0.137512 0.806856 0.145021
H7    H     H_    0.025102 0.062696 0.791743 0.128153
H8    H     H_    0.881513 0.242217 0.799138 0.128545
H9    H     H_    0.864259 0.251429 0.668880 0.201549
H10   H     H_    0.005309 0.069779 0.663853 0.110078
H11   H     H_    0.175728 0.866034 0.693782 0.110678
H12   H     H_    0.503644 0.762111 0.823775 0.083883
H13   H     H_    0.187073 0.857364 0.821035 0.129713
H14   H     H_    0.115158 0.402132 0.819948 0.139385
H15   H     H_    0.296074 0.360746 0.819258 0.126594
H16   H     H_    0.296639 0.362868 0.689783 0.150657
H17   H     H_    0.111563 0.405450 0.690562 0.120447
H18   H     H_    0.521958 0.890563 0.327864 0.131930
H19   H     H_    0.558632 0.926940 0.200369 0.140840
H20   H     H_    0.911945 0.364552 0.173244 0.141409
H21   H     H_    0.721934 0.442711 0.154422 0.148834
H22   H     H_    0.677379 0.424024 0.276613 0.121620
H23   H     H_    0.464922 0.734264 0.706918 0.121980
H24   H     H_    0.869908 0.331125 0.294626 0.187835
H25   H     H_    0.837540 0.119005 0.323264 0.141339
H26   H     H_    0.871510 0.071304 0.196748 0.134360
H27   H     H_    0.402344 0.153456 0.176019 0.159725
H28   H     H_    0.307789 0.347041 0.159693 0.144581
H29   H     H_    0.284777 0.386718 0.285183 0.149286
H30   H     H_    0.381613 0.193464 0.302363 0.166956
H31   H     H_    0.016073 0.557675 0.210171 0.126676
H32   H     H_    0.110755 0.998043 0.200394 0.119832
H33   H     H_    0.322969 0.791184 0.304820 0.154704
H34   H     H_    0.171695 0.969365 0.321939 0.118737
H35   H     H_    0.743427 0.872999 0.758750 0.158954
H36   H     H_    0.744758 0.813824 0.640227 0.172470
H37   H     H_    0.906317 0.498986 0.785872 0.096892
H38   H     H_    0.783151 0.479002 0.831090 0.138879
O1    O     O_R   0.507380 0.255700 0.581440 -0.542332
O2    O     O_R   0.524480 0.695810 0.424040 -0.527015
O3    O     O_R   0.736390 0.504290 0.414790 -0.475924
O4    O     O_R   0.691300 0.277290 0.422170 -0.516605
O5    O     O_3   0.499990 0.499990 0.499980 -0.275516
O6    O     O_R   0.089400 0.825690 0.930570 -0.515053
O7    O     O_R   0.818460 0.054440 0.929850 -0.495137
O8    O     O_R   0.606060 0.077150 0.915510 -0.536062
O9    O     O_R   0.646550 0.806680 0.917570 -0.503720
O10   O     O_R   0.837170 0.593410 0.915250 -0.524322
O11   O     O_R   0.065200 0.635530 0.931570 -0.509023
O12   O     O_R   0.280320 0.527350 0.578930 -0.488278
O13   O     O_R   0.068260 0.828890 0.091840 -0.470934
O14   O     O_R   0.798870 0.057410 0.079340 -0.529529
O15   O     O_R   0.584930 0.080350 0.076780 -0.525930
O16   O     O_R   0.626960 0.809650 0.067060 -0.485653
O17   O     O_R   0.816040 0.596610 0.076510 -0.521298
O18   O     O_R   0.045610 0.638500 0.081060 -0.525755
O19   O     O_3   0.833640 0.833710 0.001100 -0.310960
O20   O     O_R   0.260510 0.739590 0.584590 -0.554337
O21   O     O_R   0.532300 0.695080 0.573820 -0.491564
O22   O     O_R   0.744840 0.503500 0.576370 -0.514842
O23   O     O_R   0.699120 0.276560 0.571960 -0.480981
O24   O     O_R   0.498940 0.256500 0.419860 -0.512071
O25   O     O_R   0.272500 0.528080 0.429150 -0.486295
O26   O     O_R   0.252060 0.740380 0.423010 -0.529245
C61   C     C_2   0.044737 0.519651 0.357008 0.598828
O27   O     O_2   0.009716 0.552149 0.419073 -0.460890
O28   O     O_R   0.058215 0.393549 0.331771 -0.696586
H39   H     H_    0.085892 0.372681 0.279905 0.277405
O29   O     O_3   0.490917 0.905473 0.673834 -0.582953
C62   C     C_3   0.347971 0.970329 0.657724 -0.041562
H40   H     H_    0.284646 0.015137 0.706852 0.108512
H41   H     H_    0.323776 0.895077 0.632592 0.186964
C63   C     C_3   0.308046 0.084906 0.601990 -0.347546
H42   H     H_    0.386662 0.047856 0.558552 0.183049
H43   H     H_    0.205711 0.112666 0.578580 0.093648
H44   H     H_    0.297712 0.181162 0.626143 0.130457
O30   O     O_3   0.284326 0.812456 0.165163 -0.520099
C64   C     C_3   0.376546 0.668552 0.179732 0.012488
H45   H     H_    0.329503 0.616031 0.210021 0.126970
H46   H     H_    0.466386 0.657885 0.210586 0.133957
C65   C     C_3   0.429887 0.591561 0.109103 -0.342510
H47   H     H_    0.484384 0.636711 0.078882 0.181433
H48   H     H_    0.503245 0.478787 0.118597 0.085422
H49   H     H_    0.342004 0.601167 0.076723 0.185364
O31   O     O_3   0.660308 0.459605 0.714366 -0.568185
C66   C     C_3   0.595521 0.460646 0.779274 -0.034811
H50   H     H_    0.567803 0.551061 0.814052 0.123186
H51   H     H_    0.659730 0.365573 0.810495 0.144622
C67   C     C_3   0.462886 0.468407 0.762885 -0.360642
H52   H     H_    0.476608 0.387329 0.724508 0.182530
H53   H     H_    0.418567 0.460128 0.814054 0.105597
H54   H     H_    0.399370 0.569867 0.737453 0.162813

loop_
_geom_bond_atom_site_label_1
_geom_bond_atom_site_label_2
_ccdc_geom_bond_type
C53   O6    A    
C44   C49   S    
C55   O17   A    
C51   O8    A    
C28   H18   S    
C32   C45   S    
Cr2   O26   S    
C35   C36   A    
C9    C14   S    
Cr1   O5    S    
Cr2   O20   S    
C7    C8    A    
Cr5   O8    S    
C52   O9    A    
C7    C11   A    
C26   C27   A    
C8    C13   S    
C18   C24   A    
C22   H16   S    
C23   O23   A    
C28   C29   A    
C65   H48   S    
C10   C15   A    
C62   C63   S    
C30   C31   S    
C63   H44   S    
C12   O22   A    
O30   C64   S    
C23   O1    A    
C38   H26   S    
Cr4   O14   S    
C4    C59   S    
C59   H23   S    
C59   O29   S    
C19   H11   S    
C16   C53   S    
C56   O4    A    
C56   O24   A    
C65   H47   S    
C57   O18   A    
C5    H36   S    
C39   H27   S    
C19   C20   A    
C34   O25   A    
C16   C17   A    
O31   C66   S    
Cr6   O18   S    
C1    O12   A    
C2    H38   S    
C30   H20   S    
Cr1   O1    S    
C43   C48   S    
C29   H19   S    
C20   H13   S    
Cr1   O25   S    
C60   H35   S    
C3    C60   S    
C15   C23   S    
C13   C14   S    
C67   H54   S    
C36   C41   A    
C2    C6    S    
C40   H30   S    
C64   C65   S    
C42   C57   S    
C55   O16   A    
C25   C29   A    
C54   O15   A    
C34   C50   S    
Cr6   O11   S    
C37   H25   S    
C27   C31   S    
C36   C40   S    
C65   H49   S    
C4    C6    S    
C39   C40   S    
C11   H6    S    
C8    C9    A    
Cr4   O7    S    
C12   O21   A    
C25   C26   A    
C17   C21   S    
Cr4   O13   S    
C48   O30   S    
C14   H10   S    
Cr3   O5    S    
C35   C39   S    
C43   C44   A    
C41   C56   S    
C37   C38   A    
C49   H33   S    
Cr3   O4    S    
Cr4   O6    S    
C66   C67   S    
C28   C32   A    
C16   C20   A    
C31   H24   S    
Cr1   O12   S    
C17   C18   A    
Cr5   O15   S    
Cr6   O17   S    
C66   H50   S    
C67   H53   S    
C6    O31   S    
C64   H46   S    
C48   C49   S    
C21   H15   S    
C26   C30   S    
C39   H28   S    
C54   O14   A    
O28   H39   S    
C4    C12   S    
C42   C43   A    
C40   H29   S    
Cr3   O3    S    
C61   O27   D    
C46   C61   S    
C45   O2    A    
C62   H41   S    
C57   O13   A    
C44   C50   A    
C33   C54   S    
C46   C47   A    
C51   O7    A    
C31   H22   S    
Cr6   O10   S    
C5    C60   S    
C27   C32   A    
C18   C22   S    
Cr5   O9    S    
C25   C55   S    
C66   H51   S    
C64   H45   S    
C61   O28   S    
C5    H4    S    
Cr2   O21   S    
C63   H42   S    
Cr2   O2    S    
C52   O10   A    
Cr4   O19   S    
C48   H32   S    
C46   C50   A    
C33   C38   A    
C47   H31   S    
C14   H9    S    
C19   C24   A    
C58   C59   S    
C1    O20   A    
C7    C51   S    
C3    C52   S    
C22   H17   S    
C63   H43   S    
Cr2   O5    S    
C60   H3    S    
C21   H14   S    
C6    H2    S    
C33   C35   A    
Cr5   O16   S    
C2    C3    S    
Cr1   O24   S    
C42   C47   A    
Cr5   O19   S    
C37   C41   A    
C2    H37   S    
Cr3   O22   S    
O29   C62   S    
C10   C11   A    
C58   H12   S    
C10   H5    S    
C3    C58   S    
C53   O11   A    
C58   H1    S    
C4    C5    S    
C13   H8    S    
C34   O26   A    
C1    C24   S    
C67   H52   S    
Cr6   O19   S    
C62   H40   S    
C13   H7    S    
C30   H21   S    
C21   C22   S    
Cr3   O23   S    
C45   O3    A    
C9    C15   A    
C49   H34   S    
