data_mof_unit_7845.cif
_audit_creation_date              2012-12-10T17:15:12-0500
_audit_creation_method            fapswitch 2.2
_symmetry_space_group_name_H-M    P1
_symmetry_Int_Tables_number       1
_space_group_crystal_system       triclinic
_cell_length_a                    10.191945
_cell_length_b                    10.708725
_cell_length_c                    12.899379
_cell_angle_alpha                 91.223157
_cell_angle_beta                  91.552864
_cell_angle_gamma                 94.718566
_cell_volume                      1402.19385007

loop_
_atom_site_label
_atom_site_type_symbol
_atom_type_description
_atom_site_fract_x
_atom_site_fract_y
_atom_site_fract_z
_atom_type_partial_charge
C1    C     C_R   0.444220 0.266180 0.500460 0.827240
C2    C     C_R   0.553614 0.734567 0.512023 0.808229
C3    C     C_2   0.073177 0.529423 0.526967 0.484173
C4    C     C_2   0.926176 0.524341 0.499123 0.533395
C5    C     C_R   0.474165 0.503607 0.698269 0.858513
C6    C     C_R   0.525563 0.495693 0.301816 0.995535
C7    C     C_R   0.542729 0.497204 0.191703 -0.163110
C8    C     C_R   0.456438 0.503752 0.808663 -0.238014
C9    C     C_R   0.338000 0.420973 0.954355 -0.309606
C10   C     C_R   0.661092 0.577675 0.045568 -0.254844
C11   C     C_R   0.344298 0.438402 0.848120 0.409950
C12   C     C_R   0.656268 0.559559 0.151781 0.342515
C13   C     C_R   0.559383 0.556461 0.874835 0.342636
C14   C     C_R   0.436755 0.449380 0.127305 0.328693
C15   C     C_R   0.554333 0.534435 0.980250 0.041968
C16   C     C_R   0.441898 0.468335 0.020836 -0.069426
C17   C     C_2   0.410618 0.132241 0.523078 0.202736
C18   C     C_2   0.578206 0.870756 0.537458 0.198343
C19   C     C_2   0.495296 0.071168 0.582753 0.357379
C20   C     C_2   0.480753 0.932009 0.580320 0.339663
H1    H     H_    0.253579 0.366035 0.983269 0.170340
H2    H     H_    0.747906 0.627254 0.014728 0.203906
N1    N     N_2   0.162330 0.550370 0.457540 0.027971
N2    N     N_2   0.837670 0.449630 0.542460 0.026061
O1    O     O_R   0.567930 0.307680 0.508550 -0.560366
O2    O     O_R   0.432070 0.692320 0.491450 -0.560928
O3    O     O_R   0.351090 0.340020 0.481290 -0.623780
O4    O     O_R   0.648910 0.659980 0.518710 -0.603450
O5    O     O_R   0.590490 0.486480 0.665020 -0.628117
O6    O     O_R   0.409510 0.513520 0.334980 -0.618089
O7    O     O_R   0.373660 0.518820 0.637760 -0.520366
O8    O     O_R   0.626340 0.481180 0.362240 -0.522973
Zn1   Zn    Zn3+2 0.644780 0.478400 0.518200 1.054633
Zn2   Zn    Zn3+2 0.355220 0.521600 0.481800 1.054593
O9    O     O_3   0.330418 0.383323 0.170579 -0.742352
H3    H     H_    0.249625 0.419816 0.145160 0.340962
O10   O     O_3   0.666667 0.628156 0.838493 -0.769960
H4    H     H_    0.638518 0.669882 0.775227 0.321448
O11   O     O_3   0.757809 0.607317 0.218130 -0.687007
H5    H     H_    0.829360 0.648687 0.177265 0.341617
O12   O     O_3   0.245561 0.386641 0.781285 -0.739128
H6    H     H_    0.173056 0.346658 0.821909 0.333969
O13   O     O_3   0.360250 0.867891 0.601787 -0.612071
C21   C     C_3   0.316242 0.900244 0.701176 0.088993
H7    H     H_    0.207761 0.899086 0.695554 0.180521
H8    H     H_    0.352468 0.995352 0.730383 0.105866
C22   C     C_3   0.351530 0.802392 0.779263 -0.389716
H9    H     H_    0.309725 0.708702 0.750682 0.274948
H10   H     H_    0.460236 0.802457 0.786804 0.189377
C23   C     C_3   0.296084 0.828096 0.885535 -0.904694
H11   H     H_    0.334792 0.921999 0.916108 0.264706
H12   H     H_    0.325499 0.756152 0.940383 0.270249
H13   H     H_    0.186823 0.823726 0.880134 0.264197
O14   O     O_3   0.608420 0.135069 0.627372 -0.622294
C24   C     C_3   0.626518 0.105421 0.732916 0.044457
H14   H     H_    0.733652 0.118881 0.751714 0.175529
H15   H     H_    0.594870 0.006583 0.750747 0.112918
C25   C     C_3   0.559299 0.195866 0.803276 -0.387713
H16   H     H_    0.604287 0.292345 0.792270 0.247972
H17   H     H_    0.452689 0.193221 0.782606 0.209507
C26   C     C_3   0.576686 0.163012 0.917084 -0.892462
H18   H     H_    0.534912 0.065802 0.930157 0.262449
H19   H     H_    0.524890 0.227929 0.966511 0.280326
H20   H     H_    0.682802 0.171652 0.940458 0.265783
O15   O     O_3   0.694159 0.941190 0.512529 -0.627354
C27   C     C_3   0.809438 0.887262 0.546275 0.136626
H21   H     H_    0.894323 0.952683 0.527114 0.143548
H22   H     H_    0.824690 0.803538 0.499284 0.195930
C28   C     C_3   0.816593 0.865131 0.664164 -0.400300
H23   H     H_    0.846173 0.954014 0.706421 0.210923
H24   H     H_    0.719640 0.832230 0.693657 0.195743
C29   C     C_3   0.913495 0.769162 0.691455 -0.899629
H25   H     H_    0.869070 0.674040 0.669449 0.280110
H26   H     H_    0.935067 0.772450 0.776352 0.278776
H27   H     H_    0.006848 0.787897 0.650136 0.243139
O16   O     O_3   0.296592 0.064499 0.483419 -0.627980
C30   C     C_3   0.179276 0.125407 0.496184 0.112790
H28   H     H_    0.096459 0.053431 0.479356 0.170432
H29   H     H_    0.168526 0.194790 0.434422 0.170746
C31   C     C_3   0.163557 0.185631 0.605555 -0.337088
H30   H     H_    0.247810 0.172117 0.659081 0.206132
H31   H     H_    0.158104 0.287781 0.597392 0.297919
C32   C     C_3   0.039779 0.134242 0.658059 -0.899379
H32   H     H_    0.951539 0.145074 0.607930 0.301900
H33   H     H_    0.028921 0.185190 0.732717 0.274769
H34   H     H_    0.048316 0.034356 0.674273 0.244424
O17   O     O_3   0.881397 0.604059 0.426080 -0.697119
H35   H     H_    0.951468 0.671875 0.415314 0.324684
O18   O     O_3   0.115489 0.520472 0.628647 -0.725072
H36   H     H_    0.040764 0.532092 0.674248 0.346696
O19   O     O_3   0.878487 0.370656 0.613319 -0.744772
H37   H     H_    0.796486 0.331322 0.642047 0.392388
O20   O     O_3   0.116579 0.545603 0.358697 -0.715825
H38   H     H_    0.193686 0.566549 0.316061 0.383045

loop_
_geom_bond_atom_site_label_1
_geom_bond_atom_site_label_2
_ccdc_geom_bond_type
C27   H22   S    
O17   H35   S    
C8    C13   A    
C2    C18   S    
O12   H6    S    
C6    O8    A    
C19   C20   S    
C24   H14   S    
C22   H10   S    
C4    O17   S    
C30   H28   S    
C10   H2    S    
C18   O15   S    
O20   H38   S    
C9    C16   A    
C10   C15   A    
C31   C32   S    
C4    N2    D    
C27   C28   S    
C25   H17   S    
C15   C16   A    
O5    Zn1   S    
C28   H24   S    
C26   H19   S    
C3    N1    D    
O2    Zn2   S    
C7    C14   A    
C22   H9    S    
C17   O16   S    
C23   H12   S    
C13   O10   S    
C21   C22   S    
C25   C26   S    
C27   H21   S    
C1    O1    A    
C26   H18   S    
C29   H27   S    
C21   H8    S    
C22   C23   S    
C5    O5    A    
C30   H29   S    
O3    Zn2   S    
C7    C12   A    
C23   H13   S    
O6    Zn2   S    
O16   C30   S    
C29   H26   S    
O19   H37   S    
C29   H25   S    
C25   H16   S    
N1    O20   S    
O9    H3    S    
C26   H20   S    
O13   C21   S    
O10   H4    S    
C32   H32   S    
N1    Zn2   S    
C23   H11   S    
O7    Zn2   S    
C2    O2    A    
C9    C11   A    
C10   C12   A    
C19   O14   S    
C31   H31   S    
C32   H33   S    
O4    Zn1   S    
C24   H15   S    
C14   C16   A    
C3    C4    S    
N2    O19   S    
C14   O9    S    
C20   O13   S    
C21   H7    S    
C30   C31   S    
O14   C24   S    
C6    O6    A    
C28   C29   S    
C31   H30   S    
C5    C8    S    
C6    C7    S    
C1    C17   S    
N2    Zn1   S    
C3    O18   S    
O8    Zn1   S    
C12   O11   S    
C13   C15   A    
C9    H1    S    
C8    C11   A    
C17   C19   D    
C11   O12   S    
C18   C20   D    
C28   H23   S    
O11   H5    S    
C32   H34   S    
O15   C27   S    
C24   C25   S    
C1    O3    A    
C2    O4    A    
O18   H36   S    
O1    Zn1   S    
C5    O7    A    
