data_mof_unit_22803.cif
_audit_creation_date              2012-12-11T18:42:04-0500
_audit_creation_method            fapswitch 2.2
_symmetry_space_group_name_H-M    P1
_symmetry_Int_Tables_number       1
_space_group_crystal_system       triclinic
_cell_length_a                    8.219643
_cell_length_b                    14.251903
_cell_length_c                    18.809862
_cell_angle_alpha                 97.297611
_cell_angle_beta                  91.464738
_cell_angle_gamma                 91.792265
_cell_volume                      2183.60405351

loop_
_atom_site_label
_atom_site_type_symbol
_atom_type_description
_atom_site_fract_x
_atom_site_fract_y
_atom_site_fract_z
_atom_type_partial_charge
Ba1   Ba    Ba6+2 0.843240 0.541620 0.463500 1.701051
Ba2   Ba    Ba6+2 0.346570 0.458460 0.536510 1.643460
C1    C     C_3   0.476983 0.785315 0.183031 -0.257610
C2    C     C_3   0.552486 0.778992 0.257195 0.758619
C3    C     C_3   0.489231 0.294648 0.322873 0.299909
C4    C     C_3   0.430830 0.247144 0.249367 -0.268822
C5    C     C_3   0.109502 0.275868 0.743264 0.343839
C6    C     C_3   0.128934 0.255560 0.820390 -0.340904
C7    C     C_3   0.590672 0.220213 0.704215 0.359038
C8    C     C_3   0.577190 0.124600 0.731795 -0.354454
C9    C     C_R   0.992979 0.467971 0.050763 -0.053385
C10   C     C_R   0.908234 0.417480 0.098560 -0.102164
C11   C     C_R   0.768194 0.444474 0.958504 -0.090733
C12   C     C_3   0.074970 0.728769 0.255336 0.458139
C13   C     C_R   0.929096 0.475044 0.980418 0.043421
C14   C     C_R   0.714805 0.439199 0.887505 -0.085858
C15   C     C_R   0.816734 0.467865 0.835284 -0.035044
C16   C     C_R   0.971500 0.509994 0.856861 -0.004308
C17   C     C_R   0.028985 0.512522 0.929623 0.031714
C18   C     C_R   0.767799 0.456373 0.762163 -0.004596
C19   C     C_R   0.871047 0.487740 0.711587 -0.303674
C20   C     C_R   0.016502 0.538082 0.732029 0.038721
C21   C     C_R   0.068281 0.549585 0.805806 -0.040730
C22   C     C_R   0.153175 0.501915 0.071019 0.025428
C23   C     C_3   0.022050 0.734961 0.177004 0.394821
C24   C     C_R   0.215296 0.495446 0.142196 -0.030151
C25   C     C_R   0.122911 0.447236 0.190955 -0.111589
C26   C     C_R   0.980924 0.394945 0.161687 0.440397
C27   C     C_R   0.212850 0.599328 0.830624 -0.017881
C28   C     C_R   0.272395 0.598495 0.900733 -0.074518
C29   C     C_R   0.186544 0.551089 0.950653 0.017125
C30   C     C_R   0.251106 0.542924 0.020932 0.051840
C31   C     C_R   0.413740 0.569953 0.041878 -0.075248
C32   C     C_R   0.372048 0.535122 0.163543 -0.012964
C33   C     C_R   0.472807 0.565527 0.111323 -0.104222
C34   C     C_3   0.182002 0.749472 0.610548 0.310025
C35   C     C_R   0.423104 0.543964 0.236413 -0.036240
C36   C     C_R   0.322588 0.507069 0.285942 -0.292391
C37   C     C_R   0.176508 0.456356 0.265318 0.033097
C38   C     C_R   0.691279 0.939172 0.542907 -0.027832
C39   C     C_R   0.509111 0.800491 0.497966 0.070522
C40   C     C_R   0.370212 0.764733 0.457349 -0.268289
C41   C     C_R   0.266260 0.825253 0.426592 -0.027378
C42   C     C_R   0.307343 0.921264 0.431316 -0.059580
C43   C     C_R   0.450685 0.957898 0.468271 0.050246
C44   C     C_R   0.550908 0.898622 0.504116 0.004186
C45   C     C_3   0.197433 0.856924 0.625043 -0.389483
C46   C     C_R   0.636999 0.092839 0.505416 -0.020229
C47   C     C_R   0.736834 0.034848 0.542470 0.009155
C48   C     C_R   0.683468 0.188878 0.505468 0.013922
C49   C     C_R   0.823968 0.226413 0.543057 -0.286032
C50   C     C_R   0.928663 0.168262 0.575161 0.017082
C51   C     C_R   0.884179 0.072731 0.576281 -0.140525
C52   C     C_R   0.494596 0.053288 0.468958 -0.000356
C53   C     C_3   0.009560 0.252808 0.394861 0.308013
C54   C     C_3   0.995668 0.145108 0.381091 -0.273442
C55   C     C_3   0.689239 0.678893 0.675630 0.304218
C56   C     C_3   0.697190 0.711674 0.755909 -0.381523
H1    H     H_    0.215965 0.887346 0.574425 0.045885
H2    H     H_    0.084408 0.885445 0.649223 0.122565
H3    H     H_    0.891533 0.281396 0.411371 -0.001197
H4    H     H_    0.974313 0.114679 0.431406 0.035283
H5    H     H_    0.110446 0.116775 0.358502 0.134601
H6    H     H_    0.812466 0.660650 0.657612 0.007721
H7    H     H_    0.605565 0.615670 0.665342 0.069171
H8    H     H_    0.572140 0.781530 0.141955 0.137202
H9    H     H_    0.783563 0.773505 0.767890 0.132814
H10   H     H_    0.738883 0.654251 0.785706 0.060388
H11   H     H_    0.460188 0.760010 0.295382 -0.118217
H12   H     H_    0.414632 0.852862 0.182201 0.212917
H13   H     H_    0.381125 0.323076 0.351311 0.002164
H14   H     H_    0.575921 0.354241 0.316742 0.076312
H15   H     H_    0.377760 0.300099 0.217940 0.081169
H16   H     H_    0.532084 0.213314 0.219239 0.180530
H17   H     H_    0.385081 0.727841 0.168351 0.032004
H18   H     H_    0.088536 0.681704 0.141937 -0.091791
H19   H     H_    0.173995 0.344277 0.738461 0.090718
H20   H     H_    0.977756 0.281951 0.731097 -0.063848
H21   H     H_    0.259910 0.251021 0.835024 0.153276
H22   H     H_    0.076138 0.313129 0.857071 0.076415
H23   H     H_    0.064646 0.187621 0.826904 0.124432
H24   H     H_    0.519046 0.215703 0.652981 0.093172
H25   H     H_    0.623686 0.068896 0.691499 0.063157
H26   H     H_    0.448020 0.106710 0.741791 0.152684
H27   H     H_    0.037913 0.656590 0.266579 -0.036700
H28   H     H_    0.650192 0.126486 0.782494 0.122888
H29   H     H_    0.833009 0.477669 0.655573 0.071661
H30   H     H_    0.284498 0.637923 0.795971 0.100472
H31   H     H_    0.361845 0.515171 0.341784 0.065682
H32   H     H_    0.793437 0.381633 0.082968 0.130960
H33   H     H_    0.385872 0.637233 0.914642 0.072715
H34   H     H_    0.208269 0.736318 0.260389 -0.189484
H35   H     H_    0.499669 0.594440 0.005408 0.072814
H36   H     H_    0.336582 0.690270 0.454093 0.059215
H37   H     H_    0.226251 0.967463 0.407033 0.088794
H38   H     H_    0.965479 0.028043 0.601889 0.067891
H39   H     H_    0.858342 0.300261 0.542611 0.061243
H40   H     H_    0.768804 0.897244 0.572558 0.089403
H41   H     H_    0.416565 0.095442 0.439668 0.088197
H42   H     H_    0.891570 0.715414 0.167682 0.053281
H43   H     H_    0.299055 0.721275 0.591758 -0.001194
H44   H     H_    0.085722 0.729896 0.568483 0.068686
O1    O     O_2   0.887710 0.436190 0.327560 -0.424440
O2    O     O_3   0.632970 0.753009 0.640655 -0.645484
O3    O     O_3   0.004181 0.798195 0.303955 -0.489937
O4    O     O_2   0.301980 0.563840 0.672490 -0.466168
O5    O     O_3   0.054330 0.556590 0.583490 -0.501135
O6    O     O_3   0.555270 0.390630 0.635330 -0.482280
O7    O     O_3   0.142237 0.714571 0.674314 -0.635467
O8    O     O_3   0.637720 0.384870 0.467990 -0.475388
O9    O     O_3   0.145220 0.339960 0.601250 -0.485240
O10   O     O_2   0.266325 0.170697 0.564554 -0.502532
O11   O     O_3   0.176585 0.202358 0.697405 -0.594575
O12   O     O_3   0.135370 0.443490 0.416520 -0.515749
O13   O     O_3   0.551980 0.615210 0.532020 -0.491380
O14   O     O_2   0.394410 0.269100 0.474240 -0.475519
O15   O     O_3   0.566885 0.227207 0.358800 -0.636447
O16   O     O_2   0.428083 0.461518 0.757556 -0.498046
O17   O     O_3   0.529029 0.289717 0.755240 -0.600054
O18   O     O_3   0.634420 0.609440 0.364670 -0.453142
O19   O     O_2   0.761665 0.539997 0.244229 -0.503120
O20   O     O_3   0.053854 0.285621 0.331110 -0.545964
O21   O     O_3   0.680401 0.715209 0.250847 -0.614950
O22   O     O_2   0.795290 0.730930 0.525800 -0.471942
O23   O     O_3   0.044470 0.660110 0.398750 -0.502316
O24   O     O_2   0.934929 0.827815 0.440701 -0.431447
P1    P     P_3+3 0.061800 0.409390 0.339760 1.065185
P2    P     P_3+3 0.622760 0.718740 0.547830 0.975967
P3    P     P_3+3 0.064201 0.780045 0.391612 1.053330
P4    P     P_3+3 0.127890 0.590690 0.660240 0.970663
P5    P     P_3+3 0.129059 0.218939 0.608755 0.942047
P6    P     P_3+3 0.620426 0.602457 0.271707 0.938710
P7    P     P_3+3 0.575407 0.265912 0.450802 0.941731
P8    P     P_3+3 0.570002 0.401038 0.728362 0.937678
S1    S     S_3+6 0.631870 0.894768 0.291687 -0.040877
O25   O     O_2   0.705574 0.893590 0.364994 -0.284710
O26   O     O_2   0.759510 0.926552 0.243564 -0.208599
O27   O     O_3   0.480113 0.971563 0.296184 -0.552989
H45   H     H_    0.534778 0.034834 0.307227 0.364682
H46   H     H_    0.302517 0.878721 0.662428 0.127381
H47   H     H_    0.102810 0.273738 0.437955 0.053839
H48   H     H_    0.893207 0.122446 0.342441 0.189564
H49   H     H_    0.574595 0.732175 0.774532 0.124233
H50   H     H_    0.338351 0.190812 0.256081 0.173647
H51   H     H_    0.720672 0.235512 0.694344 -0.063188
H52   H     H_    0.591906 0.412211 0.874437 0.110992
S2    S     S_3+6 0.928772 0.277904 0.177942 -0.071346
O28   O     O_2   0.078832 0.227173 0.195230 -0.288353
O29   O     O_2   0.811388 0.279072 0.237565 -0.312861
O30   O     O_3   0.838691 0.216907 0.104063 -0.527586
H53   H     H_    0.809114 0.154025 0.118080 0.376135
H54   H     H_    0.597483 0.589510 0.124135 0.079378
H55   H     H_    0.678860 0.424014 0.995036 0.076067
S3    S     S_3+6 0.059889 0.847812 0.146967 -0.019976
O31   O     O_2   0.119528 0.920471 0.207826 -0.228171
O32   O     O_2   0.184590 0.838035 0.089681 -0.312664
O33   O     O_3   0.886412 0.883050 0.110939 -0.477321
H56   H     H_    0.913420 0.946827 0.097978 0.378250

loop_
_geom_bond_atom_site_label_1
_geom_bond_atom_site_label_2
_ccdc_geom_bond_type
C49   H39   S    
S1    O27   S    
C53   C54   S    
C19   H29   S    
O33   H56   S    
C53   H47   S    
O21   P6    S    
C32   C35   A    
C39   C40   A    
C9    C22   A    
S2    O28   D    
Ba1   P2    S    
C17   C29   A    
C5    C6    S    
C43   C44   A    
C42   C43   A    
C13   C17   A    
C36   H31   S    
C24   C25   A    
C35   C36   A    
C10   C26   A    
C21   C27   A    
C10   H32   S    
S2    O29   D    
Ba1   O23   S    
C16   C17   A    
C3    H14   S    
C38   H40   S    
C3    C4    S    
Ba1   O12   S    
C38   C47   A    
C53   H3    S    
Ba2   O5    S    
C15   C18   A    
C34   C45   S    
C34   H44   S    
C32   C33   A    
C7    H51   S    
O20   P1    S    
C27   H30   S    
C8    H26   S    
Ba2   P4    S    
C45   H2    S    
Ba2   O14   S    
C56   H49   S    
C24   C32   A    
C12   O3    S    
C8    H28   S    
C29   C30   A    
C25   C37   A    
C14   C15   A    
C45   H46   S    
C6    H21   S    
C39   C44   A    
C1    H17   S    
C7    C8    S    
Ba1   O1    S    
S3    O32   D    
O16   P8    D    
C7    H24   S    
O22   P2    D    
C14   H52   S    
C54   H48   S    
C46   C48   A    
C53   O20   S    
O15   P7    S    
C12   C23   S    
C40   H36   S    
C19   C20   A    
C20   P4    S    
C51   H38   S    
C39   P2    S    
C9    C13   A    
O5    P4    S    
C2    H11   S    
C4    H16   S    
C20   C21   A    
Ba2   O9    S    
O17   P8    S    
C37   P1    S    
C49   C50   A    
S1    O25   D    
C1    H12   S    
S3    O33   S    
O4    P4    D    
O3    P3    S    
O14   P7    D    
O24   P3    D    
C48   C49   A    
Ba2   O4    S    
C8    H25   S    
C6    H23   S    
C2    O21   S    
C3    O15   S    
C34   H43   S    
Ba1   O18   S    
C46   C52   A    
C38   C44   A    
C41   C42   A    
C22   C30   A    
O6    P8    S    
C27   C28   A    
Ba1   O8    S    
Ba2   O13   S    
C23   H42   S    
C16   C21   A    
O2    P2    S    
C41   P3    S    
C28   C29   A    
C11   H55   S    
S2    O30   S    
C15   C16   A    
C54   H5    S    
C12   H34   S    
S3    O31   D    
Ba1   O5    S    
C2    S1    S    
O9    P5    S    
C46   C47   A    
C43   C52   A    
C5    H20   S    
C7    O17   S    
C54   H4    S    
C52   H41   S    
C1    H8    S    
C40   C41   A    
O19   P6    D    
C4    H50   S    
C1    C2    S    
C34   O7    S    
O1    P1    D    
C50   C51   A    
C55   H6    S    
C56   H10   S    
S1    O26   D    
C55   O2    S    
Ba2   O8    S    
C26   S2    S    
O11   P5    S    
C23   S3    S    
O18   P6    S    
C50   P5    S    
Ba1   P1    S    
C12   H27   S    
C55   H7    S    
C28   H33   S    
C48   P7    S    
C31   H35   S    
C9    C10   A    
C35   P6    S    
C5    H19   S    
C23   H18   S    
C30   C31   A    
C5    O11   S    
C11   C13   A    
Ba1   O22   S    
C3    H13   S    
C42   H37   S    
O12   P1    S    
Ba2   O12   S    
C22   C24   A    
C55   C56   S    
C36   C37   A    
C47   C51   A    
Ba1   Ba2   S    
Ba2   O6    S    
C31   C33   A    
C4    H15   S    
O10   P5    D    
O27   H45   S    
O13   P2    S    
C45   H1    S    
O23   P3    S    
C56   H9    S    
C18   C19   A    
C33   H54   S    
C11   C14   A    
O7    P4    S    
C6    H22   S    
O30   H53   S    
O8    P7    S    
Ba1   O13   S    
C18   P8    S    
C25   C26   A    
