data_mof_unit_27975.cif
_audit_creation_date              2012-12-11T21:12:36-0500
_audit_creation_method            fapswitch 2.2
_symmetry_space_group_name_H-M    P1
_symmetry_Int_Tables_number       1
_space_group_crystal_system       triclinic
_cell_length_a                    8.201879
_cell_length_b                    18.814586
_cell_length_c                    26.967125
_cell_angle_alpha                 99.322099
_cell_angle_beta                  92.741286
_cell_angle_gamma                 88.317146
_cell_volume                      4100.78604576

loop_
_atom_site_label
_atom_site_type_symbol
_atom_type_description
_atom_site_fract_x
_atom_site_fract_y
_atom_site_fract_z
_atom_type_partial_charge
Ba1   Ba    Ba6+2 0.160810 0.465630 0.521640 1.641237
Ba2   Ba    Ba6+2 0.649380 0.534380 0.478400 1.649520
C1    C     C_3   0.402576 0.287858 0.701570 -0.325006
C2    C     C_R   0.065309 0.095799 0.448376 -0.091469
C3    C     C_R   0.203316 0.951775 0.455503 -0.102317
C4    C     C_3   0.952259 0.270851 0.625101 0.366628
C5    C     C_R   0.053546 0.976598 0.476635 0.018570
C6    C     C_R   0.259456 0.881207 0.454766 -0.093432
C7    C     C_R   0.169659 0.831727 0.475199 -0.030674
C8    C     C_R   0.023816 0.855737 0.499479 0.001791
C9    C     C_R   0.966112 0.928575 0.500633 0.022977
C10   C     C_R   0.221631 0.758893 0.472277 -0.010969
C11   C     C_R   0.125241 0.710424 0.491268 -0.294888
C12   C     C_3   0.419766 0.309418 0.650160 0.339338
C13   C     C_R   0.986464 0.733297 0.517846 0.041652
C14   C     C_R   0.936839 0.807168 0.523141 -0.038252
C15   C     C_R   0.846836 0.072210 0.500721 0.024706
C16   C     C_3   0.982561 0.197390 0.640878 -0.369799
C17   C     C_R   0.788666 0.144961 0.501670 -0.002359
C18   C     C_R   0.875142 0.193461 0.477836 -0.038951
C19   C     C_R   0.007666 0.166213 0.449160 -0.024263
C20   C     C_R   0.804008 0.834269 0.551680 -0.027149
C21   C     C_R   0.746964 0.904817 0.552713 -0.090200
C22   C     C_R   0.821596 0.952679 0.525784 0.012124
C23   C     C_3   0.470991 0.313963 0.398382 0.303596
C24   C     C_R   0.759331 0.024151 0.524664 0.018481
C25   C     C_R   0.609039 0.048798 0.545481 -0.102720
C26   C     C_R   0.642036 0.168767 0.525505 -0.034786
C27   C     C_R   0.552181 0.119176 0.545834 -0.091678
C28   C     C_3   0.841702 0.621013 0.631561 0.298049
C29   C     C_R   0.588792 0.241366 0.527792 -0.005391
C30   C     C_R   0.684270 0.289875 0.508532 -0.303998
C31   C     C_R   0.824692 0.267273 0.482812 0.046435
C32   C     C_R   0.294224 0.447735 0.174176 0.583029
C33   C     C_R   0.174884 0.565810 0.174883 0.580603
C34   C     C_3   0.476253 0.232632 0.382560 -0.399469
C35   C     C_2   0.027488 0.525876 0.268795 -0.060083
C36   C     C_3   0.991681 0.520262 0.322763 -0.002843
C37   C     C_1   0.278573 0.491209 0.336124 0.005281
C38   C     C_2   0.313493 0.493500 0.289066 -0.102547
C39   C     C_2   0.180657 0.510713 0.252167 0.197254
C40   C     C_3   0.843608 0.638002 0.688660 -0.359716
C41   C     C_R   0.299137 0.503835 0.098752 -0.079232
C42   C     C_R   0.338402 0.445215 0.124011 -0.027419
C43   C     C_R   0.422343 0.385273 0.098837 -0.072651
C44   C     C_R   0.215947 0.564396 0.124386 -0.029994
C45   C     C_3   0.863730 0.722621 0.377800 0.347793
C46   C     C_2   0.146876 0.524086 0.355448 -0.317987
C47   C     C_2   0.647845 0.471409 0.637269 -0.292836
C48   C     C_R   0.460742 0.436153 0.970798 0.020556
C49   C     C_R   0.355425 0.560802 0.972811 0.020285
C50   C     C_R   0.429774 0.497341 0.946618 0.048936
C51   C     C_R   0.527088 0.373110 0.942283 -0.103621
C52   C     C_3   0.976360 0.368862 0.365579 0.342983
C53   C     C_R   0.566625 0.371023 0.892597 -0.061277
C54   C     C_R   0.541790 0.431542 0.868813 -0.023142
C55   C     C_R   0.473444 0.494874 0.895621 -0.080762
C56   C     C_3   0.870046 0.797180 0.363207 -0.364568
C57   C     C_R   0.448822 0.555590 0.871438 -0.034611
C58   C     C_R   0.494255 0.552324 0.821055 0.596217
C59   C     C_R   0.582280 0.429128 0.818388 0.573629
C60   C     C_2   0.737419 0.451520 0.724492 -0.083742
C61   C     C_3   0.749760 0.426518 0.668925 -0.048159
C62   C     C_1   0.520182 0.509114 0.656458 0.034563
C63   C     C_2   0.480557 0.512443 0.704187 -0.105235
C64   C     C_3   0.948596 0.350027 0.308609 0.246192
C65   C     C_2   0.597938 0.484819 0.741800 0.189941
C66   C     C_R   0.423288 0.439452 0.022212 0.021862
C67   C     C_3   0.351059 0.696380 0.350255 0.294870
C68   C     C_R   0.342915 0.501780 0.047820 0.048465
C69   C     C_R   0.306017 0.562022 0.023090 0.020224
C70   C     C_R   0.464621 0.382443 0.049286 -0.100348
C71   C     C_R   0.175985 0.622460 0.099117 -0.062045
C72   C     C_R   0.334120 0.621121 0.947594 -0.100031
C73   C     C_R   0.380085 0.618491 0.898213 -0.061177
C74   C     C_R   0.219604 0.621406 0.049710 -0.100828
C75   C     C_3   0.333472 0.685892 0.592037 0.315949
C76   C     C_3   0.340026 0.767177 0.607954 -0.384253
C77   C     C_3   0.700450 0.314560 0.265401 0.300542
C78   C     C_3   0.381024 0.711133 0.297752 -0.349154
C79   C     C_3   0.739609 0.308812 0.209904 -0.208862
C80   C     C_3   0.649379 0.246455 0.177655 -0.489389
C81   C     C_R   0.991279 0.048081 0.475539 0.012201
H1    H     H_    0.350056 0.360782 0.649082 0.089354
H2    H     H_    0.405679 0.670762 0.557983 0.066083
H3    H     H_    0.279451 0.266224 0.704609 0.148309
H4    H     H_    0.264918 0.784062 0.641207 0.127682
H5    H     H_    0.292240 0.795155 0.576976 0.057655
H6    H     H_    0.468192 0.783409 0.617697 0.119500
H7    H     H_    0.550939 0.317160 0.645080 -0.051051
H8    H     H_    0.417866 0.336000 0.731023 0.124387
H9    H     H_    0.597277 0.332422 0.408141 0.035876
H10   H     H_    0.395922 0.326608 0.432021 0.061596
H11   H     H_    0.553169 0.217910 0.349492 0.119515
H12   H     H_    0.751754 0.681129 0.700709 0.135842
H13   H     H_    0.528769 0.206389 0.413912 0.062022
H14   H     H_    0.350797 0.212731 0.372659 0.115067
H15   H     H_    0.496559 0.245970 0.707917 0.115183
H16   H     H_    0.914372 0.155921 0.614533 0.074080
H17   H     H_    0.757174 0.721386 0.401410 0.113953
H18   H     H_    0.977186 0.712820 0.399793 -0.042906
H19   H     H_    0.876775 0.838598 0.397560 0.077501
H20   H     H_    0.979365 0.801007 0.341060 0.119454
H21   H     H_    0.758358 0.807820 0.340340 0.137699
H22   H     H_    0.219636 0.706416 0.357457 -0.017249
H23   H     H_    0.814451 0.589339 0.704451 0.070579
H24   H     H_    0.383602 0.638985 0.351401 0.071506
H25   H     H_    0.307560 0.674255 0.269686 0.129013
H26   H     H_    0.512249 0.702027 0.289716 0.147310
H27   H     H_    0.998389 0.268916 0.586812 0.078218
H28   H     H_    0.345306 0.767673 0.294596 0.118027
H29   H     H_    0.163551 0.654368 0.487535 0.069677
H30   H     H_    0.374451 0.866143 0.437635 0.112787
H31   H     H_    0.069965 0.198816 0.426891 0.094318
H32   H     H_    0.741106 0.801407 0.573617 0.095877
H33   H     H_    0.436229 0.133856 0.562412 0.114163
H34   H     H_    0.966620 0.656124 0.703638 0.132779
H35   H     H_    0.643899 0.345573 0.511232 0.075208
H36   H     H_    0.282675 0.986024 0.439742 0.071740
H37   H     H_    0.167354 0.080088 0.425043 0.058401
H38   H     H_    0.644721 0.920474 0.575974 0.060173
H39   H     H_    0.818021 0.281008 0.623854 -0.069854
H40   H     H_    0.529516 0.014476 0.561117 0.071991
H41   H     H_    0.437765 0.483002 0.277116 0.126759
H42   H     H_    0.456842 0.339935 0.117549 0.112770
H43   H     H_    0.829514 0.433065 0.750030 0.120856
H44   H     H_    0.617065 0.321117 0.872726 0.121681
H45   H     H_    0.108280 0.372247 0.374899 -0.049686
H46   H     H_    0.547345 0.323387 0.956778 0.067554
H47   H     H_    0.532794 0.334876 0.033693 0.065738
H48   H     H_    0.927212 0.535173 0.242698 0.104156
H49   H     H_    0.110290 0.669499 0.117583 0.120759
H50   H     H_    0.284466 0.672089 0.965214 0.068617
H51   H     H_    0.114480 0.182659 0.640115 0.147007
H52   H     H_    0.360735 0.666375 0.880927 0.121452
H53   H     H_    0.361793 0.533867 0.715986 0.131689
H54   H     H_    0.181040 0.667957 0.033225 0.068377
H55   H     H_    0.148051 0.549877 0.395103 0.073595
H56   H     H_    0.914877 0.421340 0.379334 0.043893
H57   H     H_    0.660590 0.459748 0.596886 0.086680
H58   H     H_    0.940079 0.198190 0.679463 0.120592
H59   H     H_    0.717392 0.605866 0.617118 0.012081
H60   H     H_    0.928138 0.575341 0.620647 0.080079
H61   H     H_    0.567683 0.327356 0.268730 0.118655
H62   H     H_    0.722036 0.262083 0.279349 0.023880
H63   H     H_    0.702554 0.360084 0.196291 0.141923
H64   H     H_    0.873348 0.300082 0.205648 0.117780
H65   H     H_    0.689746 0.194426 0.189467 0.133135
H66   H     H_    0.676744 0.244509 0.137548 0.139335
H67   H     H_    0.979683 0.291656 0.296491 0.020109
H68   H     H_    0.515214 0.253772 0.181331 0.163610
H69   H     H_    0.035822 0.379832 0.289883 -0.001829
H70   H     H_    0.205192 0.670468 0.583634 0.003457
N1    N     N_R   0.215652 0.508067 0.199458 -0.423515
N2    N     N_R   0.558650 0.489160 0.794621 -0.422076
O1    O     O_2   0.106080 0.324280 0.466820 -0.469735
O2    O     O_2   0.659528 0.562778 0.331985 -0.481358
O3    O     O_3   0.850344 0.670958 0.334102 -0.600247
O4    O     O_3   0.859130 0.413620 0.470620 -0.483292
O5    O     O_3   0.459240 0.537930 0.559910 -0.491230
O6    O     O_2   0.583120 0.462390 0.379940 -0.432424
O7    O     O_3   0.403041 0.346197 0.358469 -0.645539
O8    O     O_2   0.562369 0.756774 0.477955 -0.494466
O9    O     O_3   0.448207 0.741992 0.385282 -0.608059
O10   O     O_2   0.324338 0.395737 0.195246 -0.623891
O11   O     O_2   0.637368 0.372859 0.795484 -0.621000
O12   O     O_3   0.396842 0.652753 0.631769 -0.623818
O13   O     O_2   0.104496 0.618824 0.197106 -0.602942
O14   O     O_2   0.478176 0.606056 0.801018 -0.598239
O15   O     O_3   0.376230 0.370290 0.556910 -0.486865
O16   O     O_2   0.249445 0.243178 0.520177 -0.487505
O17   O     O_3   0.914072 0.313721 0.387313 -0.663596
O18   O     O_3   0.357584 0.254919 0.613013 -0.609607
O19   O     O_2   0.227190 0.537650 0.620070 -0.465477
O20   O     O_3   0.971110 0.406970 0.583250 -0.482859
O21   O     O_2   0.085389 0.463207 0.675270 -0.498420
O22   O     O_3   0.787139 0.371559 0.295035 -0.652864
O23   O     O_3   0.034243 0.323963 0.659418 -0.593015
O24   O     O_2   0.704230 0.675760 0.533200 -0.467865
O25   O     O_3   0.951180 0.586390 0.529420 -0.490142
O26   O     O_3   0.434080 0.629720 0.443130 -0.475789
O27   O     O_3   0.886968 0.682437 0.612994 -0.640020
O28   O     O_3   0.351080 0.462080 0.440130 -0.478354
O29   O     O_3   0.839200 0.593040 0.416790 -0.491716
P1    P     P_3+3 0.929380 0.335110 0.452880 0.973868
P2    P     P_3+3 0.398530 0.559060 0.613740 0.993723
P3    P     P_3+3 0.961664 0.408225 0.647690 0.945181
P4    P     P_3+3 0.880940 0.664900 0.547160 0.975026
P5    P     P_3+3 0.834028 0.585488 0.351169 0.987532
P6    P     P_3+3 0.393210 0.276994 0.553986 0.935799
P7    P     P_3+3 0.399935 0.439839 0.376973 0.970605
P8    P     P_3+3 0.416065 0.722759 0.445329 0.925823

loop_
_geom_bond_atom_site_label_1
_geom_bond_atom_site_label_2
_ccdc_geom_bond_type
C76   H4    S    
C5    C81   A    
C53   C54   A    
C23   H10   S    
C45   H18   S    
C25   C27   A    
C28   O27   S    
Ba1   O15   S    
C74   H54   S    
C67   O9    S    
O5    P2    S    
O6    P7    D    
C67   H22   S    
C79   C80   S    
Ba1   O28   S    
C77   H62   S    
Ba1   P2    S    
C5    C9    A    
C29   P6    S    
C24   C25   A    
C60   C61   S    
C49   C69   A    
C60   C65   D    
C3    H36   S    
C47   C61   S    
C58   O14   D    
C65   N2    S    
C26   C27   A    
C22   C24   A    
C64   H67   S    
C12   O18   S    
C69   C74   A    
O26   P8    S    
C73   H52   S    
C55   C57   A    
C13   C14   A    
C72   H50   S    
C9    C22   A    
C54   C55   A    
C1    H8    S    
C59   O11   D    
C12   H7    S    
O25   P4    S    
C75   H70   S    
Ba1   O20   S    
C52   H56   S    
C43   H42   S    
C6    C7    A    
C79   H64   S    
C78   H26   S    
C48   C50   A    
C21   C22   A    
C77   O22   S    
C34   H14   S    
C56   H19   S    
C12   H1    S    
C32   O10   D    
C7    C8    A    
O17   P1    S    
C36   C46   S    
C80   H68   S    
C51   C53   A    
C71   H49   S    
C75   H2    S    
C57   C58   A    
C47   C62   D    
C75   O12   S    
C4    O23   S    
C1    H3    S    
C4    H27   S    
Ba2   O25   S    
C4    C16   S    
C59   N2    Am   
Ba2   O6    S    
O7    P7    S    
C41   C44   A    
Ba2   P4    S    
C32   N1    Am   
C76   H6    S    
C67   H24   S    
C10   P8    S    
C64   O22   S    
Ba1   O19   S    
C48   C51   A    
C72   C73   A    
C40   H12   S    
C80   H66   S    
C52   O17   S    
Ba1   O4    S    
C32   C42   A    
C21   H38   S    
C8    C9    A    
O3    P5    S    
C37   C38   D    
C60   H43   S    
C25   H40   S    
Ba2   O4    S    
O27   P4    S    
O24   P4    D    
C63   C65   S    
C75   C76   S    
O12   P2    S    
C52   H45   S    
C45   H17   S    
C49   C50   A    
O16   P6    D    
C15   C81   A    
Ba2   O26   S    
Ba1   O1    S    
C41   C42   A    
C64   H69   S    
C35   C36   S    
C34   H11   S    
C37   P7    S    
C34   H13   S    
C29   C30   A    
C23   O7    S    
C66   C70   A    
C36   P5    S    
C33   O13   D    
C54   C59   A    
Ba2   O29   S    
C10   C11   A    
C38   H41   S    
C17   C26   A    
C40   H23   S    
C68   C69   A    
C1    C12   S    
C6    H30   S    
O23   P3    S    
Ba2   O5    S    
C38   C39   S    
C27   H33   S    
C53   H44   S    
C41   C68   A    
C61   P3    S    
C11   C13   A    
C71   C74   A    
C56   H21   S    
C16   H16   S    
C18   C31   A    
C15   C17   A    
C57   C73   A    
C42   C43   A    
O21   P3    D    
C3    C5    A    
C39   N1    S    
C76   H5    S    
O15   P6    S    
C20   H32   S    
C23   H9    S    
C14   C20   A    
O29   P5    S    
C26   C29   A    
O1    P1    D    
C30   H35   S    
C19   H31   S    
O28   P7    S    
C3    C6    A    
C80   H65   S    
C40   H34   S    
C70   H47   S    
C52   C64   S    
Ba1   P1    S    
C11   H29   S    
C13   P4    S    
C78   H25   S    
C77   C79   S    
C28   H59   S    
C77   H61   S    
C46   H55   S    
C33   N1    Am   
C62   C63   D    
O4    P1    S    
C17   C18   A    
C58   N2    Am   
C8    C14   A    
O19   P2    D    
C45   C56   S    
C2    C19   A    
C1    H15   S    
Ba1   O5    S    
C2    C81   A    
Ba1   Ba2   S    
C78   H28   S    
Ba1   O25   S    
C15   C24   A    
C16   H51   S    
C28   C40   S    
Ba2   O28   S    
C35   C39   D    
C30   C31   A    
C7    C10   A    
O2    P5    D    
C63   H53   S    
C50   C55   A    
C28   H60   S    
C23   C34   S    
O20   P3    S    
C35   H48   S    
C51   H46   S    
C18   C19   A    
C66   C68   A    
C79   H63   S    
Ba2   O24   S    
C47   H57   S    
C49   C72   A    
C4    H39   S    
C20   C21   A    
C2    H37   S    
C67   C78   S    
C31   P1    S    
C56   H20   S    
O9    P8    S    
C33   C44   A    
C48   C66   A    
C16   H58   S    
C44   C71   A    
C62   P2    S    
O18   P6    S    
O8    P8    D    
C37   C46   D    
C43   C70   A    
C45   O3    S    
