data_mof_unit_34795.cif
_audit_creation_date              2012-12-10T17:32:20-0500
_audit_creation_method            fapswitch 2.2
_symmetry_space_group_name_H-M    P1
_symmetry_Int_Tables_number       1
_space_group_crystal_system       triclinic
_cell_length_a                    12.343389
_cell_length_b                    13.149293
_cell_length_c                    15.031404
_cell_angle_alpha                 77.380997
_cell_angle_beta                  101.178464
_cell_angle_gamma                 116.648384
_cell_volume                      2114.97554628

loop_
_atom_site_label
_atom_site_type_symbol
_atom_type_description
_atom_site_fract_x
_atom_site_fract_y
_atom_site_fract_z
_atom_type_partial_charge
C1    C     C_R   0.855082 0.286523 0.506624 0.778539
C2    C     C_R   0.115616 0.565483 0.098697 0.056001
C3    C     C_R   0.781784 0.397541 0.031167 -0.020975
C4    C     C_R   0.782212 0.399448 0.938116 -0.233356
C5    C     C_R   0.891754 0.453038 0.898506 0.103113
C6    C     C_R   0.003610 0.506843 0.952152 0.059446
C7    C     C_R   0.114671 0.559568 0.912092 0.061329
C8    C     C_R   0.225449 0.615579 0.965621 -0.032033
C9    C     C_R   0.224968 0.619060 0.057522 -0.231692
C10   C     C_R   0.890906 0.453056 0.805698 -0.214330
C11   C     C_R   0.000489 0.502558 0.766831 -0.060371
C12   C     C_R   0.999606 0.500039 0.670792 0.804376
C13   C     C_R   0.111560 0.554802 0.819404 -0.222841
C14   C     C_R   0.276030 0.021987 0.377601 -0.177807
C15   C     C_R   0.228611 0.836237 0.471885 -0.091071
C16   C     C_R   0.818152 0.081297 0.549793 -0.226372
C17   C     C_R   0.740973 0.964238 0.557340 0.028724
C18   C     C_R   0.616674 0.928495 0.529084 -0.196500
C19   C     C_R   0.568024 0.009511 0.490857 0.060705
C20   C     C_R   0.650363 0.125547 0.466972 0.081501
C21   C     C_R   0.440528 0.977554 0.469466 0.042039
C22   C     C_R   0.400353 0.054389 0.406121 0.148896
C23   C     C_R   0.145133 0.713725 0.488332 0.817908
C24   C     C_R   0.484723 0.162698 0.371388 -0.209170
C25   C     C_R   0.607726 0.198508 0.402104 -0.183458
C26   C     C_R   0.351134 0.873551 0.510046 -0.082208
C27   C     C_R   0.191143 0.912452 0.408296 -0.179226
C28   C     C_R   0.773793 0.163297 0.505969 -0.118179
C29   C     C_R   0.344348 0.326190 0.648206 -0.108011
C30   C     C_R   0.756755 0.646331 0.375324 0.168172
C31   C     C_R   0.661847 0.680310 0.352901 -0.271845
C32   C     C_R   0.561660 0.626606 0.401981 -0.205931
C33   C     C_R   0.553103 0.536084 0.474213 0.008839
C34   C     C_R   0.001849 0.502377 0.328993 0.815615
C35   C     C_R   0.653985 0.505572 0.497132 0.285946
C36   C     C_R   0.448317 0.475488 0.524435 -0.039487
C37   C     C_R   0.446918 0.386806 0.598270 0.122843
C38   C     C_R   0.547676 0.360334 0.620683 -0.269946
C39   C     C_R   0.647939 0.417976 0.571437 -0.173075
C40   C     C_R   0.343520 0.498522 0.503791 0.023266
C41   C     C_R   0.245020 0.354010 0.623872 0.038657
C42   C     C_R   0.115064 0.568351 0.191689 -0.052831
C43   C     C_R   0.005194 0.507126 0.231873 -0.098075
C44   C     C_R   0.895568 0.451143 0.179164 -0.241468
C45   C     C_R   0.892799 0.451865 0.085636 0.061732
C46   C     C_R   0.004078 0.507793 0.045632 0.038445
Cu1   Cu    Cu3+1 0.098270 0.475420 0.521130 0.959960
Cu2   Cu    Cu3+1 0.901730 0.524580 0.478870 0.949066
H1    H     H_    0.455352 0.220832 0.321207 0.156845
H2    H     H_    0.244888 0.079911 0.328819 0.146735
H3    H     H_    0.559979 0.837009 0.533394 0.148824
H4    H     H_    0.668906 0.281738 0.370350 0.173574
H5    H     H_    0.165720 0.308399 0.661270 0.133739
H6    H     H_    0.812385 0.406488 0.212202 0.151888
H7    H     H_    0.718991 0.390529 0.594592 0.200218
H8    H     H_    0.194920 0.593473 0.786832 0.172413
H9    H     H_    0.096582 0.886854 0.380984 0.176752
N1    N     N_R   0.246280 0.438190 0.553160 -0.190189
N2    N     N_R   0.754320 0.561190 0.447410 -0.228738
O1    O     O_R   0.972510 0.318130 0.526570 -0.581278
O2    O     O_R   0.806530 0.359650 0.490890 -0.613299
O3    O     O_R   0.082980 0.479210 0.647590 -0.578642
O4    O     O_R   0.917000 0.520730 0.611900 -0.591061
O5    O     O_R   0.193470 0.640350 0.509110 -0.573552
O6    O     O_R   0.027490 0.681870 0.473430 -0.579309
O7    O     O_R   0.083000 0.479270 0.388100 -0.579480
O8    O     O_R   0.917020 0.520790 0.352410 -0.585277
C47   C     C_1   0.223866 0.641299 0.243986 0.237828
N3    N     N_1   0.310183 0.700632 0.285255 -0.319335
C48   C     C_1   0.378865 0.813629 0.598417 0.241832
N4    N     N_1   0.400444 0.765746 0.668922 -0.257799
H10   H     H_    0.913087 0.108158 0.577566 0.161779
C49   C     C_1   0.788836 0.880296 0.595953 0.247785
N5    N     N_1   0.827139 0.812735 0.626795 -0.260040
H11   H     H_    0.549920 0.293658 0.676935 0.161629
C50   C     C_1   0.337943 0.235346 0.724153 0.212861
N6    N     N_1   0.332782 0.162635 0.784945 -0.258595
H12   H     H_    0.336248 0.563414 0.448656 0.145392
C51   C     C_1   0.855334 0.702731 0.318818 0.295166
N7    N     N_1   0.933148 0.748217 0.271925 -0.303262
H13   H     H_    0.492652 0.658267 0.381680 0.169816
H14   H     H_    0.665047 0.748736 0.296582 0.159772
C52   C     C_1   0.665797 0.339601 0.068549 0.244388
N8    N     N_1   0.573017 0.293225 0.098498 -0.277548
H15   H     H_    0.696725 0.358158 0.896473 0.156944
H16   H     H_    0.805375 0.412199 0.764080 0.135352
C53   C     C_1   0.341426 0.671040 0.928288 0.250818
N9    N     N_1   0.434309 0.715437 0.898552 -0.242398
H17   H     H_    0.311418 0.662786 0.097029 0.162595

loop_
_geom_bond_atom_site_label_1
_geom_bond_atom_site_label_2
_ccdc_geom_bond_type
C16   C28   A    
C42   C47   S    
C53   N9    T    
C49   N5    T    
C19   C20   A    
C16   H10   S    
C21   C26   A    
C34   O7    A    
Cu1   O3    S    
C7    C8    A    
C29   C50   S    
C14   H2    S    
C45   C46   A    
C2    C46   A    
C32   H13   S    
C31   H14   S    
C52   N8    T    
C36   C37   A    
C19   C21   A    
C41   N1    A    
C5    C6    A    
C20   C25   A    
C33   C36   A    
C35   N2    A    
C18   C19   A    
Cu1   O1    S    
C47   N3    T    
C39   H7    S    
C31   C32   A    
C8    C9    A    
C1    C28   S    
C48   N4    T    
Cu2   O6    S    
Cu1   O7    S    
C13   H8    S    
C15   C23   S    
C21   C22   A    
C17   C49   S    
C18   H3    S    
C38   H11   S    
C38   C39   A    
C40   N1    A    
C36   C40   A    
C24   C25   A    
C27   H9    S    
C1    O1    A    
C9    H17   S    
Cu1   O5    S    
C12   O4    A    
C16   C17   A    
C15   C26   A    
C4    H15   S    
C20   C28   A    
C3    C45   A    
C35   C39   A    
C43   C44   A    
C37   C38   A    
C12   O3    A    
C15   C27   A    
Cu1   Cu2   S    
C30   N2    A    
C17   C18   A    
C50   N6    T    
C41   H5    S    
C30   C51   S    
C23   O5    A    
C3    C52   S    
C14   C27   A    
C22   C24   A    
C42   C43   A    
C3    C4    A    
C44   C45   A    
Cu2   N2    S    
C24   H1    S    
C10   H16   S    
C6    C46   A    
C29   C41   A    
C34   C43   S    
C4    C5    A    
Cu2   O4    S    
C1    O2    A    
C34   O8    A    
C11   C12   S    
C6    C7    A    
C8    C53   S    
C32   C33   A    
C14   C22   A    
C25   H4    S    
C5    C10   A    
Cu1   N1    S    
C11   C13   A    
C23   O6    A    
Cu2   O2    S    
C30   C31   A    
C2    C42   A    
C26   C48   S    
C33   C35   A    
C40   H12   S    
Cu2   O8    S    
C10   C11   A    
C51   N7    T    
C44   H6    S    
C7    C13   A    
C29   C37   A    
C2    C9    A    
