data_mof_unit_28405.cif
_audit_creation_date              2012-10-26T20:59:00-0400
_audit_creation_method            fapswitch 2.2
_symmetry_space_group_name_H-M    P1
_symmetry_Int_Tables_number       1
_space_group_crystal_system       triclinic
_cell_length_a                    27.818642
_cell_length_b                    10.625192
_cell_length_c                    9.400217
_cell_angle_alpha                 89.512568
_cell_angle_beta                  89.748733
_cell_angle_gamma                 90.611505
_cell_volume                      2778.21459409

loop_
_atom_site_label
_atom_site_type_symbol
_atom_type_description
_atom_site_fract_x
_atom_site_fract_y
_atom_site_fract_z
_atom_type_partial_charge
C1    C     C_R   0.500829 0.259283 0.500424 0.559780
C2    C     C_R   0.874665 0.420784 0.533235 0.023550
C3    C     C_R   0.355366 0.513418 0.500457 -0.020325
C4    C     C_R   0.646061 0.510227 0.498847 -0.040331
C5    C     C_R   0.976069 0.432647 0.554370 0.016272
C6    C     C_R   0.026846 0.636398 0.423869 0.016377
C7    C     C_R   0.975855 0.638339 0.431079 0.016433
C8    C     C_R   0.026574 0.442824 0.570323 0.016153
C9    C     C_R   0.950742 0.533406 0.490630 0.034271
C10   C     C_R   0.051935 0.541210 0.498708 0.033512
C11   C     C_R   0.949954 0.324258 0.598405 -0.146380
C12   C     C_R   0.501222 0.740573 0.499348 0.537001
C13   C     C_R   0.053774 0.725467 0.343184 -0.144363
C14   C     C_R   0.900215 0.317989 0.586099 -0.115441
C15   C     C_R   0.103803 0.722461 0.339484 -0.113711
C16   C     C_R   0.407778 0.502086 0.500329 0.593376
C17   C     C_R   0.592675 0.502371 0.499966 0.559697
C18   C     C_R   0.052678 0.358625 0.656849 -0.145259
C19   C     C_R   0.948940 0.742004 0.382042 -0.144054
C20   C     C_3   0.503815 0.038983 0.634725 -0.118044
C21   C     C_3   0.501207 0.960437 0.363789 -0.117562
C22   C     C_3   0.542718 0.958499 0.562247 -0.124250
C23   C     C_R   0.102897 0.543962 0.501561 -0.032436
C24   C     C_3   0.462277 0.040613 0.436153 -0.125777
C25   C     C_3   0.502611 0.877393 0.497901 0.046966
C26   C     C_3   0.502146 0.122196 0.500816 0.044856
C27   C     C_3   0.463871 0.955493 0.570188 -0.136446
C28   C     C_3   0.541195 0.044224 0.428353 -0.126232
C29   C     C_3   0.486001 0.607278 0.049555 -0.012046
C30   C     C_3   0.513995 0.392701 0.950359 -0.015019
C31   C     C_3   0.457404 0.520903 0.949791 -0.002135
C32   C     C_3   0.542592 0.479062 0.050114 -0.009241
C33   C     C_3   0.528627 0.586294 0.948097 -0.012160
C34   C     C_R   0.899790 0.529293 0.486951 -0.031236
C35   C     C_3   0.471367 0.413644 0.051791 -0.003549
C36   C     C_R   0.178308 0.462804 0.589486 0.443264
C37   C     C_R   0.823447 0.630310 0.442774 0.437448
C38   C     C_R   0.179305 0.628278 0.416427 0.382519
C39   C     C_R   0.824337 0.417419 0.525266 0.377040
C40   C     C_R   0.283704 0.640691 0.519831 -0.066557
C41   C     C_R   0.723824 0.485616 0.613267 -0.072500
C42   C     C_R   0.333760 0.631607 0.519952 0.008673
C43   C     C_R   0.673841 0.477455 0.620048 0.015975
C44   C     C_R   0.326488 0.405842 0.481405 0.220058
C45   C     C_R   0.127985 0.457448 0.586572 0.019541
C46   C     C_R   0.670284 0.552976 0.374132 0.212415
C47   C     C_R   0.276658 0.418531 0.463904 0.297351
C48   C     C_R   0.720622 0.548439 0.365252 0.306666
C49   C     C_R   0.254792 0.534874 0.492156 0.152132
C50   C     C_R   0.747658 0.519081 0.486934 0.155302
C51   C     C_3   0.335253 0.234487 0.622985 0.017018
C52   C     C_3   0.366603 0.121439 0.650941 -0.385326
C53   C     C_3   0.640308 0.730629 0.275558 0.026512
C54   C     C_3   0.607484 0.781965 0.160551 -0.374844
C55   C     C_3   0.240683 0.313204 0.284241 0.000100
C56   C     C_R   0.873919 0.633909 0.437876 0.015462
C57   C     C_3   0.208440 0.201557 0.248470 -0.354369
C58   C     C_3   0.749440 0.470539 0.158552 0.007259
C59   C     C_3   0.775466 0.504109 0.020583 -0.353210
C60   C     C_R   0.102438 0.367173 0.666297 -0.117333
C61   C     C_R   0.898917 0.740357 0.387513 -0.116535
C62   C     C_R   0.128814 0.632954 0.419280 0.024940
Cu1   Cu    Cu3+1 0.500010 0.499990 0.643150 0.909704
Cu2   Cu    Cu3+1 0.499990 0.500010 0.356850 0.944927
H1    H     H_    0.504743 0.073595 0.745801 0.108462
H2    H     H_    0.447295 0.341114 0.100553 0.110562
H3    H     H_    0.120887 0.300682 0.734270 0.161091
H4    H     H_    0.879880 0.822689 0.350417 0.165842
H5    H     H_    0.744540 0.463507 0.707297 0.167629
H6    H     H_    0.267221 0.730331 0.542155 0.182233
H7    H     H_    0.881795 0.232624 0.620543 0.166545
H8    H     H_    0.122829 0.791399 0.274275 0.161579
H9    H     H_    0.967287 0.240906 0.638442 0.110382
H10   H     H_    0.037002 0.795851 0.277276 0.109799
H11   H     H_    0.035337 0.287459 0.722199 0.110700
H12   H     H_    0.500240 0.925575 0.252811 0.106859
H13   H     H_    0.965705 0.827787 0.343554 0.110350
H14   H     H_    0.575624 0.921443 0.613399 0.104686
H15   H     H_    0.429488 0.077130 0.383876 0.138145
H16   H     H_    0.297091 0.202258 0.625977 0.204080
H17   H     H_    0.341545 0.302372 0.711265 0.122958
H18   H     H_    0.404693 0.152760 0.656913 0.161196
H19   H     H_    0.356317 0.076436 0.753847 0.103199
H20   H     H_    0.361959 0.051727 0.564624 0.177360
H21   H     H_    0.676007 0.778331 0.265004 0.179213
H22   H     H_    0.624124 0.754213 0.380717 0.112184
H23   H     H_    0.432809 0.915845 0.630270 0.114974
H24   H     H_    0.570951 0.740414 0.173074 0.167708
H25   H     H_    0.604962 0.885800 0.169994 0.089475
H26   H     H_    0.621912 0.758778 0.053699 0.151302
H27   H     H_    0.275174 0.303760 0.224731 0.144104
H28   H     H_    0.222250 0.400579 0.248754 0.147479
H29   H     H_    0.173519 0.209367 0.305303 0.163657
H30   H     H_    0.201710 0.199721 0.132157 0.110268
H31   H     H_    0.225996 0.112453 0.280796 0.179895
H32   H     H_    0.713982 0.427385 0.131483 0.153648
H33   H     H_    0.771506 0.400500 0.217459 0.142879
H34   H     H_    0.572866 0.083612 0.370374 0.109087
H35   H     H_    0.811166 0.546683 0.044120 0.167320
H36   H     H_    0.780718 0.417928 0.956596 0.111525
H37   H     H_    0.753960 0.572277 0.957983 0.170689
H38   H     H_    0.633180 0.507409 0.796511 0.253372
H39   H     H_    0.630554 0.356906 0.732215 0.251936
H40   H     H_    0.382463 0.728265 0.635486 0.235861
H41   H     H_    0.385325 0.756058 0.457805 0.237658
H42   H     H_    0.421524 0.538815 0.903065 0.109040
H43   H     H_    0.578490 0.460964 0.096512 0.153821
H44   H     H_    0.474163 0.697579 0.096002 0.097596
H45   H     H_    0.525938 0.302529 0.903828 0.099854
H46   H     H_    0.552657 0.658699 0.898966 0.097650
N1    N     N_R   0.203123 0.543201 0.500134 -0.384266
N2    N     N_R   0.799525 0.522130 0.483300 -0.386931
N3    N     N_3   0.500040 0.499970 0.858290 -0.228244
N4    N     N_3   0.499960 0.500030 0.141710 -0.232754
N5    N     N_3   0.652917 0.434519 0.751614 -0.630030
N6    N     N_3   0.361915 0.742897 0.544111 -0.642233
O1    O     O_R   0.500020 0.316850 0.620870 -0.510605
O2    O     O_2   0.798589 0.734779 0.409405 -0.468875
O3    O     O_2   0.800382 0.310083 0.559193 -0.512699
O4    O     O_2   0.204239 0.706705 0.329095 -0.517971
O5    O     O_3   0.346803 0.287742 0.488230 -0.554801
O6    O     O_3   0.644978 0.599198 0.259015 -0.544349
O7    O     O_3   0.248965 0.313833 0.432138 -0.522470
O8    O     O_3   0.743336 0.580794 0.238927 -0.506393
O9    O     O_R   0.499980 0.683150 0.379130 -0.520063
O10   O     O_R   0.500000 0.316860 0.379090 -0.499906
O11   O     O_R   0.500000 0.683140 0.620910 -0.507685
O12   O     O_R   0.430270 0.500020 0.620880 -0.506885
O13   O     O_R   0.569730 0.499980 0.379120 -0.457259
O14   O     O_R   0.430250 0.500030 0.379090 -0.487771
O15   O     O_R   0.569750 0.499970 0.620910 -0.517936
O16   O     O_2   0.202311 0.387761 0.680787 -0.491612

loop_
_geom_bond_atom_site_label_1
_geom_bond_atom_site_label_2
_ccdc_geom_bond_type
C54   H24   S    
C29   N4    S    
C45   C60   A    
C34   C56   A    
C18   H11   S    
C23   C45   A    
C17   O15   A    
C59   H35   S    
C14   H7    S    
H41   N6    S    
C24   C27   S    
C47   C49   A    
C12   O11   A    
C4    C46   A    
C53   C54   S    
C15   H8    S    
C21   H12   S    
C40   H6    S    
C30   C35   S    
C24   C26   S    
C54   H26   S    
C53   O6    S    
C36   O16   S    
Cu1   O1    S    
C11   C14   A    
C28   H34   S    
C40   C49   A    
C29   C33   S    
C44   O5    S    
C3    C42   A    
C35   N4    S    
C52   H20   S    
C19   H13   S    
C58   H32   S    
C51   H16   S    
C37   N2    A    
C55   H27   S    
H38   N5    S    
C43   N5    S    
H40   N6    S    
C37   C56   A    
C2    C39   A    
C23   C62   A    
C37   O2    S    
C60   H3    S    
C22   C25   S    
C29   H44   S    
C53   H22   S    
C52   H18   S    
Cu1   O15   S    
C16   O14   A    
C51   H17   S    
Cu1   O12   S    
C44   C47   A    
C49   N1    S    
C38   O4    S    
C33   N3    S    
C2    C34   A    
C40   C42   A    
C57   H29   S    
C59   H36   S    
C41   C43   A    
C58   H33   S    
C22   C28   S    
C46   C48   A    
C55   O7    S    
C3    C44   A    
Cu2   N4    S    
C30   H45   S    
C17   O13   A    
C51   C52   S    
C59   H37   S    
C20   H1    S    
C1    O10   A    
C22   H14   S    
C54   H25   S    
C11   H9    S    
C12   O9    A    
C35   H2    S    
C58   C59   S    
C32   H43   S    
C8    C18   A    
C52   H19   S    
H39   N5    S    
C5    C9    A    
C55   H28   S    
C24   H15   S    
C47   O7    S    
C36   N1    A    
C50   N2    S    
C36   C45   A    
C1    O1    A    
Cu2   O13   S    
C27   H23   S    
C16   O12   A    
C4    C17   S    
C18   C60   A    
C39   N2    A    
C4    C43   A    
C21   C28   S    
C20   C22   S    
Cu2   O10   S    
C57   H30   S    
C55   C57   S    
C9    C34   A    
C51   O5    S    
C31   H42   S    
C31   C35   S    
C41   C50   A    
C41   H5    S    
C42   N6    S    
C7    C9    A    
C21   C25   S    
C58   O8    S    
Cu2   O14   S    
C48   O8    S    
C5    C8    A    
C5    C11   A    
C6    C7    A    
C20   C27   S    
C10   C23   A    
C25   C27   S    
C26   C28   S    
C12   C25   S    
C32   C33   S    
C13   C15   A    
C29   C31   S    
C6    C13   A    
C30   C32   S    
C61   H4    S    
C1    C26   S    
C20   C26   S    
C19   C61   A    
C7    C19   A    
C39   O3    S    
C48   C50   A    
C15   C62   A    
C2    C14   A    
C6    C10   A    
Cu1   Cu2   S    
Cu1   N3    S    
C13   H10   S    
C8    C10   A    
Cu2   O9    S    
C57   H31   S    
C21   C24   S    
C56   C61   A    
C46   O6    S    
C53   H21   S    
C33   H46   S    
C32   N4    S    
C38   N1    A    
C31   N3    S    
Cu1   O11   S    
C3    C16   S    
C38   C62   A    
C30   N3    S    
