data_mof_unit_15385.cif
_audit_creation_date              2012-10-26T19:57:52-0400
_audit_creation_method            fapswitch 2.2
_symmetry_space_group_name_H-M    P1
_symmetry_Int_Tables_number       1
_space_group_crystal_system       triclinic
_cell_length_a                    7.469354
_cell_length_b                    8.751885
_cell_length_c                    13.131403
_cell_angle_alpha                 86.974992
_cell_angle_beta                  80.120971
_cell_angle_gamma                 102.140069
_cell_volume                      823.245368179

loop_
_atom_site_label
_atom_site_type_symbol
_atom_type_description
_atom_site_fract_x
_atom_site_fract_y
_atom_site_fract_z
_atom_type_partial_charge
Br1   Br    Br    0.135308 0.414919 0.218437 -0.378032
Br2   Br    Br    0.864690 0.585070 0.781566 -0.378034
Br3   Br    Br    0.893640 0.757580 0.183206 -0.364546
Br4   Br    Br    0.106360 0.242417 0.816793 -0.364545
Br5   Br    Br    0.216638 0.930415 0.624689 -0.341585
Br6   Br    Br    0.783361 0.069585 0.375311 -0.341584
C1    C     C_R   0.454375 0.200460 0.504649 0.584917
C2    C     C_R   0.701550 0.627598 0.123490 0.123110
C3    C     C_R   0.610123 0.538670 0.860090 0.126941
C4    C     C_R   0.389874 0.461327 0.139910 0.126942
C5    C     C_R   0.582371 0.546530 0.968534 -0.024772
C6    C     C_R   0.417626 0.453468 0.031466 -0.024771
C7    C     C_2   0.432355 0.034556 0.521915 0.127314
C8    C     C_2   0.567645 0.965444 0.478085 0.127314
C9    C     C_1   0.150166 0.222099 0.041006 0.343427
C10   C     C_1   0.849826 0.777902 0.958993 0.343425
C11   C     C_1   0.911849 0.333209 0.593577 0.534967
C12   C     C_R   0.545625 0.799540 0.495350 0.584917
C13   C     C_1   0.088150 0.666790 0.406422 0.534965
C14   C     C_R   0.468735 0.489819 0.701071 0.588927
C15   C     C_R   0.531265 0.510180 0.298928 0.588927
C16   C     C_R   0.542636 0.529701 0.185961 0.027752
C17   C     C_R   0.457363 0.470297 0.814039 0.027753
C18   C     C_R   0.286231 0.354707 0.983815 0.008140
C19   C     C_R   0.713765 0.645292 0.016184 0.008141
C20   C     C_R   0.298448 0.372400 0.876510 0.123111
Cu1   Cu    Cu3+1 0.686350 0.517570 0.488220 1.133860
Cu2   Cu    Cu3+1 0.313650 0.482430 0.511780 1.133860
N1    N     N_2   0.033570 0.455950 0.529530 -0.194478
N2    N     N_2   0.966430 0.544050 0.470470 -0.194478
N3    N     N_1   0.040785 0.116048 0.086172 -0.128699
N4    N     N_1   0.959202 0.883954 0.913826 -0.128699
N5    N     N_1   0.812298 0.230142 0.647733 -0.219191
N6    N     N_1   0.187702 0.769856 0.352265 -0.219192
O1    O     O_R   0.621060 0.286250 0.492350 -0.516253
O2    O     O_R   0.378940 0.713750 0.507650 -0.516253
O3    O     O_R   0.306310 0.256580 0.512240 -0.474722
O4    O     O_R   0.693690 0.743420 0.487760 -0.474722
O5    O     O_R   0.631800 0.512400 0.642670 -0.498854
O6    O     O_R   0.368200 0.487600 0.357330 -0.498854
O7    O     O_R   0.317060 0.482730 0.662570 -0.458225
O8    O     O_R   0.682940 0.517270 0.337430 -0.458225

loop_
_geom_bond_atom_site_label_1
_geom_bond_atom_site_label_2
_ccdc_geom_bond_type
Br4   C20   S    
C5    C6    A    
C9    N3    T    
N1    N2    D    
C10   C19   S    
C6    C18   A    
Br6   C8    S    
C11   N1    S    
C8    C12   S    
Br5   C7    S    
C14   C17   S    
C14   O7    A    
C1    O3    A    
C7    C8    D    
C4    C16   A    
Cu1   N2    S    
C2    C19   A    
C3    C5    A    
Cu1   O8    S    
C13   N2    S    
C15   O6    A    
C11   N5    T    
Cu2   O3    S    
C4    C6    A    
C1    O1    A    
C9    C18   S    
C18   C20   A    
C12   O4    A    
C10   N4    T    
Cu2   O6    S    
Cu1   O4    S    
C15   O8    A    
Cu2   O7    S    
C1    C7    S    
Cu2   O2    S    
Br3   C2    S    
C17   C20   A    
Cu1   Cu2   S    
C14   O5    A    
C5    C19   A    
Cu2   N1    S    
Cu1   O1    S    
C15   C16   S    
Br2   C3    S    
C12   O2    A    
C2    C16   A    
C3    C17   A    
Br1   C4    S    
Cu1   O5    S    
C13   N6    T    
