data_mof_unit_11131.cif
_audit_creation_date              2012-12-10T21:34:45-0500
_audit_creation_method            fapswitch 2.2
_symmetry_space_group_name_H-M    P1
_symmetry_Int_Tables_number       1
_space_group_crystal_system       triclinic
_cell_length_a                    11.112313
_cell_length_b                    16.197239
_cell_length_c                    16.493295
_cell_angle_alpha                 87.842104
_cell_angle_beta                  92.258094
_cell_angle_gamma                 90.603426
_cell_volume                      2964.07778536

loop_
_atom_site_label
_atom_site_type_symbol
_atom_type_description
_atom_site_fract_x
_atom_site_fract_y
_atom_site_fract_z
_atom_type_partial_charge
C1    C     C_R   0.477813 0.490259 0.651779 0.967502
C2    C     C_R   0.409984 0.412699 0.781425 0.108581
C3    C     C_R   0.576213 0.448973 0.129759 -0.047425
C4    C     C_R   0.742300 0.499469 0.497106 0.925250
C5    C     C_R   0.575110 0.442343 0.215459 0.141874
C6    C     C_R   0.558569 0.526424 0.090252 0.141492
C7    C     C_R   0.553957 0.515285 0.259865 -0.121513
C8    C     C_R   0.575328 0.593529 0.219216 0.054660
C9    C     C_R   0.569315 0.599034 0.133514 -0.023039
C10   C     C_R   0.459273 0.765608 0.448946 0.256620
C11   C     C_R   0.477741 0.852520 0.443684 0.075916
C12   C     C_3   0.120721 0.503409 0.499016 -0.315439
C13   C     C_R   0.536080 0.892513 0.508848 0.254247
C14   C     C_R   0.594584 0.843213 0.570317 0.047168
C15   C     C_R   0.587482 0.755185 0.568036 0.204636
C16   C     C_R   0.517016 0.510212 0.346836 0.895719
C17   C     C_R   0.518765 0.147787 0.558297 -0.107442
C18   C     C_R   0.540078 0.234490 0.551479 0.140699
C19   C     C_R   0.460686 0.107530 0.493368 0.274759
C20   C     C_R   0.413795 0.244100 0.432250 0.093784
C21   C     C_R   0.404902 0.156330 0.430862 0.011636
C22   C     C_R   0.257588 0.501580 0.500321 0.760844
C23   C     C_3   0.067966 0.501225 0.403952 0.182041
C24   C     C_3   0.931128 0.427723 0.557967 -0.188664
C25   C     C_3   0.075065 0.421640 0.550663 -0.187820
C26   C     C_3   0.922742 0.488470 0.403219 0.377754
C27   C     C_3   0.930030 0.587470 0.526401 -0.011508
C28   C     C_3   0.879215 0.499657 0.494271 -0.155068
C29   C     C_2   0.878303 0.340291 0.549060 0.435518
C30   C     C_2   0.131199 0.667789 0.516766 0.447170
C31   C     C_3   0.855956 0.549304 0.340920 -0.822500
C32   C     C_3   0.106116 0.579782 0.352894 -0.900288
C33   C     C_3   0.612430 0.359780 0.255177 -0.685501
C34   C     C_3   0.071655 0.585299 0.542535 -0.040221
C35   C     C_2   0.601571 0.377686 0.078078 0.420704
C36   C     C_3   0.394426 0.334752 0.917954 -0.784362
C37   C     C_3   0.384376 0.330320 0.742905 -0.752334
C38   C     C_3   0.624628 0.668605 0.262702 -0.898971
C39   C     C_3   0.371672 0.644193 0.901606 -0.762920
C40   C     C_2   0.574563 0.680873 0.089078 0.418621
C41   C     C_2   0.891567 0.449790 0.643469 0.487066
C42   C     C_3   0.373075 0.644925 0.726875 -0.779139
C43   C     C_3   0.624857 0.270654 0.613657 -0.752947
C44   C     C_2   0.547730 0.101187 0.636150 0.416120
C45   C     C_R   0.430988 0.488354 0.736170 -0.190282
C46   C     C_3   0.668270 0.883942 0.637519 -0.768296
C47   C     C_3   0.662716 0.706081 0.630948 -0.745412
C48   C     C_2   0.333928 0.291247 0.375693 0.490130
C49   C     C_3   0.441292 0.901599 0.366695 -0.859891
C50   C     C_3   0.334496 0.112906 0.363931 -0.846216
C51   C     C_3   0.372941 0.729452 0.387369 -0.831488
C52   C     C_2   0.139597 0.411504 0.634876 0.463920
C53   C     C_2   0.112319 0.340597 0.510475 0.536250
C54   C     C_3   0.877074 0.403796 0.369997 -0.868288
C55   C     C_2   0.132681 0.437827 0.354749 0.355408
C56   C     C_R   0.402932 0.564223 0.773830 0.095649
C57   C     C_3   0.885118 0.671915 0.484573 -0.781353
C58   C     C_2   0.103574 0.584222 0.633610 0.348050
C59   C     C_R   0.396316 0.564715 0.859108 0.163278
C60   C     C_R   0.411429 0.490364 0.904777 0.224034
C61   C     C_R   0.404303 0.414395 0.866828 0.114624
H1    H     H_    0.887242 0.592487 0.585495 0.200743
H2    H     H_    0.622102 0.357057 0.321325 0.229177
H3    H     H_    0.547561 0.310495 0.238571 0.312702
H4    H     H_    0.701737 0.342710 0.233351 0.210323
H5    H     H_    0.644811 0.389011 0.020768 0.094862
H6    H     H_    0.386382 0.345161 0.983489 0.270288
H7    H     H_    0.312253 0.299663 0.899558 0.248054
H8    H     H_    0.475094 0.296253 0.910754 0.249873
H9    H     H_    0.374550 0.331601 0.676301 0.273128
H10   H     H_    0.453282 0.284832 0.764246 0.226551
H11   H     H_    0.296153 0.306168 0.762672 0.273137
H12   H     H_    0.815480 0.323285 0.501154 0.086168
H13   H     H_    0.646763 0.658829 0.327999 0.271272
H14   H     H_    0.711331 0.687477 0.235916 0.237511
H15   H     H_    0.563047 0.721430 0.253749 0.224227
H16   H     H_    0.365469 0.635359 0.968250 0.247708
H17   H     H_    0.444006 0.690257 0.889460 0.267323
H18   H     H_    0.283443 0.669836 0.880185 0.232386
H19   H     H_    0.545465 0.736289 0.117162 0.069139
H20   H     H_    0.953342 0.473982 0.688845 0.136714
H21   H     H_    0.358832 0.641007 0.660695 0.257810
H22   H     H_    0.285474 0.668306 0.745724 0.254501
H23   H     H_    0.183657 0.674168 0.464587 0.091251
H24   H     H_    0.442586 0.692415 0.740176 0.239019
H25   H     H_    0.651214 0.333810 0.598618 0.320074
H26   H     H_    0.586026 0.267788 0.674001 0.221626
H27   H     H_    0.708186 0.233874 0.617794 0.233322
H28   H     H_    0.626794 0.116151 0.673485 0.075221
H29   H     H_    0.764641 0.867758 0.634226 0.235003
H30   H     H_    0.665113 0.952100 0.633934 0.258132
H31   H     H_    0.634694 0.863455 0.697576 0.253373
H32   H     H_    0.756487 0.729615 0.633781 0.218480
H33   H     H_    0.626129 0.711535 0.691875 0.225818
H34   H     H_    0.878577 0.537021 0.277451 0.254122
H35   H     H_    0.672107 0.641072 0.618681 0.295415
H36   H     H_    0.238276 0.286781 0.383570 0.055222
H37   H     H_    0.502001 0.955623 0.357610 0.247329
H38   H     H_    0.451518 0.865452 0.311743 0.234350
H39   H     H_    0.346471 0.921828 0.369336 0.258316
H40   H     H_    0.287798 0.154932 0.318826 0.248846
H41   H     H_    0.397011 0.075942 0.329672 0.247484
H42   H     H_    0.265011 0.071593 0.390742 0.255766
H43   H     H_    0.351557 0.665772 0.402280 0.281178
H44   H     H_    0.287418 0.764462 0.384592 0.220691
H45   H     H_    0.757965 0.540727 0.344353 0.217759
H46   H     H_    0.408963 0.731649 0.326242 0.226637
H47   H     H_    0.228366 0.437213 0.645376 0.027870
H48   H     H_    0.079726 0.324802 0.451811 0.007515
H49   H     H_    0.923253 0.348632 0.393138 0.212492
H50   H     H_    0.782181 0.394168 0.382378 0.215983
H51   H     H_    0.879223 0.401333 0.302913 0.289463
H52   H     H_    0.227754 0.430246 0.364815 0.128959
H53   H     H_    0.943539 0.698585 0.438060 0.211273
H54   H     H_    0.795300 0.673357 0.454238 0.251609
H55   H     H_    0.884338 0.719747 0.530901 0.261274
H56   H     H_    0.874438 0.615096 0.346864 0.232992
H57   H     H_    0.191034 0.563974 0.655209 0.048778
H58   H     H_    0.205035 0.588147 0.355534 0.214864
H59   H     H_    0.081190 0.574338 0.287251 0.269234
H60   H     H_    0.064778 0.637185 0.369004 0.221005
N1    N     N_2   0.436767 0.490733 0.989158 -0.181424
N2    N     N_2   0.529923 0.531145 0.006097 -0.125286
N3    N     N_R   0.515460 0.716920 0.509720 -0.132099
N4    N     N_2   0.545716 0.981159 0.510755 -0.152392
N5    N     N_2   0.450249 0.018967 0.491680 -0.107159
N6    N     N_R   0.484530 0.283060 0.490290 -0.130477
O1    O     O_R   0.494470 0.422540 0.612660 -0.605674
O2    O     O_2   0.117275 0.730637 0.554219 -0.541125
O3    O     O_2   0.570464 0.307121 0.096073 -0.565700
O4    O     O_2   0.613783 0.687645 0.021001 -0.547466
O5    O     O_2   0.786454 0.443296 0.662106 -0.592647
O6    O     O_2   0.479729 0.047115 0.661178 -0.523532
O7    O     O_2   0.370087 0.323508 0.313438 -0.574714
O8    O     O_2   0.101372 0.364062 0.687462 -0.516369
O9    O     O_2   0.178674 0.289230 0.544913 -0.536764
O10   O     O_2   0.088520 0.408307 0.293297 -0.557003
O11   O     O_2   0.039951 0.616321 0.682190 -0.555609
O12   O     O_R   0.504400 0.561840 0.618900 -0.617695
O13   O     O_R   0.680240 0.430340 0.496890 -0.658411
O14   O     O_R   0.690170 0.569650 0.503130 -0.635341
O15   O     O_R   0.495600 0.438160 0.381100 -0.584396
O16   O     O_R   0.505530 0.577460 0.387340 -0.626756
O17   O     O_R   0.309830 0.430350 0.496870 -0.631677
O18   O     O_R   0.319760 0.569660 0.503110 -0.658057
O19   O     O_2   0.909900 0.284901 0.597467 -0.509776
Zn1   Zn    Zn3+2 0.493370 0.406980 0.495830 0.963688
Zn2   Zn    Zn3+2 0.506630 0.593020 0.504170 0.919125

loop_
_geom_bond_atom_site_label_1
_geom_bond_atom_site_label_2
_ccdc_geom_bond_type
C49   H38   S    
C42   H21   S    
C1    O1    A    
C15   C47   S    
C3    C6    A    
C6    C9    A    
C36   H6    S    
C33   H4    S    
C7    C8    A    
C57   H54   S    
C38   H15   S    
C48   H36   S    
N3    Zn2   S    
C12   C23   S    
C43   H27   S    
C39   H16   S    
C48   O7    D    
C19   C21   A    
C25   C53   S    
C10   N3    A    
C29   H12   S    
C12   C22   S    
C58   H57   S    
C54   H49   S    
C23   C26   S    
C24   C29   S    
C31   H56   S    
O14   Zn2   S    
C42   C56   S    
C49   H37   S    
C45   C56   A    
C8    C9    A    
C5    C33   S    
C50   H42   S    
C47   H35   S    
C40   H19   S    
C1    O12   A    
C2    C61   A    
C33   H2    S    
C13   N4    S    
C58   O11   D    
C39   C59   S    
C59   C60   A    
C2    C45   A    
C13   C14   A    
C24   C41   S    
C53   O9    D    
C8    C38   S    
C6    N2    S    
C32   H59   S    
O17   Zn1   S    
C10   C51   S    
C26   C54   S    
O13   Zn1   S    
C21   C50   S    
C4    C28   S    
C57   H55   S    
C38   H14   S    
C27   C34   S    
O16   Zn2   S    
O12   Zn2   S    
C15   N3    A    
C30   C34   S    
C39   H17   S    
C16   O16   A    
C24   C25   S    
C20   N6    A    
C14   C46   S    
C27   C57   S    
C4    O14   A    
C5    C7    A    
C46   H30   S    
C55   H52   S    
C35   H5    S    
C51   H43   S    
C9    C40   S    
C60   C61   A    
C39   H18   S    
C16   O15   A    
C11   C49   S    
C27   H1    S    
C18   N6    A    
C4    O13   A    
C22   O18   A    
C3    C35   S    
C51   H44   S    
C41   H20   S    
C17   C18   A    
C47   H32   S    
C54   H51   S    
C42   H24   S    
C60   N1    S    
C35   O3    D    
C20   C48   S    
C7    C16   S    
C40   O4    D    
C50   H41   S    
C37   H10   S    
N4    N5    D    
C31   H45   S    
C32   H58   S    
C12   C34   S    
C36   C61   S    
C29   O19   D    
O18   Zn2   S    
C36   H8    S    
C38   H13   S    
C53   H48   S    
C44   O6    D    
C43   H25   S    
C32   H60   S    
C42   H22   S    
C24   C28   S    
C3    C5    A    
C41   O5    D    
C36   H7    S    
O1    Zn1   S    
C23   C55   S    
C57   H53   S    
C46   H29   S    
C30   O2    D    
C19   N5    S    
C26   C28   S    
C55   O10   D    
C56   C59   A    
C12   C25   S    
C43   H26   S    
C23   C32   S    
C17   C44   S    
C18   C43   S    
C49   H39   S    
C11   C13   A    
C2    C37   S    
C1    C45   S    
C33   H3    S    
C31   H34   S    
O15   Zn1   S    
C17   C19   A    
C47   H33   S    
C54   H50   S    
C30   H23   S    
C25   C52   S    
C10   C11   A    
C26   C31   S    
C46   H31   S    
C20   C21   A    
C52   H47   S    
C50   H40   S    
C51   H46   S    
C37   H11   S    
C22   O17   A    
C27   C28   S    
C34   C58   S    
C52   O8    D    
C14   C15   A    
N1    N2    D    
C37   H9    S    
C44   H28   S    
N6    Zn1   S    
