data_mof_unit_13922.cif
_audit_creation_date              2012-12-10T19:28:29-0500
_audit_creation_method            fapswitch 2.2
_symmetry_space_group_name_H-M    P1
_symmetry_Int_Tables_number       1
_space_group_crystal_system       triclinic
_cell_length_a                    27.712366
_cell_length_b                    10.489827
_cell_length_c                    9.778188
_cell_angle_alpha                 90.297572
_cell_angle_beta                  90.493299
_cell_angle_gamma                 89.146686
_cell_volume                      2842.04191527

loop_
_atom_site_label
_atom_site_type_symbol
_atom_type_description
_atom_site_fract_x
_atom_site_fract_y
_atom_site_fract_z
_atom_type_partial_charge
C1    C     C_R   0.500343 0.257548 0.500026 0.853110
C2    C     C_R   0.499680 0.742457 0.499979 0.853488
C3    C     C_R   0.102066 0.490367 0.505916 -0.051948
C4    C     C_R   0.898238 0.504364 0.491424 -0.052634
C5    C     C_R   0.127487 0.376460 0.475983 -0.025789
C6    C     C_R   0.872974 0.620974 0.507123 -0.024739
C7    C     C_R   0.102159 0.266440 0.443164 -0.138144
C8    C     C_R   0.898467 0.733756 0.523183 -0.137510
C9    C     C_R   0.127911 0.601086 0.538815 -0.022700
C10   C     C_R   0.872234 0.391196 0.473283 -0.021584
C11   C     C_R   0.353794 0.494624 0.499124 -0.151031
C12   C     C_R   0.646269 0.504537 0.500737 -0.151289
C13   C     C_R   0.974262 0.382779 0.475120 0.046494
C14   C     C_R   0.025979 0.610587 0.528087 0.045791
C15   C     C_R   0.974978 0.615368 0.517308 0.046824
C16   C     C_R   0.025399 0.380301 0.472919 0.046156
C17   C     C_R   0.949373 0.500841 0.494457 0.071435
C18   C     C_R   0.050934 0.493722 0.502415 0.071947
C19   C     C_R   0.946901 0.270708 0.459595 -0.215531
C20   C     C_R   0.053102 0.718834 0.565155 -0.216779
C21   C     C_R   0.896904 0.275203 0.458211 -0.137234
C22   C     C_R   0.103077 0.713988 0.569929 -0.137566
C23   C     C_R   0.406281 0.499211 0.499542 0.899093
C24   C     C_R   0.593738 0.500649 0.500442 0.899697
C25   C     C_R   0.052132 0.268093 0.441265 -0.215464
C26   C     C_R   0.948478 0.731374 0.527567 -0.214952
C27   C     C_3   0.500489 0.041031 0.630445 -0.148345
C28   C     C_3   0.499568 0.958990 0.369587 -0.147831
C29   C     C_3   0.539794 0.955626 0.564704 -0.188092
C30   C     C_3   0.460267 0.044397 0.435335 -0.188193
C31   C     C_3   0.499651 0.877641 0.499155 0.035908
C32   C     C_3   0.500406 0.122371 0.500877 0.035576
C33   C     C_3   0.460326 0.960367 0.564606 -0.167884
C34   C     C_3   0.539731 0.039658 0.435427 -0.167846
C35   C     C_3   0.476320 0.405707 0.045971 0.183170
C36   C     C_3   0.523675 0.594293 0.954042 0.183694
C37   C     C_3   0.519697 0.396333 0.950866 -0.106014
C38   C     C_3   0.480296 0.603666 0.049151 -0.106176
C39   C     C_3   0.456350 0.508592 0.950043 -0.103318
C40   C     C_3   0.543647 0.491401 0.049962 -0.103112
C41   C     C_R   0.177988 0.375998 0.477323 0.515974
C42   C     C_R   0.822475 0.621864 0.506866 0.514864
C43   C     C_R   0.178344 0.596200 0.539799 0.511355
C44   C     C_R   0.821800 0.396509 0.472429 0.510939
C45   C     C_R   0.276355 0.550273 0.398457 -0.214624
C46   C     C_R   0.723624 0.450061 0.602709 -0.214350
C47   C     C_R   0.326542 0.557887 0.397308 0.438471
C48   C     C_R   0.673417 0.443110 0.604044 0.437464
C49   C     C_R   0.330533 0.428096 0.603129 -0.300658
C50   C     C_R   0.669684 0.567949 0.394760 -0.301928
C51   C     C_R   0.280483 0.423273 0.605047 -0.095884
C52   C     C_R   0.719751 0.571322 0.392190 -0.094700
C53   C     C_R   0.253462 0.484637 0.502955 0.261571
C54   C     C_R   0.746718 0.512194 0.495996 0.257019
H1    H     H_    0.351101 0.379610 0.682544 0.171672
H2    H     H_    0.649232 0.614849 0.314033 0.172421
H3    H     H_    0.501156 0.077827 0.737024 0.129170
H4    H     H_    0.498895 0.922190 0.263009 0.128915
H5    H     H_    0.428057 0.923215 0.616843 0.132380
H6    H     H_    0.571998 0.076823 0.383189 0.132936
H7    H     H_    0.535649 0.308472 0.905521 0.129266
H8    H     H_    0.464295 0.691452 0.094588 0.129335
H9    H     H_    0.419700 0.515650 0.903739 0.138884
H10   H     H_    0.580297 0.484326 0.096263 0.138167
H11   H     H_    0.262629 0.373010 0.686282 0.155161
H12   H     H_    0.737654 0.618798 0.309108 0.158352
H13   H     H_    0.120934 0.178161 0.418005 0.190124
H14   H     H_    0.879843 0.824900 0.532669 0.188939
H15   H     H_    0.744782 0.403975 0.682480 0.157477
H16   H     H_    0.255057 0.598046 0.320129 0.154869
H17   H     H_    0.877633 0.186664 0.446114 0.190193
H18   H     H_    0.122201 0.799743 0.597946 0.191084
H19   H     H_    0.962857 0.176871 0.451086 0.138061
H20   H     H_    0.036884 0.808829 0.593862 0.141505
H21   H     H_    0.035643 0.179839 0.411493 0.140696
H22   H     H_    0.965219 0.823011 0.536686 0.137893
H23   H     H_    0.571894 0.913586 0.617207 0.137173
H24   H     H_    0.428197 0.086636 0.382884 0.137014
N1    N     N_R   0.202110 0.485118 0.508013 -0.344354
N2    N     N_R   0.798138 0.510482 0.490622 -0.343401
N3    N     N_3   0.499960 0.500030 0.863290 -0.100467
N4    N     N_3   0.500040 0.499970 0.136710 -0.100629
O1    O     O_R   0.500000 0.313960 0.616610 -0.631457
O2    O     O_R   0.500000 0.686040 0.383390 -0.630764
O3    O     O_R   0.500020 0.313950 0.383350 -0.638308
O4    O     O_R   0.499980 0.686050 0.616650 -0.638427
O5    O     O_R   0.428750 0.500030 0.616610 -0.633393
O6    O     O_R   0.571250 0.499970 0.383390 -0.633708
O7    O     O_R   0.428770 0.500020 0.383360 -0.574922
O8    O     O_R   0.571230 0.499980 0.616640 -0.574407
O9    O     O_2   0.202857 0.268110 0.446669 -0.559029
O10   O     O_2   0.797835 0.732615 0.524660 -0.559405
O11   O     O_2   0.796477 0.288784 0.453317 -0.569697
O12   O     O_2   0.203575 0.701478 0.572028 -0.567795
Zn1   Zn    Zn3+2 0.499990 0.500010 0.655740 0.941367
Zn2   Zn    Zn3+2 0.500010 0.499990 0.344260 0.941415
C55   C     C_3   0.449049 0.291710 0.100744 -0.391939
C56   C     C_3   0.424055 0.219529 0.983981 -0.386137
C57   C     C_3   0.400467 0.099035 0.035849 -0.887209
H25   H     H_    0.428147 0.034175 0.081752 0.258706
H26   H     H_    0.372806 0.123833 0.113481 0.271196
H27   H     H_    0.382680 0.048700 0.949360 0.258723
H28   H     H_    0.395930 0.281678 0.935853 0.228413
H29   H     H_    0.450832 0.192330 0.904714 0.222812
H30   H     H_    0.475225 0.226673 0.152739 0.216607
H31   H     H_    0.421773 0.325609 0.175674 0.230696
C58   C     C_3   0.550955 0.708305 0.899362 -0.392166
C59   C     C_3   0.575970 0.780304 0.016224 -0.385735
C60   C     C_3   0.599449 0.901036 0.964617 -0.887884
H32   H     H_    0.627043 0.876573 0.886681 0.270598
H33   H     H_    0.571684 0.965933 0.919182 0.258730
H34   H     H_    0.617294 0.951163 0.051149 0.259038
H35   H     H_    0.549228 0.807189 0.095702 0.222978
H36   H     H_    0.604161 0.718150 0.064037 0.228193
H37   H     H_    0.578220 0.674457 0.824375 0.230671
H38   H     H_    0.524781 0.773411 0.847453 0.216582
O13   O     O_3   0.650907 0.373707 0.704166 -0.602415
C61   C     C_3   0.654410 0.243241 0.668610 0.130187
H39   H     H_    0.692088 0.207381 0.683608 0.164850
H40   H     H_    0.642905 0.225773 0.560468 0.123863
C62   C     C_3   0.621548 0.167527 0.759860 -0.846950
H41   H     H_    0.583441 0.196517 0.741032 0.255414
H42   H     H_    0.625889 0.064664 0.735682 0.210261
H43   H     H_    0.630909 0.183904 0.869151 0.263796
O14   O     O_3   0.348926 0.628741 0.298160 -0.601768
C63   C     C_3   0.345990 0.758507 0.336737 0.128071
H44   H     H_    0.359205 0.773748 0.443683 0.122820
H45   H     H_    0.308145 0.794751 0.327261 0.162486
C64   C     C_3   0.377356 0.835859 0.242825 -0.842034
H46   H     H_    0.366384 0.820902 0.134485 0.264716
H47   H     H_    0.373218 0.938363 0.268973 0.209564
H48   H     H_    0.415743 0.806993 0.256532 0.253769

loop_
_geom_bond_atom_site_label_1
_geom_bond_atom_site_label_2
_ccdc_geom_bond_type
O6    Zn2   S    
C42   N2    A    
C63   H44   S    
C27   C29   S    
C8    C26   A    
C14   C18   A    
C2    O2    A    
C12   C48   A    
C55   C56   S    
O8    Zn1   S    
C27   C33   S    
C64   H47   S    
C21   H17   S    
C11   C49   A    
C19   C21   A    
C37   C40   S    
C60   H33   S    
O2    Zn2   S    
C38   C39   S    
N3    Zn1   S    
O3    Zn2   S    
C9    C22   A    
C43   N1    A    
C56   H28   S    
C43   O12   S    
C59   C60   S    
C3    C18   A    
C51   H11   S    
C59   H36   S    
C61   H39   S    
C46   H15   S    
C44   O11   S    
C11   C47   A    
C12   C50   A    
C49   C51   A    
O5    Zn1   S    
C50   C52   A    
C58   C59   S    
C23   O7    A    
C64   H48   S    
C55   H30   S    
C45   H16   S    
C28   C34   S    
C33   H5    S    
C23   O5    A    
C38   N4    S    
C36   C58   S    
C34   H6    S    
C37   N3    S    
C22   H18   S    
C35   N4    S    
C52   C54   A    
C47   O14   S    
C54   N2    S    
C45   C47   A    
C10   C21   A    
C1    O3    A    
C46   C48   A    
C9    C43   A    
N4    Zn2   S    
C13   C19   A    
C10   C44   A    
C14   C20   A    
C36   C40   S    
C39   N3    S    
C4    C6    A    
C27   H3    S    
C60   H34   S    
C5    C7    A    
C15   C26   A    
C6    C8    A    
C63   C64   S    
C49   H1    S    
C7    H13   S    
C29   C34   S    
C1    C32   S    
C50   H2    S    
C2    C31   S    
C25   H21   S    
C61   C62   S    
C32   C34   S    
C59   H35   S    
C35   C39   S    
C41   O9    S    
C3    C9    A    
C40   N4    S    
C26   H22   S    
C57   H25   S    
C44   N2    A    
C36   N3    S    
O1    Zn1   S    
C46   C54   A    
C31   C33   S    
C20   H20   S    
C24   O6    A    
C58   H37   S    
C62   H41   S    
C4    C17   A    
C19   H19   S    
C57   H26   S    
C20   C22   A    
C8    H14   S    
O14   C63   S    
C55   H31   S    
C4    C10   A    
C36   C38   S    
C52   H12   S    
C35   C37   S    
C64   H46   S    
C16   C25   A    
C15   C17   A    
C5    C41   A    
C63   H45   S    
C30   C33   S    
C53   N1    S    
C27   C32   S    
C28   C31   S    
C3    C5    A    
C24   O8    A    
C41   N1    A    
C37   H7    S    
C48   O13   S    
C28   H4    S    
C1    O1    A    
C39   H9    S    
C12   C24   S    
C7    C25   A    
C13   C17   A    
O7    Zn2   S    
C28   C30   S    
C29   C31   S    
C35   C55   S    
O13   C61   S    
C30   C32   S    
C56   H29   S    
C40   H10   S    
C11   C23   S    
C2    O4    A    
C42   O10   S    
C61   H40   S    
C58   H38   S    
C62   H42   S    
O4    Zn1   S    
C45   C53   A    
C30   H24   S    
C57   H27   S    
C29   H23   S    
C16   C18   A    
C56   C57   S    
C6    C42   A    
C13   C16   A    
C62   H43   S    
C14   C15   A    
C51   C53   A    
C60   H32   S    
C38   H8    S    
