data_mof_unit_59890.cif
_audit_creation_date              2013-03-05T15:55:43-0500
_audit_creation_method            fapswitch 2.2
_symmetry_space_group_name_H-M    P1
_symmetry_Int_Tables_number       1
_space_group_crystal_system       triclinic
_cell_length_a                    6.924423
_cell_length_b                    17.570454
_cell_length_c                    19.514033
_cell_angle_alpha                 108.630354
_cell_angle_beta                  89.588896
_cell_angle_gamma                 90.544026
_cell_volume                      2249.64822599

loop_
_atom_site_label
_atom_site_type_symbol
_atom_site_description
_atom_site_fract_x
_atom_site_fract_y
_atom_site_fract_z
_atom_type_partial_charge
O1    O     O_R   0.494330 0.415710 0.413720 -0.615311
O2    O     O_R   0.819360 0.430070 0.560210 -0.589356
O3    O     O_R   0.994320 0.584290 0.586280 -0.591005
C1    C     C_R   0.650380 0.417036 0.583498 1.063476
O4    O     O_R   0.823740 0.406290 0.412670 -0.614870
O5    O     O_R   0.998730 0.560340 0.437690 -0.568877
C2    C     C_R   0.654768 0.383057 0.384693 0.898687
O6    O     O_R   0.489920 0.439660 0.562310 -0.546457
O7    O     O_3   0.662330 0.550570 0.508380 -0.236298
V1    V     V_3+5 0.935370 0.490620 0.498440 1.251651
O8    O     O_R   0.328720 0.569930 0.439790 -0.582213
C3    C     C_R   0.160002 0.588258 0.420840 1.056615
O9    O     O_R   0.324340 0.593710 0.587330 -0.574849
C4    C     C_R   0.155274 0.616639 0.615515 1.086088
V2    V     V_3+5 0.435940 0.509380 0.501560 1.277011
O10   O     O_3   0.159110 0.449430 0.491620 -0.278966
C5    C     C_R   0.311938 0.725637 0.717268 -0.043535
H1    H     H_    0.452470 0.708423 0.692838 0.131622
C6    C     C_R   0.300704 0.789430 0.782210 -0.138932
H2    H     H_    0.433190 0.819423 0.805744 0.123977
C7    C     C_R   0.121266 0.814393 0.816002 -0.133227
C8    C     C_R   0.953434 0.773584 0.783095 -0.120817
H3    H     H_    0.812841 0.790946 0.807410 0.125796
C9    C     C_R   0.964742 0.709629 0.718265 -0.125277
H4    H     H_    0.832286 0.679579 0.694744 0.144021
C10   C     C_R   0.144125 0.684857 0.684363 -0.136747
C11   C     C_R   0.296887 0.635267 0.322673 -0.241986
C12   C     C_R   0.151188 0.641924 0.374915 -0.317121
C13   C     C_R   0.999531 0.698231 0.381129 0.472075
C14   C     C_R   0.981770 0.737041 0.327586 -0.065471
C15   C     C_R   0.131990 0.730258 0.276414 -0.010344
C16   C     C_R   0.291348 0.680484 0.275075 0.149260
C17   C     C_R   0.817907 0.782665 0.323463 -0.066131
C18   C     C_R   0.809166 0.824853 0.273892 -0.232734
C19   C     C_R   0.962156 0.821923 0.226021 0.153261
C20   C     C_R   0.124044 0.774146 0.226787 0.075854
C21   C     C_R   0.278473 0.770593 0.178216 0.140878
C22   C     C_R   0.436081 0.720798 0.177639 -0.206156
C23   C     C_R   0.441497 0.675567 0.225069 -0.175845
C24   C     C_R   0.955209 0.865812 0.177278 -0.242596
C25   C     C_R   0.110946 0.864774 0.130346 -0.141327
C26   C     C_R   0.272526 0.816931 0.131214 -0.241608
H5    H     H_    0.415503 0.594218 0.318838 0.162597
H6    H     H_    0.691905 0.784633 0.356908 0.199373
H7    H     H_    0.681538 0.859730 0.272914 0.149551
H8    H     H_    0.830128 0.902436 0.177118 0.136885
H9    H     H_    0.392462 0.814978 0.094681 0.142920
H10   H     H_    0.555545 0.716861 0.140518 0.149206
H11   H     H_    0.564877 0.637488 0.223304 0.142210
C27   C     C_R   0.486014 0.205134 0.884310 0.474886
C28   C     C_R   0.623530 0.143056 0.876371 -0.337319
C29   C     C_R   0.766967 0.130561 0.822665 -0.205416
C30   C     C_R   0.772803 0.176352 0.775469 0.105526
C31   C     C_R   0.628356 0.233398 0.779337 0.039004
C32   C     C_R   0.479098 0.244980 0.831489 -0.041360
C33   C     C_R   0.919666 0.164587 0.723517 -0.297300
C34   C     C_R   0.927216 0.209278 0.675333 0.338987
C35   C     C_R   0.782001 0.266981 0.678665 -0.021993
C36   C     C_R   0.633474 0.279326 0.731226 -0.001127
C37   C     C_R   0.489690 0.337716 0.736101 0.026474
C38   C     C_R   0.330638 0.340992 0.782022 -0.051298
C39   C     C_R   0.324741 0.295128 0.828318 -0.129073
C40   C     C_R   0.776470 0.310326 0.629194 -0.155104
C41   C     C_R   0.641466 0.371631 0.636099 -0.351401
C42   C     C_R   0.505467 0.389649 0.693688 0.530921
H12   H     H_    0.874135 0.084344 0.817209 0.156951
H13   H     H_    0.031546 0.121020 0.721037 0.180011
H14   H     H_    0.876782 0.296792 0.584306 0.195315
H15   H     H_    0.205753 0.377060 0.780997 0.192267
H16   H     H_    0.195250 0.298220 0.860301 0.195751
C43   C     C_R   0.812002 0.277104 0.280959 -0.130880
H17   H     H_    0.953017 0.297197 0.303517 0.119522
C44   C     C_R   0.800873 0.213202 0.216078 -0.106931
H18   H     H_    0.933859 0.185945 0.190739 0.123019
C45   C     C_R   0.620937 0.184928 0.184448 -0.121019
C46   C     C_R   0.452444 0.222318 0.219562 -0.148728
H19   H     H_    0.311444 0.202221 0.196989 0.121433
C47   C     C_R   0.463576 0.286293 0.284387 -0.116066
H20   H     H_    0.330603 0.313615 0.309674 0.121342
C48   C     C_R   0.643513 0.314553 0.316036 -0.115431
O11   O     O_R   0.774940 0.060470 0.937800 -0.585276
O12   O     O_R   0.440880 0.093730 0.087350 -0.585660
O13   O     O_R   0.266130 0.939630 0.062280 -0.605673
C49   C     C_R   0.609741 0.116540 0.115708 0.977125
O14   O     O_R   0.445480 0.069960 0.939820 -0.554092
O15   O     O_R   0.270770 0.915690 0.913690 -0.605178
C50   C     C_R   0.615008 0.088478 0.921194 1.081507
O16   O     O_R   0.770300 0.084410 0.086380 -0.602330
O17   O     O_3   0.602600 0.949510 0.991670 -0.295664
V3    V     V_3+5 0.329470 0.009370 0.001550 1.216452
O18   O     O_R   0.940760 0.906160 0.912560 -0.607192
C51   C     C_R   0.109973 0.882955 0.884640 0.921197
O19   O     O_R   0.936150 0.929930 0.060100 -0.604999
C52   C     C_R   0.104266 0.914298 0.081281 0.942405
V4    V     V_3+5 0.828930 0.990450 0.998310 1.185121
O20   O     O_3   0.105670 0.050490 0.008320 -0.229483
S1    S     S_3+6 0.344540 0.241447 0.965071 -0.031344
O21   O     O_2   0.309094 0.330051 0.983448 -0.285781
O22   O     O_2   0.154156 0.197509 0.954245 -0.287334
O23   O     O_3   0.460680 0.227346 0.035218 -0.551752
H21   H     H_    0.378569 0.253569 0.077882 0.366389
N1    N     N_R   0.084700 0.195569 0.624427 0.232168
O24   O     O_R   0.182104 0.255770 0.616235 -0.428882
O25   O     O_R   0.151793 0.123363 0.595570 -0.362810
S2    S     S_3+6 0.376077 0.482098 0.719231 -0.060983
O26   O     O_2   0.492867 0.545978 0.701567 -0.344562
O27   O     O_2   0.188148 0.469358 0.678922 -0.305277
O28   O     O_3   0.330978 0.514640 0.808715 -0.543112
H22   H     H_    0.253949 0.564038 0.816986 0.375855
S3    S     S_3+6 0.851464 0.729403 0.460409 -0.034760
O29   O     O_2   0.807259 0.817441 0.480106 -0.273877
O30   O     O_2   0.665766 0.682231 0.445933 -0.300096
O31   O     O_3   0.963270 0.715322 0.531393 -0.561841
H23   H     H_    0.870383 0.734298 0.572023 0.363818

loop_
_geom_bond_atom_site_label_1
_geom_bond_atom_site_label_2
_geom_bond_distance
_ccdc_geom_bond_type
O19   C52   1.298818 A    
C44   H18   1.082753 S    
V4    O20   2.158340 S    
C1    O6    1.297499 A    
S1    O21   1.503933 D    
C30   C31   1.407253 A    
C33   C34   1.404876 A    
C24   H8    1.084516 S    
C34   N1    1.438936 S    
S2    O27   1.502952 D    
C21   C22   1.402972 A    
C3    C12   1.495927 S    
C5    C10   1.406029 A    
C12   C13   1.427422 A    
C6    C7    1.408844 A    
C9    C10   1.408721 A    
C15   C20   1.419221 A    
O5    C3    1.297375 A    
C14   C15   1.415895 A    
O11   V4    1.997719 S    
C47   C48   1.408457 A    
C45   C49   1.489660 S    
V2    O10   2.158258 S    
C32   C39   1.405816 A    
O28   H22   0.990910 S    
C39   H16   1.080598 S    
C18   C19   1.397741 A    
C25   C26   1.409246 A    
C16   C23   1.404970 A    
C21   C26   1.408585 A    
S3    O29   1.503876 D    
C40   H14   1.080560 S    
O8    V2    1.995799 S    
C19   C20   1.409847 A    
O1    V2    2.002648 S    
O7    V1    2.150283 S    
C22   H10   1.083631 S    
O16   V4    2.008448 S    
C36   C37   1.417238 A    
O19   V4    1.995718 S    
O9    C4    1.301325 A    
C44   C45   1.408379 A    
C38   C39   1.389682 A    
C42   S2    1.787080 S    
C43   C48   1.406417 A    
S1    O22   1.502999 D    
C5    H1    1.082814 S    
C31   C36   1.420195 A    
O14   C50   1.295445 A    
S2    O28   1.682647 S    
C28   C29   1.405423 A    
C13   S3    1.786380 S    
C9    H4    1.082905 S    
O15   V3    2.002064 S    
C28   C50   1.490716 S    
O18   C51   1.301516 A    
C43   C44   1.400374 A    
C47   H20   1.082717 S    
C27   C28   1.424795 A    
C35   C36   1.415542 A    
O13   C52   1.296848 A    
C37   C38   1.404761 A    
O17   V4    1.706550 S    
O2    C1    1.296864 A    
C45   C46   1.406352 A    
C13   C14   1.424942 A    
C25   C52   1.486534 S    
O14   V3    2.004731 S    
C17   C18   1.395956 A    
C18   H7    1.083927 S    
C4    C10   1.489638 S    
N1    O25   1.301352 A    
S3    O31   1.678477 S    
O11   C50   1.300382 A    
O3    C4    1.296371 A    
C24   C25   1.406245 A    
C23   H11   1.083710 S    
C37   C42   1.417353 A    
O6    V2    1.997157 S    
O12   C49   1.301048 A    
O9    V2    2.003160 S    
C8    C9    1.400459 A    
O2    V1    2.004828 S    
S1    O23   1.678735 S    
C29   H12   1.084681 S    
C29   C30   1.403386 A    
O4    C2    1.300529 A    
O31   H23   0.990624 S    
C30   C33   1.399994 A    
C38   H15   1.081008 S    
C35   C40   1.408644 A    
O13   V3    2.002116 S    
C31   C32   1.414875 A    
C20   C21   1.412329 A    
C27   S1    1.788217 S    
C14   C17   1.412917 A    
C11   C16   1.402841 A    
O1    C2    1.296009 A    
C17   H6    1.079977 S    
C15   C16   1.409423 A    
C49   O16   1.295629 A    
C46   C47   1.400327 A    
O5    V1    2.002169 S    
O8    C3    1.301821 A    
V3    O20   1.702446 S    
C33   H13   1.084232 S    
S2    O26   1.502847 D    
C1    C41   1.488358 S    
C27   C32   1.420312 A    
O12   V3    2.001663 S    
C41   C42   1.418849 A    
C6    H2    1.082799 S    
C19   C24   1.404173 A    
O7    V2    1.708459 S    
O4    V1    2.001651 S    
O3    V1    2.002086 S    
V1    O10   1.702506 S    
C46   H19   1.082696 S    
C34   C35   1.421112 A    
C22   C23   1.400246 A    
O23   H21   0.990854 S    
C5    C6    1.400389 A    
C26   H9    1.084220 S    
N1    O24   1.300861 A    
S3    O30   1.501847 D    
O18   V4    2.003210 S    
C40   C41   1.406029 A    
C11   H5    1.084567 S    
C43   H17   1.082680 S    
C11   C12   1.407871 A    
C8    H3    1.082811 S    
O15   C51   1.296333 A    
O17   V3    2.150176 S    
C7    C8    1.406332 A    
C2    C48   1.489706 S    
C7    C51   1.490188 S    
