data_mof_unit_17239.cif
_audit_creation_date              2012-12-11T14:03:59-0500
_audit_creation_method            fapswitch 2.2
_symmetry_space_group_name_H-M    P1
_symmetry_Int_Tables_number       1
_space_group_crystal_system       triclinic
_cell_length_a                    18.963152
_cell_length_b                    10.971545
_cell_length_c                    18.722127
_cell_angle_alpha                 90.179698
_cell_angle_beta                  90.281505
_cell_angle_gamma                 90.102974
_cell_volume                      3895.16097556

loop_
_atom_site_label
_atom_site_type_symbol
_atom_type_description
_atom_site_fract_x
_atom_site_fract_y
_atom_site_fract_z
_atom_type_partial_charge
C1    C     C_R   0.239555 0.466868 0.646656 0.561230
C2    C     C_R   0.773148 0.513195 0.362379 0.564441
C3    C     C_R   0.739555 0.966868 0.646656 0.561230
C4    C     C_R   0.273148 0.013195 0.362379 0.564441
C5    C     C_2   0.307990 0.894909 0.548709 -0.165836
C6    C     C_2   0.711542 0.840741 0.463298 -0.164414
C7    C     C_2   0.807990 0.394909 0.548709 -0.165836
C8    C     C_2   0.211542 0.340741 0.463298 -0.164414
C9    C     C_R   0.007586 0.668902 0.424568 -0.040642
C10   C     C_R   0.994358 0.657362 0.574174 -0.036128
C11   C     C_R   0.507586 0.168902 0.424568 -0.040642
C12   C     C_R   0.494358 0.157362 0.574174 -0.036128
C13   C     C_R   0.995658 0.894268 0.432787 -0.068359
C14   C     C_R   0.964825 0.874540 0.577703 -0.086532
C15   C     C_R   0.495658 0.394268 0.432787 -0.068359
C16   C     C_R   0.464825 0.374540 0.577703 -0.086532
C17   C     C_R   0.974818 0.996744 0.471515 -0.125417
C18   C     C_R   0.957641 0.986129 0.543399 -0.131969
C19   C     C_R   0.474818 0.496744 0.471515 -0.125417
C20   C     C_R   0.457641 0.486129 0.543399 -0.131969
C21   C     C_R   0.986253 0.770092 0.539544 0.007405
C22   C     C_R   0.996911 0.777730 0.464856 0.012561
C23   C     C_R   0.486253 0.270092 0.539544 0.007405
C24   C     C_R   0.496911 0.277730 0.464856 0.012561
C25   C     C_R   0.999274 0.549522 0.532345 0.021115
C26   C     C_R   0.020104 0.558771 0.460962 0.012058
C27   C     C_R   0.499274 0.049522 0.532345 0.021115
C28   C     C_R   0.520104 0.058771 0.460962 0.012058
C29   C     C_R   0.986737 0.431820 0.560430 -0.084621
C30   C     C_R   0.045404 0.453613 0.425517 -0.067102
C31   C     C_R   0.486737 0.931820 0.560430 -0.084621
C32   C     C_R   0.545404 0.953613 0.425517 -0.067102
C33   C     C_R   0.006312 0.327864 0.522624 -0.151870
C34   C     C_R   0.037700 0.338851 0.456049 -0.130547
C35   C     C_R   0.506311 0.827864 0.522624 -0.151870
C36   C     C_R   0.537700 0.838851 0.456049 -0.130547
C37   C     C_2   0.256924 0.927793 0.917168 -0.056105
C38   C     C_2   0.742895 0.927662 0.083013 -0.057258
C39   C     C_2   0.756924 0.427793 0.917168 -0.056105
C40   C     C_2   0.242894 0.427660 0.083013 -0.057260
C41   C     C_2   0.254758 0.939785 0.072710 -0.137037
C42   C     C_2   0.745188 0.939992 0.927261 -0.146305
C43   C     C_2   0.754758 0.439785 0.072710 -0.137034
C44   C     C_2   0.245188 0.439991 0.927261 -0.146308
C45   C     C_R   0.228585 0.878876 0.650006 0.561075
C46   C     C_R   0.772896 0.874439 0.352544 0.550626
C47   C     C_R   0.728585 0.378876 0.650006 0.561074
C48   C     C_R   0.272896 0.374439 0.352544 0.550627
C49   C     C_2   0.240560 0.033655 0.028439 -0.165354
C50   C     C_2   0.759452 0.033751 0.971980 -0.170355
C51   C     C_2   0.740561 0.533656 0.028439 -0.165356
C52   C     C_2   0.259453 0.533750 0.971980 -0.170354
C53   C     C_2   0.223649 0.016435 0.952385 0.234242
C54   C     C_2   0.776233 0.016392 0.048024 0.237777
C55   C     C_2   0.723648 0.516436 0.952385 0.234246
C56   C     C_2   0.276233 0.516392 0.048024 0.237774
C57   C     C_2   0.045279 0.656339 0.933574 -0.101515
C58   C     C_2   0.017232 0.663235 0.087546 -0.105659
C59   C     C_2   0.545279 0.156339 0.933574 -0.101514
C60   C     C_2   0.517232 0.163235 0.087545 -0.105660
C61   C     C_2   0.039272 0.563403 0.052558 -0.153356
C62   C     C_2   0.063491 0.566555 0.978298 -0.169351
C63   C     C_2   0.539272 0.063403 0.052558 -0.153356
C64   C     C_2   0.563491 0.066555 0.978298 -0.169352
C65   C     C_R   0.026666 0.653936 0.646338 0.543114
C66   C     C_R   0.973516 0.656332 0.353458 0.523393
C67   C     C_R   0.526666 0.153936 0.646338 0.543114
C68   C     C_R   0.473516 0.156332 0.353458 0.523394
C69   C     C_R   0.238381 0.469049 0.852297 0.558593
C70   C     C_R   0.761565 0.468836 0.147736 0.574883
C71   C     C_R   0.738381 0.969049 0.852297 0.558592
C72   C     C_R   0.261565 0.968836 0.147736 0.574884
C73   C     C_R   0.228888 0.876088 0.851628 0.562098
C74   C     C_R   0.771049 0.876054 0.148409 0.573831
C75   C     C_R   0.728888 0.376088 0.851628 0.562097
C76   C     C_R   0.271049 0.376054 0.148409 0.573832
C77   C     C_R   0.062539 0.648002 0.858416 0.565079
C78   C     C_R   0.972948 0.652461 0.150593 0.552997
C79   C     C_R   0.562539 0.148002 0.858416 0.565079
C80   C     C_R   0.472948 0.152461 0.150593 0.552997
C81   C     C_2   0.256251 0.942507 0.588392 -0.111348
C82   C     C_2   0.751442 0.914884 0.423011 -0.106963
C83   C     C_2   0.756251 0.442507 0.588392 -0.111349
C84   C     C_2   0.251442 0.414884 0.423011 -0.106963
C85   C     C_2   0.264164 0.971952 0.435148 -0.111487
C86   C     C_2   0.754052 0.907164 0.579264 -0.119427
C87   C     C_2   0.764164 0.471952 0.435148 -0.111487
C88   C     C_2   0.254052 0.407164 0.579264 -0.119427
C89   C     C_2   0.319078 0.936363 0.475289 -0.164237
C90   C     C_2   0.701303 0.863718 0.539178 -0.161989
C91   C     C_2   0.819078 0.436363 0.475289 -0.164237
C92   C     C_2   0.201303 0.363718 0.539178 -0.161989
Cr1   Cr    Cr6+3 0.113970 0.508630 0.747920 1.010274
Cr2   Cr    Cr6+3 0.886030 0.508630 0.252080 1.016659
Cr3   Cr    Cr6+3 0.613970 0.008630 0.747920 1.010272
Cr4   Cr    Cr6+3 0.386030 0.008630 0.252080 1.016660
Cr5   Cr    Cr6+3 0.269200 0.666740 0.749850 1.002376
Cr6   Cr    Cr6+3 0.730800 0.666740 0.250150 0.998235
Cr7   Cr    Cr6+3 0.769200 0.166740 0.749850 1.002375
Cr8   Cr    Cr6+3 0.230800 0.166740 0.250150 0.998235
Cr9   Cr    Cr6+3 0.112300 0.820070 0.749800 1.029960
Cr10  Cr    Cr6+3 0.887700 0.820070 0.250200 1.022239
Cr11  Cr    Cr6+3 0.612300 0.320070 0.749800 1.029967
Cr12  Cr    Cr6+3 0.387700 0.320070 0.250200 1.022234
H1    H     H_    0.371505 0.929574 0.452591 0.171019
H2    H     H_    0.649222 0.849403 0.561318 0.171915
H3    H     H_    0.871505 0.429574 0.452591 0.171019
H4    H     H_    0.149222 0.349403 0.561318 0.171915
H5    H     H_    0.260013 0.846209 0.054559 0.104994
H6    H     H_    0.739537 0.846479 0.945086 0.109298
H7    H     H_    0.760011 0.346209 0.054559 0.104989
H8    H     H_    0.239534 0.346480 0.945086 0.109307
H9    H     H_    0.300737 0.879606 0.941835 0.042082
H10   H     H_    0.698942 0.879498 0.058248 0.029626
H11   H     H_    0.800737 0.379608 0.941835 0.042079
H12   H     H_    0.198942 0.379495 0.058247 0.029632
H13   H     H_    0.033836 0.473716 0.076382 0.146652
H14   H     H_    0.090616 0.486511 0.958003 0.136638
H15   H     H_    0.533836 0.973716 0.076382 0.146652
H16   H     H_    0.590615 0.986511 0.958003 0.136640
H17   H     H_    0.026031 0.753971 0.066496 0.096893
H18   H     H_    0.016684 0.736258 0.951410 0.106110
H19   H     H_    0.526031 0.253971 0.066496 0.096894
H20   H     H_    0.516684 0.236258 0.951410 0.106112
H21   H     H_    0.338767 0.817904 0.567515 0.147423
H22   H     H_    0.686472 0.760077 0.440906 0.148825
H23   H     H_    0.838767 0.317904 0.567515 0.147423
H24   H     H_    0.186472 0.260077 0.440906 0.148825
H25   H     H_    0.210959 0.972856 0.456464 0.113230
H26   H     H_    0.806760 0.916103 0.557336 0.118371
H27   H     H_    0.710959 0.472856 0.456464 0.113230
H28   H     H_    0.306760 0.416103 0.557336 0.118371
H29   H     H_    0.227699 0.022749 0.570556 0.109971
H30   H     H_    0.775897 0.996137 0.445496 0.115189
H31   H     H_    0.727699 0.522749 0.570556 0.109971
H32   H     H_    0.275897 0.496137 0.445496 0.115189
H33   H     H_    0.971158 0.084238 0.445339 0.109636
H34   H     H_    0.938862 0.064265 0.573002 0.108595
H35   H     H_    0.471158 0.584238 0.445339 0.109636
H36   H     H_    0.438862 0.564265 0.573002 0.108596
H37   H     H_    0.011325 0.907580 0.377907 0.133364
H38   H     H_    0.950666 0.869239 0.633567 0.125902
H39   H     H_    0.511325 0.407580 0.377907 0.133363
H40   H     H_    0.450666 0.369239 0.633567 0.125902
H41   H     H_    0.068468 0.459833 0.372814 0.130130
H42   H     H_    0.961683 0.419602 0.611757 0.135753
H43   H     H_    0.568468 0.959833 0.372814 0.130130
H44   H     H_    0.461683 0.919602 0.611757 0.135753
H45   H     H_    0.999121 0.239222 0.546112 0.106534
H46   H     H_    0.054873 0.258454 0.427450 0.104947
H47   H     H_    0.499121 0.739222 0.546112 0.106534
H48   H     H_    0.554873 0.758454 0.427450 0.104947
H49   H     H_    0.236666 0.125757 0.049633 0.140258
H50   H     H_    0.763664 0.125871 0.951171 0.138236
H51   H     H_    0.736669 0.625758 0.049633 0.140252
H52   H     H_    0.263667 0.625870 0.951171 0.138240
O1    O     O_R   0.043230 0.549300 0.667990 -0.518902
O2    O     O_R   0.956770 0.549300 0.332010 -0.526176
O3    O     O_R   0.543230 0.049300 0.667990 -0.518902
O4    O     O_R   0.456770 0.049300 0.332010 -0.526176
O5    O     O_R   0.262920 0.788600 0.824420 -0.527543
O6    O     O_R   0.737080 0.788600 0.175580 -0.525751
O7    O     O_R   0.762920 0.288600 0.824420 -0.527544
O8    O     O_R   0.237080 0.288600 0.175580 -0.525750
O9    O     O_R   0.167530 0.905110 0.830340 -0.467006
O10   O     O_R   0.832470 0.905110 0.169660 -0.457012
O11   O     O_R   0.667530 0.405110 0.830340 -0.466998
O12   O     O_R   0.332470 0.405110 0.169660 -0.457017
O13   O     O_R   0.054010 0.748440 0.822860 -0.502761
O14   O     O_R   0.945990 0.748440 0.177140 -0.501197
O15   O     O_R   0.554010 0.248440 0.822860 -0.502759
O16   O     O_R   0.445990 0.248440 0.177140 -0.501199
O17   O     O_3   0.165160 0.665150 0.749190 -0.268077
O18   O     O_3   0.834840 0.665150 0.250810 -0.262801
O19   O     O_3   0.665160 0.165150 0.749190 -0.268077
O20   O     O_3   0.334840 0.165150 0.250810 -0.262800
O21   O     O_R   0.178620 0.457600 0.674100 -0.488792
O22   O     O_R   0.821380 0.457600 0.325900 -0.484333
O23   O     O_R   0.678620 0.957600 0.674100 -0.488793
O24   O     O_R   0.321380 0.957600 0.325900 -0.484333
O25   O     O_R   0.284680 0.542100 0.669460 -0.520563
O26   O     O_R   0.715320 0.542100 0.330540 -0.522023
O27   O     O_R   0.784680 0.042100 0.669460 -0.520563
O28   O     O_R   0.215320 0.042100 0.330540 -0.522023
O29   O     O_R   0.262860 0.790390 0.676650 -0.496906
O30   O     O_R   0.737140 0.790390 0.323350 -0.516933
O31   O     O_R   0.762860 0.290390 0.676650 -0.496907
O32   O     O_R   0.237140 0.290390 0.323350 -0.516933
O33   O     O_R   0.167460 0.907030 0.670940 -0.507977
O34   O     O_R   0.832540 0.907030 0.329060 -0.506912
O35   O     O_R   0.667460 0.407030 0.670940 -0.507976
O36   O     O_R   0.332540 0.407030 0.329060 -0.506913
O37   O     O_R   0.053950 0.750220 0.675100 -0.491514
O38   O     O_R   0.946050 0.750220 0.324900 -0.508194
O39   O     O_R   0.553950 0.250220 0.675100 -0.491514
O40   O     O_R   0.446050 0.250220 0.324900 -0.508194
O41   O     O_R   0.043300 0.547370 0.827390 -0.510891
O42   O     O_R   0.956700 0.547370 0.172610 -0.520914
O43   O     O_R   0.543300 0.047370 0.827390 -0.510891
O44   O     O_R   0.456700 0.047370 0.172610 -0.520914
O45   O     O_R   0.178690 0.455820 0.821860 -0.513502
O46   O     O_R   0.821310 0.455820 0.178140 -0.484180
O47   O     O_R   0.678690 0.955820 0.821860 -0.513505
O48   O     O_R   0.321310 0.955820 0.178140 -0.484179
O49   O     O_R   0.284750 0.540170 0.828860 -0.513013
O50   O     O_R   0.715250 0.540170 0.171140 -0.514009
O51   O     O_R   0.784750 0.040170 0.828860 -0.513013
O52   O     O_R   0.215250 0.040170 0.171140 -0.514010
O53   O     O_3   0.178626 0.094320 0.915055 -0.533236
C93   C     C_3   0.120786 0.131910 0.956912 -0.004081
H53   H     H_    0.137415 0.202576 0.996180 0.113267
H54   H     H_    0.096184 0.053440 0.985219 0.133577
C94   C     C_3   0.065451 0.188188 0.908053 -0.359035
H55   H     H_    0.047024 0.119726 0.868281 0.162756
H56   H     H_    0.019650 0.219589 0.939768 0.083020
H57   H     H_    0.088197 0.267563 0.879521 0.176009
O54   O     O_3   0.821442 0.094320 0.085541 -0.535018
C95   C     C_3   0.880081 0.129541 0.044144 0.001154
H58   H     H_    0.864597 0.200180 0.004687 0.119376
H59   H     H_    0.903931 0.049992 0.016054 0.135445
C96   C     C_3   0.935782 0.184551 0.093434 -0.356849
H60   H     H_    0.952592 0.116256 0.133714 0.160693
H61   H     H_    0.982488 0.213083 0.062164 0.075327
H62   H     H_    0.914058 0.265584 0.121349 0.178806
O55   O     O_3   0.678623 0.594317 0.915055 -0.533232
C97   C     C_3   0.620792 0.631932 0.956917 -0.004085
H63   H     H_    0.637432 0.702607 0.996174 0.113265
H64   H     H_    0.596190 0.553476 0.985238 0.133577
C98   C     C_3   0.565453 0.688205 0.908061 -0.359039
H65   H     H_    0.547009 0.619729 0.868306 0.162744
H66   H     H_    0.519663 0.719639 0.939781 0.083024
H67   H     H_    0.588202 0.767557 0.879510 0.176022
O56   O     O_3   0.321439 0.594322 0.085542 -0.535021
C99   C     C_3   0.380084 0.629529 0.044149 0.001155
H68   H     H_    0.364606 0.700163 0.004685 0.119377
H69   H     H_    0.403934 0.549973 0.016066 0.135446
C100  C     C_3   0.435782 0.684542 0.093441 -0.356848
H70   H     H_    0.452583 0.616254 0.133729 0.160701
H71   H     H_    0.482494 0.713055 0.062174 0.075324
H72   H     H_    0.414060 0.765586 0.121345 0.178800

loop_
_geom_bond_atom_site_label_1
_geom_bond_atom_site_label_2
_ccdc_geom_bond_type
C70   O46   A    
C7    C83   D    
C14   H38   S    
Cr10  O14   S    
C6    C82   D    
C87   C91   D    
Cr3   O23   S    
C14   C18   A    
Cr9   O17   S    
C35   C36   A    
C74   O10   A    
C43   C51   D    
C50   H50   S    
Cr7   O31   S    
Cr8   O52   S    
C88   H28   S    
C57   C62   D    
Cr12  O20   S    
C32   H43   S    
C94   H55   S    
C15   C19   A    
C75   O11   A    
C12   C23   A    
C51   H51   S    
C59   C64   D    
C50   C54   S    
C99   H69   S    
C30   H41   S    
C60   C63   D    
Cr3   O3    S    
C32   C36   A    
C14   C21   A    
C49   H49   S    
C16   H40   S    
C4    O24   A    
C48   O32   A    
C98   H67   S    
Cr9   O33   S    
Cr12  O16   S    
C68   O40   A    
C93   H53   S    
C2    O26   A    
Cr6   O18   S    
C49   C53   S    
C9    C22   A    
C10   C65   S    
C37   H9    S    
Cr5   O29   S    
Cr3   O47   S    
C80   O44   A    
C29   C33   A    
C11   C24   A    
C78   O14   A    
C63   H15   S    
C75   O7    A    
Cr2   O22   S    
C79   O15   A    
C18   H34   S    
C3    O23   A    
C9    C66   S    
Cr3   O19   S    
C66   O38   A    
C57   H18   S    
C46   C82   S    
C52   C56   S    
C1    O21   A    
C92   H4    S    
C39   C55   D    
C88   C92   D    
Cr9   O37   S    
C43   C70   S    
C40   C56   D    
C84   H32   S    
C17   C18   A    
Cr8   O20   S    
C73   O5    A    
C23   C24   A    
Cr9   O13   S    
C8    C92   S    
C39   C75   S    
Cr1   O45   S    
O56   C99   S    
Cr7   O27   S    
C72   O48   A    
C37   C53   D    
C44   C52   D    
C58   C61   D    
C71   O51   A    
Cr10  O10   S    
C83   H31   S    
C41   H5    S    
C21   C22   A    
C3    C86   S    
Cr11  O15   S    
C61   C62   S    
C35   H47   S    
C46   O34   A    
C67   O39   A    
Cr10  O38   S    
C41   C49   D    
Cr6   O6    S    
C8    H24   S    
C9    C26   A    
Cr4   O48   S    
C65   O37   A    
C94   H56   S    
C10   C21   A    
C25   C29   A    
C69   O45   A    
C12   C67   S    
C45   C81   S    
C79   O43   A    
C30   C34   A    
C12   C27   A    
C27   C31   A    
C57   C77   S    
C28   C32   A    
Cr5   O17   S    
C90   H2    S    
C72   O52   A    
C15   H39   S    
C86   C90   D    
C59   C79   S    
C29   H42   S    
Cr11  O39   S    
Cr1   O21   S    
C86   H26   S    
C4    C85   S    
C51   C55   S    
O54   C95   S    
C6    C90   S    
C61   H13   S    
Cr4   O24   S    
C48   C84   S    
C48   O36   A    
Cr7   O51   S    
Cr2   O42   S    
C99   C100  S    
C81   H29   S    
C82   H30   S    
C60   H19   S    
C71   O47   A    
C93   C94   S    
C98   H65   S    
C85   H25   S    
Cr12  O12   S    
C96   H60   S    
C5    C81   D    
C95   H59   S    
O53   C93   S    
C38   C54   D    
C16   C20   A    
C55   O55   S    
C7    C91   S    
Cr11  O19   S    
O55   C97   S    
Cr12  O40   S    
C2    C87   S    
Cr8   O8    S    
C85   C89   D    
Cr11  O11   S    
C46   O30   A    
Cr1   O1    S    
C6    H22   S    
C87   H27   S    
C54   O54   S    
C42   C50   D    
C41   C72   S    
Cr2   O46   S    
C31   H44   S    
C44   H8    S    
C10   C25   A    
Cr3   O43   S    
C15   C24   A    
Cr4   O4    S    
C73   O9    A    
Cr2   O18   S    
C26   C30   A    
C16   C23   A    
C97   H64   S    
C100  H71   S    
C98   H66   S    
Cr7   O7    S    
C56   O56   S    
C76   O8    A    
Cr11  O35   S    
C99   H68   S    
C80   O16   A    
C47   O31   A    
C68   O4    A    
C97   C98   S    
C20   H36   S    
C66   O2    A    
C11   C68   S    
C95   C96   S    
C74   O6    A    
C38   C74   S    
C94   H57   S    
C45   O33   A    
C59   H20   S    
Cr4   O44   S    
C77   O13   A    
C37   C73   S    
C60   C80   S    
C58   H17   S    
C1    O25   A    
Cr4   O20   S    
Cr8   O32   S    
C8    C84   D    
C69   O49   A    
C13   H37   S    
C36   H48   S    
C47   C83   S    
Cr2   O2    S    
C17   H33   S    
C47   O35   A    
Cr5   O25   S    
Cr10  O18   S    
C70   O50   A    
Cr6   O26   S    
C96   H62   S    
C65   O1    A    
C78   O42   A    
C39   H11   S    
C64   H16   S    
C13   C17   A    
C96   H61   S    
Cr5   O49   S    
C89   H1    S    
C93   H54   S    
C19   C20   A    
C25   C26   A    
Cr6   O30   S    
C33   H45   S    
Cr9   O9    S    
C45   O29   A    
C95   H58   S    
C40   H12   S    
C3    O27   A    
C11   C28   A    
C1    C88   S    
C38   H10   S    
Cr1   O41   S    
Cr1   O17   S    
C42   C71   S    
Cr10  O34   S    
C33   C34   A    
C13   C22   A    
C76   O12   A    
C31   C35   A    
C34   H46   S    
C42   H6    S    
C52   H52   S    
Cr8   O28   S    
C62   H14   S    
C58   C78   S    
C63   C64   S    
C43   H7    S    
C40   C76   S    
Cr7   O19   S    
C53   O53   S    
C97   H63   S    
C100  H72   S    
C5    H21   S    
C27   C28   A    
C44   C69   S    
Cr6   O50   S    
C67   O3    A    
C2    O22   A    
C7    H23   S    
C100  H70   S    
C77   O41   A    
C19   H35   S    
C5    C89   S    
C4    O28   A    
Cr5   O5    S    
C91   H3    S    
Cr12  O36   S    
