data_mof_unit_23082.cif
_audit_creation_date              2012-12-11T17:25:59-0500
_audit_creation_method            fapswitch 2.2
_symmetry_space_group_name_H-M    P1
_symmetry_Int_Tables_number       1
_space_group_crystal_system       triclinic
_cell_length_a                    22.830192
_cell_length_b                    22.790855
_cell_length_c                    23.789968
_cell_angle_alpha                 90.28657
_cell_angle_beta                  89.369331
_cell_angle_gamma                 90.216981
_cell_volume                      12377.3956284

loop_
_atom_site_label
_atom_site_type_symbol
_atom_type_description
_atom_site_fract_x
_atom_site_fract_y
_atom_site_fract_z
_atom_type_partial_charge
C1    C     C_R   0.855592 0.075547 0.412845 0.530126
C2    C     C_R   0.150681 0.918414 0.568627 0.650834
C3    C     C_R   0.919513 0.850427 0.425439 0.656846
C4    C     C_R   0.066055 0.135160 0.600671 0.550701
C5    C     C_R   0.136301 0.932284 0.400473 0.555896
C6    C     C_R   0.849448 0.082262 0.569681 0.659229
C7    C     C_R   0.081612 0.149330 0.425695 0.608632
C8    C     C_R   0.932891 0.864646 0.599921 0.549158
C9    C     C_R   0.134410 0.066063 0.600322 0.547771
C10   C     C_R   0.850805 0.919590 0.425206 0.576812
C11   C     C_R   0.081153 0.849008 0.567953 0.641426
C12   C     C_R   0.922652 0.146418 0.417075 0.578480
C13   C     C_R   0.864314 0.932885 0.600092 0.539571
C14   C     C_R   0.150693 0.080742 0.427515 0.600380
C15   C     C_R   0.919070 0.150890 0.571314 0.625867
C16   C     C_R   0.066979 0.864299 0.400045 0.544677
C17   C     C_R   0.351060 0.579662 0.924233 0.577257
C18   C     C_R   0.634398 0.434710 0.100276 0.520058
C19   C     C_R   0.420466 0.350487 0.923416 0.568676
C20   C     C_R   0.576915 0.645187 0.085928 0.556638
C21   C     C_R   0.635189 0.433082 0.899517 0.525188
C22   C     C_R   0.350212 0.580834 0.074460 0.563943
C23   C     C_R   0.581959 0.649592 0.926389 0.598047
C24   C     C_R   0.421588 0.351799 0.080047 0.639313
C25   C     C_R   0.648571 0.579164 0.077944 0.567494
C26   C     C_R   0.353042 0.420814 0.918464 0.541635
C27   C     C_R   0.565636 0.365862 0.100746 0.514988
C28   C     C_R   0.420779 0.647698 0.920368 0.601598
C29   C     C_R   0.353450 0.421200 0.082649 0.580085
C30   C     C_R   0.650538 0.580504 0.926380 0.604416
C31   C     C_R   0.419273 0.650732 0.071614 0.558027
C32   C     C_R   0.566145 0.364518 0.899953 0.525764
C33   C     C_1   0.154446 0.148070 0.727499 0.194655
C34   C     C_1   0.825561 0.823049 0.312745 0.223709
C35   C     C_1   0.780150 0.214707 0.617700 0.202843
C36   C     C_1   0.152858 0.845238 0.273061 0.187766
C37   C     C_1   0.844778 0.847612 0.726471 0.214076
C38   C     C_1   0.212703 0.217849 0.374999 0.185469
C39   C     C_1   0.196354 0.796135 0.648625 0.199727
C40   C     C_1   0.794017 0.208887 0.357992 0.195488
C41   C     C_1   0.708697 0.709815 0.140488 0.152750
C42   C     C_1   0.286341 0.284367 0.874430 0.151904
C43   C     C_1   0.280522 0.718072 0.114054 0.175250
C44   C     C_1   0.651288 0.341422 0.775235 0.182367
C45   C     C_1   0.322609 0.324509 0.194898 0.219314
C46   C     C_1   0.716232 0.719098 0.881163 0.187134
C47   C     C_1   0.656792 0.347501 0.222093 0.179921
C48   C     C_1   0.303936 0.689468 0.830032 0.210311
C49   C     C_1   0.841406 0.840570 0.357299 -0.073931
C50   C     C_1   0.133585 0.131276 0.684413 0.044351
C51   C     C_1   0.134976 0.864207 0.316983 0.036808
C52   C     C_1   0.816682 0.182285 0.599306 -0.010698
C53   C     C_1   0.180133 0.182552 0.395190 0.003046
C54   C     C_1   0.863879 0.865348 0.682692 0.067811
C55   C     C_1   0.826691 0.173006 0.375642 0.016484
C56   C     C_1   0.173188 0.824216 0.613590 -0.061475
C57   C     C_1   0.320097 0.320292 0.891665 -0.001712
C58   C     C_1   0.674961 0.677515 0.118177 -0.014545
C59   C     C_1   0.633688 0.362472 0.818092 0.038468
C60   C     C_1   0.316617 0.683437 0.097964 -0.041820
C61   C     C_1   0.681866 0.682835 0.897044 -0.012887
C62   C     C_1   0.341339 0.341785 0.150941 -0.034276
C63   C     C_1   0.330424 0.666500 0.866305 -0.017122
C64   C     C_1   0.634876 0.366986 0.181203 0.048529
C65   C     C_R   0.867905 0.132375 0.396242 -0.343500
C66   C     C_R   0.140243 0.859023 0.577000 -0.377941
C67   C     C_R   0.862440 0.862160 0.409238 -0.362326
C68   C     C_R   0.112880 0.112922 0.630830 -0.334442
C69   C     C_R   0.114988 0.884834 0.370457 -0.328307
C70   C     C_R   0.859921 0.140802 0.582171 -0.400390
C71   C     C_R   0.139776 0.138857 0.413500 -0.380080
C72   C     C_R   0.885037 0.885503 0.629642 -0.332021
C73   C     C_R   0.363525 0.635686 0.905902 -0.387427
C74   C     C_R   0.612029 0.388558 0.130599 -0.286985
C75   C     C_R   0.363725 0.362414 0.906388 -0.340769
C76   C     C_R   0.635040 0.634898 0.097877 -0.344695
C77   C     C_R   0.613119 0.385675 0.869864 -0.291620
C78   C     C_R   0.360461 0.640283 0.084969 -0.358062
C79   C     C_R   0.640079 0.638907 0.912806 -0.379553
C80   C     C_R   0.365964 0.365124 0.100666 -0.372609
C81   C     C_R   0.784261 0.710234 0.210221 0.430297
C82   C     C_R   0.189338 0.241633 0.851559 0.440645
C83   C     C_R   0.252082 0.815491 0.149976 0.451859
C84   C     C_R   0.669400 0.251066 0.725104 0.417129
C85   C     C_R   0.248466 0.328881 0.269462 0.425811
C86   C     C_R   0.812752 0.742738 0.842020 0.405201
C87   C     C_R   0.661627 0.282593 0.304094 0.433145
C88   C     C_R   0.296432 0.703674 0.729741 0.417489
C89   C     C_R   0.224405 0.748128 0.793842 0.451762
C90   C     C_R   0.750070 0.326776 0.262592 0.416786
C91   C     C_R   0.733465 0.813874 0.836954 0.407435
C92   C     C_R   0.328466 0.258173 0.274996 0.449330
C93   C     C_R   0.709871 0.342897 0.687583 0.434676
C94   C     C_R   0.190763 0.729761 0.168716 0.398816
C95   C     C_R   0.279466 0.205350 0.806783 0.437398
C96   C     C_R   0.741652 0.803757 0.181021 0.443753
C97   C     C_R   0.246577 0.167855 0.772917 0.397303
C98   C     C_R   0.770846 0.831983 0.225277 0.449781
C99   C     C_R   0.741836 0.310584 0.647207 0.453547
C100  C     C_R   0.162430 0.759911 0.212558 0.434908
C101  C     C_R   0.764350 0.844542 0.794974 0.420805
C102  C     C_R   0.303814 0.235427 0.324460 0.415455
C103  C     C_R   0.196544 0.773731 0.748252 0.433273
C104  C     C_R   0.784763 0.294353 0.299071 0.406869
C105  C     C_R   0.696791 0.247282 0.337859 0.451497
C106  C     C_R   0.267485 0.727458 0.683946 0.428898
C107  C     C_R   0.223622 0.305732 0.318662 0.424517
C108  C     C_R   0.843947 0.773456 0.800312 0.437146
C109  C     C_R   0.220189 0.847818 0.190694 0.427991
C110  C     C_R   0.698539 0.219600 0.682819 0.402691
C111  C     C_R   0.816629 0.739431 0.251088 0.404250
C112  C     C_R   0.156312 0.206319 0.814682 0.452003
C113  C     C_R   0.185362 0.171560 0.774328 -0.378119
C114  C     C_R   0.806042 0.798879 0.261192 -0.381000
C115  C     C_R   0.737577 0.249088 0.646844 -0.365688
C116  C     C_R   0.177186 0.818621 0.223583 -0.371030
C117  C     C_R   0.819024 0.823571 0.776313 -0.367565
C118  C     C_R   0.249137 0.256196 0.343102 -0.385409
C119  C     C_R   0.219768 0.764606 0.693797 -0.400066
C120  C     C_R   0.757984 0.251913 0.333215 -0.374433
C121  C     C_R   0.747339 0.742399 0.175012 -0.371644
C122  C     C_R   0.251047 0.242000 0.846082 -0.369490
C123  C     C_R   0.238736 0.755875 0.141215 -0.347697
C124  C     C_R   0.675295 0.312302 0.727448 -0.371759
C125  C     C_R   0.300330 0.304443 0.247553 -0.380414
C126  C     C_R   0.755705 0.760526 0.856422 -0.357762
C127  C     C_R   0.688950 0.320942 0.265501 -0.369910
C128  C     C_R   0.274464 0.714123 0.784161 -0.399657
N1    N     N_R   0.900580 0.056480 0.443850 -0.139024
N2    N     N_R   0.099420 0.943520 0.556150 -0.137660
N3    N     N_R   0.943520 0.900580 0.443850 -0.138453
N4    N     N_R   0.056480 0.099420 0.556150 -0.139694
N5    N     N_R   0.099420 0.943520 0.443850 -0.133083
N6    N     N_R   0.900580 0.056480 0.556150 -0.142786
N7    N     N_R   0.056480 0.099420 0.443850 -0.146298
N8    N     N_R   0.943520 0.900580 0.556150 -0.132734
N9    N     N_R   0.099420 0.056480 0.556150 -0.133544
N10   N     N_R   0.900580 0.943520 0.443850 -0.142148
N11   N     N_R   0.056480 0.900580 0.556150 -0.138936
N12   N     N_R   0.943520 0.099420 0.443850 -0.140811
N13   N     N_R   0.900580 0.943520 0.556150 -0.135076
N14   N     N_R   0.099420 0.056480 0.443850 -0.134602
N15   N     N_R   0.943520 0.099420 0.556150 -0.139542
N16   N     N_R   0.056480 0.900580 0.443850 -0.138629
N17   N     N_R   0.400580 0.556480 0.943850 -0.138957
N18   N     N_R   0.599420 0.443520 0.056150 -0.145540
N19   N     N_R   0.443520 0.400580 0.943850 -0.138274
N20   N     N_R   0.556480 0.599420 0.056150 -0.138730
N21   N     N_R   0.599420 0.443520 0.943850 -0.134840
N22   N     N_R   0.400580 0.556480 0.056150 -0.134005
N23   N     N_R   0.556480 0.599420 0.943850 -0.141556
N24   N     N_R   0.443520 0.400580 0.056150 -0.141154
N25   N     N_R   0.599420 0.556480 0.056150 -0.139491
N26   N     N_R   0.400580 0.443520 0.943850 -0.135201
N27   N     N_R   0.556480 0.400580 0.056150 -0.137570
N28   N     N_R   0.443520 0.599420 0.943850 -0.136318
N29   N     N_R   0.400580 0.443520 0.056150 -0.140041
N30   N     N_R   0.599420 0.556480 0.943850 -0.137245
N31   N     N_R   0.443520 0.599420 0.056150 -0.139215
N32   N     N_R   0.556480 0.400580 0.943850 -0.145618
Ni1   Ni    Ni4+2 0.901480 0.000000 0.500000 0.257976
Ni2   Ni    Ni4+2 0.098520 0.000000 0.500000 0.263504
Ni3   Ni    Ni4+2 0.000000 0.901480 0.500000 0.257462
Ni4   Ni    Ni4+2 0.000000 0.098520 0.500000 0.255501
Ni5   Ni    Ni4+2 0.401480 0.500000 0.000000 0.274311
Ni6   Ni    Ni4+2 0.598520 0.500000 0.000000 0.230947
Ni7   Ni    Ni4+2 0.500000 0.401480 0.000000 0.232455
Ni8   Ni    Ni4+2 0.500000 0.598520 0.000000 0.266277
O1    O     O_3   0.800521 0.050722 0.413788 -0.573654
C129  C     C_3   0.784001 0.037542 0.358139 -0.136439
H1    H     H_    0.814333 0.005043 0.338510 0.134135
H2    H     H_    0.781462 0.077223 0.331469 0.101748
H3    H     H_    0.739606 0.017674 0.359328 0.142040
O2    O     O_3   0.202712 0.942994 0.548489 -0.578398
C130  C     C_3   0.252998 0.915750 0.569857 -0.191502
H4    H     H_    0.258987 0.871422 0.551044 0.133406
H5    H     H_    0.251905 0.914399 0.616606 0.152649
H6    H     H_    0.291832 0.942204 0.557349 0.141303
O3    O     O_3   0.939833 0.796982 0.445415 -0.592546
C131  C     C_3   0.908766 0.748499 0.423836 -0.200392
H7    H     H_    0.912666 0.746610 0.377334 0.190113
H8    H     H_    0.862191 0.748957 0.438006 0.130312
H9    H     H_    0.928695 0.707860 0.440360 0.139922
O4    O     O_3   0.033070 0.184421 0.612977 -0.574646
C132  C     C_3   0.068304 0.231399 0.632028 -0.251716
H10   H     H_    0.112357 0.232936 0.611406 0.100341
H11   H     H_    0.072239 0.229720 0.678320 0.152251
H12   H     H_    0.046382 0.273269 0.622047 0.143368
O5    O     O_3   0.186375 0.963615 0.387960 -0.589482
C133  C     C_3   0.235336 0.927739 0.398245 -0.205462
H13   H     H_    0.235467 0.887397 0.371822 0.093368
H14   H     H_    0.237674 0.915868 0.443424 0.176322
H15   H     H_    0.275697 0.952469 0.387225 0.143184
O6    O     O_3   0.796163 0.055812 0.556874 -0.571127
C134  C     C_3   0.756843 0.093512 0.529567 -0.075881
H16   H     H_    0.779035 0.124964 0.500595 0.119844
H17   H     H_    0.729290 0.116897 0.560968 0.128118
H18   H     H_    0.726809 0.066302 0.503885 0.172056
O7    O     O_3   0.057411 0.204100 0.434803 -0.546046
C135  C     C_3   0.086631 0.234279 0.478356 -0.075823
H19   H     H_    0.120798 0.263545 0.460251 0.111848
H20   H     H_    0.106624 0.204798 0.509961 0.072949
H21   H     H_    0.054402 0.262351 0.500930 0.163550
O8    O     O_3   0.966830 0.817597 0.614837 -0.586935
C136  C     C_3   0.936232 0.765704 0.601158 -0.139831
H22   H     H_    0.930161 0.761848 0.554957 0.171188
H23   H     H_    0.893126 0.762940 0.623189 0.083738
H24   H     H_    0.962569 0.727613 0.614707 0.139364
O9    O     O_3   0.182086 0.032590 0.614256 -0.589125
C137  C     C_3   0.233313 0.064962 0.601675 -0.128777
H25   H     H_    0.235508 0.106700 0.625956 0.138405
H26   H     H_    0.236918 0.074000 0.555849 0.157305
H27   H     H_    0.271874 0.038522 0.613559 0.147756
O10   O     O_3   0.796900 0.942144 0.442388 -0.559881
C138  C     C_3   0.749322 0.904573 0.430747 -0.259510
H28   H     H_    0.754213 0.861356 0.451678 0.128955
H29   H     H_    0.743439 0.899518 0.384780 0.141155
H30   H     H_    0.708838 0.924990 0.447888 0.153396
O11   O     O_3   0.055528 0.797361 0.548180 -0.573665
C139  C     C_3   0.086169 0.746126 0.562387 -0.260465
H31   H     H_    0.089272 0.741339 0.608700 0.140803
H32   H     H_    0.129806 0.744709 0.541241 0.132496
H33   H     H_    0.061014 0.707749 0.546792 0.146149
O12   O     O_3   0.950151 0.200600 0.417704 -0.552508
C140  C     C_3   0.912727 0.245808 0.436681 -0.035584
H34   H     H_    0.878119 0.230686 0.466724 0.098785
H35   H     H_    0.892719 0.267609 0.400291 0.135843
H36   H     H_    0.939509 0.279349 0.458617 0.149087
O13   O     O_3   0.816194 0.965707 0.615011 -0.562830
C141  C     C_3   0.765666 0.934809 0.598239 -0.078733
H37   H     H_    0.762173 0.891253 0.618861 0.066076
H38   H     H_    0.764730 0.929429 0.551793 0.153534
H39   H     H_    0.726556 0.960638 0.610876 0.152846
O14   O     O_3   0.203180 0.058087 0.447085 -0.589579
C142  C     C_3   0.252707 0.079737 0.417951 -0.089145
H40   H     H_    0.266537 0.122444 0.436110 0.124337
H41   H     H_    0.245642 0.082408 0.371781 0.148110
H42   H     H_    0.289617 0.049199 0.424604 0.134045
O15   O     O_3   0.943807 0.203312 0.552948 -0.572642
C143  C     C_3   0.923633 0.252288 0.583698 -0.189456
H43   H     H_    0.919467 0.243316 0.629562 0.140063
H44   H     H_    0.882081 0.268228 0.565774 0.139409
H45   H     H_    0.955678 0.288513 0.578335 0.133257
O16   O     O_3   0.032202 0.817827 0.384197 -0.585986
C144  C     C_3   0.061507 0.765371 0.397111 -0.112481
H46   H     H_    0.064032 0.759533 0.443294 0.166243
H47   H     H_    0.106174 0.763504 0.378185 0.093867
H48   H     H_    0.036057 0.727972 0.379877 0.143338
O17   O     O_3   0.296596 0.555086 0.936141 -0.551675
C145  C     C_3   0.251878 0.596979 0.943941 -0.096707
H49   H     H_    0.235013 0.611321 0.902765 0.097113
H50   H     H_    0.266153 0.634948 0.970153 0.126041
H51   H     H_    0.214854 0.575680 0.966602 0.148929
O18   O     O_3   0.691152 0.454593 0.104743 -0.589049
C146  C     C_3   0.724662 0.428548 0.061135 -0.133800
H52   H     H_    0.712396 0.446753 0.019637 0.184128
H53   H     H_    0.720330 0.379807 0.060889 0.071997
H54   H     H_    0.771563 0.438765 0.067932 0.138288
O19   O     O_3   0.440862 0.296208 0.940686 -0.581208
C147  C     C_3   0.428789 0.251373 0.901264 0.023661
H55   H     H_    0.429932 0.267103 0.857016 0.126679
H56   H     H_    0.386616 0.229611 0.911828 0.130482
H57   H     H_    0.462653 0.216956 0.904672 0.134809
O20   O     O_3   0.549611 0.698743 0.090610 -0.575784
C148  C     C_3   0.538923 0.710232 0.148223 -0.274679
H58   H     H_    0.521901 0.755497 0.152856 0.147566
H59   H     H_    0.579138 0.708145 0.174016 0.122076
H60   H     H_    0.505287 0.679483 0.165314 0.129140
O21   O     O_3   0.688028 0.460924 0.889882 -0.588192
C149  C     C_3   0.734052 0.419985 0.894641 -0.239220
H61   H     H_    0.738692 0.393280 0.855779 0.122388
H62   H     H_    0.728575 0.390860 0.931853 0.101389
H63   H     H_    0.775815 0.444134 0.899965 0.154993
O22   O     O_3   0.296708 0.556303 0.060439 -0.564971
C150  C     C_3   0.252352 0.570568 0.099778 -0.035367
H64   H     H_    0.227732 0.608773 0.084192 0.142261
H65   H     H_    0.268841 0.578244 0.143157 0.117300
H66   H     H_    0.220729 0.533631 0.102143 0.152368
O23   O     O_3   0.556591 0.704059 0.934937 -0.554666
C151  C     C_3   0.590769 0.741009 0.969470 -0.047910
H67   H     H_    0.617169 0.771192 0.942960 0.137201
H68   H     H_    0.619776 0.716994 0.998741 0.102861
H69   H     H_    0.560805 0.768456 0.995421 0.171559
O24   O     O_3   0.440427 0.296819 0.061828 -0.550311
C152  C     C_3   0.416280 0.250711 0.093788 -0.121233
H70   H     H_    0.368550 0.245983 0.086132 0.114819
H71   H     H_    0.425830 0.256715 0.139173 0.161771
H72   H     H_    0.437250 0.209122 0.080150 0.134185
O25   O     O_3   0.703283 0.559981 0.059705 -0.581844
C153  C     C_3   0.747553 0.571988 0.098974 0.012174
H73   H     H_    0.731833 0.567129 0.143095 0.138894
H74   H     H_    0.767144 0.615791 0.091069 0.126352
H75   H     H_    0.783461 0.540014 0.092566 0.131719
O26   O     O_3   0.297734 0.444350 0.923184 -0.562274
C154  C     C_3   0.275541 0.452628 0.868578 -0.159891
H76   H     H_    0.232268 0.474369 0.872305 0.159717
H77   H     H_    0.268515 0.410539 0.845972 0.088413
H78   H     H_    0.304674 0.481785 0.843174 0.125353
O27   O     O_3   0.536929 0.313734 0.111216 -0.586733
C155  C     C_3   0.576209 0.266538 0.103733 -0.212413
H79   H     H_    0.603883 0.260953 0.141319 0.114528
H80   H     H_    0.604497 0.271405 0.065560 0.093435
H81   H     H_    0.550421 0.225580 0.098528 0.161307
O28   O     O_3   0.450510 0.700561 0.916223 -0.561225
C156  C     C_3   0.413622 0.749405 0.925056 -0.026626
H82   H     H_    0.378711 0.741313 0.957213 0.110949
H83   H     H_    0.394366 0.763473 0.884695 0.102099
H84   H     H_    0.440705 0.786405 0.940735 0.148014
O29   O     O_3   0.299346 0.447946 0.084184 -0.577014
C157  C     C_3   0.256059 0.409669 0.062865 -0.074053
H85   H     H_    0.216304 0.435566 0.053676 0.140915
H86   H     H_    0.243554 0.376136 0.094484 0.105200
H87   H     H_    0.270189 0.388173 0.022808 0.139633
O30   O     O_3   0.703493 0.556996 0.943692 -0.563653
C158  C     C_3   0.751947 0.577220 0.912025 -0.012435
H88   H     H_    0.768803 0.618634 0.930442 0.138656
H89   H     H_    0.742128 0.581643 0.866477 0.112997
H90   H     H_    0.787881 0.545000 0.915637 0.121024
O31   O     O_3   0.443020 0.702725 0.051087 -0.558914
C159  C     C_3   0.422810 0.752813 0.079972 -0.145546
H91   H     H_    0.416182 0.745100 0.125790 0.097228
H92   H     H_    0.382463 0.769390 0.060055 0.155676
H93   H     H_    0.456292 0.787902 0.075415 0.147149
O32   O     O_3   0.545681 0.307887 0.895327 -0.588172
C160  C     C_3   0.572135 0.274203 0.937657 -0.140456
H94   H     H_    0.553814 0.286087 0.979643 0.180425
H95   H     H_    0.620775 0.278890 0.937249 0.075077
H96   H     H_    0.562386 0.227184 0.929966 0.140907
O33   O     O_3   0.853225 0.708051 0.285694 -0.613677
C161  C     C_3   0.909589 0.707512 0.260908 -0.164315
H97   H     H_    0.927912 0.752721 0.257475 0.141171
H98   H     H_    0.909296 0.685696 0.218928 0.152181
H99   H     H_    0.939148 0.682040 0.288211 0.152097
O34   O     O_3   0.095751 0.203849 0.818505 -0.564516
C162  C     C_3   0.071314 0.256624 0.798756 -0.162381
H100  H     H_    0.028694 0.246273 0.778998 0.146793
H101  H     H_    0.098874 0.279428 0.766503 0.057764
H102  H     H_    0.062204 0.286633 0.834579 0.165125
O35   O     O_3   0.228530 0.908125 0.194093 -0.563686
C163  C     C_3   0.254334 0.924356 0.245698 -0.224294
H103  H     H_    0.278251 0.888082 0.266731 0.079584
H104  H     H_    0.220459 0.942754 0.274393 0.191864
H105  H     H_    0.286406 0.960101 0.237659 0.150156
O36   O     O_3   0.694658 0.159011 0.681132 -0.583876
C164  C     C_3   0.643621 0.143352 0.651710 -0.150370
H106  H     H_    0.643195 0.162956 0.608912 0.103183
H107  H     H_    0.603488 0.156187 0.675594 0.162827
H108  H     H_    0.642724 0.094959 0.646517 0.150771
O37   O     O_3   0.170047 0.326406 0.337653 -0.576945
C165  C     C_3   0.179752 0.362888 0.384656 -0.173208
H109  H     H_    0.199583 0.338186 0.419881 0.101008
H110  H     H_    0.136926 0.379966 0.399769 0.152676
H111  H     H_    0.207709 0.401263 0.373260 0.135445
O38   O     O_3   0.898869 0.754760 0.782837 -0.582918
C166  C     C_3   0.892267 0.707864 0.744442 -0.174565
H112  H     H_    0.860638 0.718244 0.710629 0.089138
H113  H     H_    0.878562 0.667074 0.766386 0.167399
H114  H     H_    0.935315 0.699293 0.724000 0.143000
O39   O     O_3   0.671661 0.209881 0.377030 -0.565481
C167  C     C_3   0.659581 0.155346 0.351182 -0.185861
H115  H     H_    0.695133 0.140409 0.322083 0.087832
H116  H     H_    0.617482 0.157173 0.328488 0.142580
H117  H     H_    0.654897 0.121690 0.384476 0.156549
O40   O     O_3   0.289269 0.718700 0.630097 -0.588006
C168  C     C_3   0.260606 0.669569 0.606752 -0.196766
H118  H     H_    0.212578 0.676992 0.603578 0.100952
H119  H     H_    0.269327 0.629155 0.631346 0.148594
H120  H     H_    0.277914 0.662324 0.563535 0.154307
O41   O     O_3   0.150430 0.811904 0.758357 -0.571098
C169  C     C_3   0.097251 0.785884 0.740935 -0.146305
H121  H     H_    0.096657 0.737031 0.743904 0.068389
H122  H     H_    0.087055 0.799379 0.697436 0.152964
H123  H     H_    0.061397 0.802493 0.768473 0.182185
O42   O     O_3   0.845270 0.298753 0.296651 -0.594250
C170  C     C_3   0.862513 0.351782 0.322652 -0.174856
H124  H     H_    0.842841 0.356718 0.365491 0.100751
H125  H     H_    0.851498 0.390294 0.296440 0.180149
H126  H     H_    0.910798 0.351443 0.327356 0.158802
O43   O     O_3   0.741213 0.894907 0.771823 -0.575083
C171  C     C_3   0.698881 0.878781 0.731758 -0.133713
H127  H     H_    0.716158 0.846111 0.700859 0.077187
H128  H     H_    0.686364 0.918499 0.708045 0.147807
H129  H     H_    0.658567 0.861459 0.752416 0.167952
O44   O     O_3   0.329255 0.187378 0.349521 -0.609149
C172  C     C_3   0.360687 0.207218 0.396617 -0.222684
H130  H     H_    0.331072 0.227416 0.428711 0.116996
H131  H     H_    0.395873 0.238684 0.384122 0.164423
H132  H     H_    0.381985 0.168950 0.416378 0.153846
O45   O     O_3   0.775444 0.338521 0.606470 -0.566606
C173  C     C_3   0.827903 0.359316 0.630437 -0.228716
H133  H     H_    0.847803 0.327259 0.659810 0.085253
H134  H     H_    0.820857 0.401977 0.651799 0.169731
H135  H     H_    0.860072 0.367482 0.596080 0.141568
O46   O     O_3   0.119183 0.732315 0.244163 -0.581848
C174  C     C_3   0.146066 0.695258 0.283549 -0.191230
H136  H     H_    0.176956 0.720022 0.310824 0.091212
H137  H     H_    0.169170 0.658138 0.262655 0.174346
H138  H     H_    0.111523 0.676037 0.311008 0.140060
O47   O     O_3   0.274831 0.133216 0.733232 -0.612190
C175  C     C_3   0.279690 0.076092 0.755040 -0.133042
H139  H     H_    0.235825 0.055819 0.762211 0.142056
H140  H     H_    0.305398 0.075968 0.794553 0.140703
H141  H     H_    0.303404 0.048448 0.723831 0.144291
O48   O     O_3   0.766647 0.892082 0.232855 -0.566480
C176  C     C_3   0.713789 0.905194 0.261485 -0.208661
H142  H     H_    0.718482 0.948690 0.281981 0.137483
H143  H     H_    0.702447 0.872938 0.295007 0.080973
H144  H     H_    0.677303 0.908591 0.231371 0.158658
O49   O     O_3   0.339971 0.205204 0.802167 -0.599639
C177  C     C_3   0.356859 0.242556 0.757654 -0.213572
H145  H     H_    0.342626 0.288523 0.765683 0.106971
H146  H     H_    0.339692 0.226799 0.716667 0.167119
H147  H     H_    0.405355 0.242744 0.754315 0.163655
O50   O     O_3   0.710694 0.837212 0.142968 -0.568343
C178  C     C_3   0.649694 0.828224 0.149693 -0.237087
H148  H     H_    0.636309 0.811561 0.191982 0.085657
H149  H     H_    0.633719 0.798014 0.116484 0.177235
H150  H     H_    0.627254 0.870762 0.143588 0.150572
O51   O     O_3   0.710014 0.403726 0.684759 -0.566000
C179  C     C_3   0.740348 0.428516 0.730723 -0.225469
H151  H     H_    0.772640 0.398366 0.750234 0.080981
H152  H     H_    0.708635 0.444402 0.762931 0.177738
H153  H     H_    0.764971 0.467546 0.715673 0.153154
O52   O     O_3   0.175837 0.672148 0.157386 -0.616632
C180  C     C_3   0.128101 0.672057 0.120284 -0.234316
H154  H     H_    0.139962 0.693637 0.079807 0.125976
H155  H     H_    0.088903 0.693360 0.139558 0.174380
H156  H     H_    0.116141 0.625888 0.110701 0.146799
O53   O     O_3   0.678332 0.832264 0.853696 -0.596064
C181  C     C_3   0.684822 0.871069 0.899520 -0.189908
H157  H     H_    0.705844 0.848997 0.935729 0.119689
H158  H     H_    0.640702 0.885599 0.913601 0.154067
H159  H     H_    0.710170 0.910907 0.887246 0.163105
O54   O     O_3   0.380386 0.235550 0.253744 -0.587174
C182  C     C_3   0.367540 0.184737 0.221981 -0.221559
H160  H     H_    0.337463 0.194644 0.186772 0.106481
H161  H     H_    0.348645 0.149368 0.248695 0.176853
H162  H     H_    0.408943 0.167783 0.203383 0.142841
O55   O     O_3   0.206033 0.760478 0.848243 -0.564210
C183  C     C_3   0.161467 0.720438 0.863644 -0.187176
H163  H     H_    0.171591 0.674456 0.850830 0.079375
H164  H     H_    0.118918 0.733953 0.845844 0.155580
H165  H     H_    0.156671 0.721023 0.910097 0.152890
O56   O     O_3   0.775759 0.364641 0.224070 -0.585604
C184  C     C_3   0.793805 0.332057 0.176404 -0.147310
H166  H     H_    0.756203 0.309172 0.156366 0.096405
H167  H     H_    0.828499 0.299960 0.186999 0.156711
H168  H     H_    0.812634 0.362808 0.145001 0.150037
O57   O     O_3   0.601295 0.280850 0.311327 -0.568480
C185  C     C_3   0.574792 0.250427 0.266269 -0.166832
H169  H     H_    0.604563 0.219425 0.243517 0.061211
H170  H     H_    0.556344 0.282298 0.236215 0.173392
H171  H     H_    0.537573 0.224289 0.283235 0.173862
O58   O     O_3   0.344660 0.668024 0.721093 -0.592164
C186  C     C_3   0.395281 0.703658 0.719621 -0.140958
H172  H     H_    0.401241 0.727711 0.760019 0.117627
H173  H     H_    0.394206 0.735070 0.683980 0.146935
H174  H     H_    0.434034 0.675081 0.713260 0.154506
O59   O     O_3   0.222422 0.375891 0.243071 -0.580722
C187  C     C_3   0.178705 0.354273 0.206899 -0.137328
H175  H     H_    0.141749 0.334411 0.231064 0.168267
H176  H     H_    0.196625 0.321883 0.176083 0.093129
H177  H     H_    0.160954 0.391535 0.182661 0.145788
O60   O     O_3   0.835379 0.691459 0.863443 -0.615393
C188  C     C_3   0.863786 0.705128 0.914158 -0.233623
H178  H     H_    0.832437 0.722918 0.946069 0.132106
H179  H     H_    0.900642 0.736485 0.907138 0.163534
H180  H     H_    0.882469 0.664216 0.931411 0.151822
O61   O     O_3   0.294483 0.842074 0.116506 -0.568671
C189  C     C_3   0.344287 0.855438 0.148875 -0.220533
H181  H     H_    0.355598 0.819865 0.178829 0.081671
H182  H     H_    0.338714 0.897676 0.171320 0.174986
H183  H     H_    0.382197 0.861591 0.120000 0.137330
O62   O     O_3   0.633934 0.222017 0.763620 -0.582025
C190  C     C_3   0.669043 0.201399 0.807721 -0.130681
H184  H     H_    0.692535 0.237956 0.829123 0.092067
H185  H     H_    0.700833 0.167887 0.792486 0.159123
H186  H     H_    0.640186 0.180178 0.839519 0.149844
O63   O     O_3   0.788929 0.649932 0.204653 -0.606290
C191  C     C_3   0.752888 0.623176 0.245882 -0.213047
H187  H     H_    0.705930 0.633779 0.239251 0.108834
H188  H     H_    0.765899 0.635712 0.289238 0.171847
H189  H     H_    0.757715 0.574893 0.242299 0.166112
O64   O     O_3   0.160723 0.272117 0.894284 -0.566423
C192  C     C_3   0.162623 0.333191 0.884178 -0.241220
H190  H     H_    0.168671 0.345005 0.839007 0.084707
H191  H     H_    0.197498 0.353762 0.909775 0.176781
H192  H     H_    0.120516 0.352562 0.898535 0.151744

loop_
_geom_bond_atom_site_label_1
_geom_bond_atom_site_label_2
_ccdc_geom_bond_type
O59   C187  S    
C22   N22   A    
N25   Ni6   S    
C153  H75   S    
C14   C71   A    
C191  H187  S    
C146  H53   S    
C130  H5    S    
O61   C189  S    
C91   O53   S    
C100  O46   S    
C3    N3    A    
O24   C152  S    
C16   N16   A    
C1    N1    A    
C19   O19   S    
C98   C114  A    
C145  H50   S    
C15   O15   S    
C188  H180  S    
O16   C144  S    
O22   C150  S    
C180  H154  S    
C167  H115  S    
N6    N15   A    
N7    N14   A    
O63   C191  S    
N27   Ni7   S    
O32   C160  S    
C35   C115  S    
C92   C102  A    
C134  H18   S    
C145  H51   S    
O7    C135  S    
C81   C111  A    
C144  H46   S    
O12   C140  S    
O8    C136  S    
C106  O40   S    
C28   C73   A    
C55   C65   S    
C131  H8    S    
C157  H86   S    
C161  H97   S    
C85   O59   S    
C21   O21   S    
C159  H93   S    
C27   O27   S    
C8    O8    S    
C163  H103  S    
C22   C78   A    
C47   C64   T    
C162  H101  S    
C48   C63   T    
C173  H134  S    
N4    N9    A    
C81   C121  A    
C138  H28   S    
O13   C141  S    
C188  H179  S    
C190  H185  S    
C169  H122  S    
C130  H4    S    
C40   C55   T    
O48   C176  S    
C164  H108  S    
C141  H38   S    
C90   C104  A    
C101  O43   S    
C84   O62   S    
C95   C122  A    
C147  H56   S    
C103  O41   S    
C187  H176  S    
O45   C173  S    
C180  H156  S    
C149  H62   S    
C176  H144  S    
N20   N25   A    
C53   C71   S    
C191  H189  S    
C6    O6    S    
N24   Ni7   S    
C155  H79   S    
N23   N30   A    
C88   O58   S    
N24   N29   A    
C179  H151  S    
C189  H181  S    
C179  H153  S    
C86   C108  A    
C157  H87   S    
C170  H124  S    
C95   C97   A    
C13   C72   A    
C25   C76   A    
C5    O5    S    
C152  H71   S    
N3    N10   A    
C10   C67   A    
C176  H142  S    
C20   O20   S    
O62   C190  S    
C38   C53   T    
C56   C66   S    
C104  O42   S    
C184  H166  S    
C181  H158  S    
O46   C174  S    
C162  H100  S    
C37   C117  S    
C135  H20   S    
C144  H48   S    
O39   C167  S    
C186  H173  S    
C10   N10   A    
O49   C177  S    
C168  H118  S    
C82   C122  A    
C171  H127  S    
C172  H131  S    
C185  H170  S    
C14   N14   A    
O37   C165  S    
C86   C126  A    
O51   C179  S    
C163  H105  S    
C92   C125  A    
C140  H36   S    
C169  H121  S    
C58   C76   S    
C4    N4    A    
O53   C181  S    
C18   O18   S    
C5    N5    A    
C29   C80   A    
C60   C78   S    
O17   C145  S    
C92   O54   S    
C96   C121  A    
C62   C80   S    
C41   C58   T    
C132  H11   S    
C185  H171  S    
C129  H1    S    
N28   Ni8   S    
C44   C59   T    
O47   C175  S    
C45   C62   T    
O40   C168  S    
C160  H95   S    
O2    C130  S    
O20   C148  S    
C156  H83   S    
C96   C98   A    
C1    C65   A    
C178  H149  S    
C105  C120  A    
O58   C186  S    
C21   N21   A    
C111  C114  A    
C107  C118  A    
C109  C116  A    
C155  H81   S    
N2    Ni2   S    
C89   C103  A    
C17   C73   A    
C165  H109  S    
C98   O48   S    
C91   C101  A    
C139  H31   S    
O9    C137  S    
C136  H23   S    
C150  H66   S    
C151  H67   S    
C168  H120  S    
N29   Ni5   S    
C4    C68   A    
C23   O23   S    
O34   C162  S    
O60   C188  S    
O30   C158  S    
C134  H16   S    
O56   C184  S    
C159  H92   S    
C184  H168  S    
C96   O50   S    
C192  H190  S    
C87   C105  A    
C94   C100  A    
C142  H40   S    
O25   C153  S    
N1    Ni1   S    
C39   C56   T    
C148  H59   S    
C177  H145  S    
C108  O38   S    
C171  H129  S    
C15   N15   A    
C30   C79   A    
C16   O16   S    
O52   C180  S    
C166  H113  S    
C137  H26   S    
C142  H42   S    
C36   C116  S    
C11   O11   S    
C99   O45   S    
C170  H126  S    
O5    C133  S    
C15   C70   A    
C97   O47   S    
C158  H90   S    
C108  C117  A    
C175  H139  S    
C107  O37   S    
C189  H183  S    
C191  H188  S    
C47   C127  S    
N12   Ni4   S    
C137  H27   S    
C51   C69   S    
C33   C113  S    
N6    Ni1   S    
C32   O32   S    
C111  O33   S    
N11   Ni3   S    
C20   N20   A    
C50   C68   S    
C61   C79   S    
C39   C119  S    
C17   O17   S    
C143  H43   S    
C83   O61   S    
N8    N13   A    
C81   O63   S    
N21   N32   A    
C186  H172  S    
O36   C164  S    
O57   C185  S    
C26   O26   S    
C182  H161  S    
C129  H3    S    
C167  H117  S    
O19   C147  S    
C134  H17   S    
C43   C123  S    
C106  C119  A    
C8    N8    A    
O15   C143  S    
C100  C116  A    
C151  H69   S    
N5    Ni2   S    
C86   O60   S    
O54   C182  S    
C112  O34   S    
O43   C171  S    
N17   Ni5   S    
C133  H13   S    
C90   O56   S    
C163  H104  S    
C192  H192  S    
C175  H141  S    
C99   C115  A    
O26   C154  S    
C174  H138  S    
C105  O39   S    
C138  H30   S    
C183  H163  S    
C153  H73   S    
N7    Ni4   S    
C11   N11   A    
C12   O12   S    
C5    C69   A    
C24   N24   A    
C133  H15   S    
C32   C77   A    
N17   N28   A    
C9    N9    A    
N18   N27   A    
N5    N16   A    
C161  H99   S    
C90   C127  A    
C12   N12   A    
C13   N13   A    
C164  H107  S    
C93   C99   A    
C11   C66   A    
C94   C123  A    
O6    C134  S    
C146  H54   S    
C158  H88   S    
O21   C149  S    
C180  H155  S    
C149  H63   S    
C29   O29   S    
C147  H57   S    
N2    N11   A    
C30   O30   S    
C42   C57   T    
C167  H116  S    
C155  H80   S    
C130  H6    S    
C27   N27   A    
C3    C67   A    
C8    C72   A    
C16   C69   A    
C46   C61   T    
C25   N25   A    
O1    C129  S    
C154  H77   S    
N22   N31   A    
C154  H76   S    
C147  H55   S    
C29   N29   A    
C63   C73   S    
C165  H111  S    
C2    C66   A    
C145  H49   S    
O29   C157  S    
C44   C124  S    
C143  H45   S    
C19   N19   A    
C82   C112  A    
C17   N17   A    
O55   C183  S    
N4    Ni4   S    
C152  H70   S    
C48   C128  S    
O35   C163  S    
N3    Ni3   S    
C165  H110  S    
C181  H159  S    
C40   C120  S    
C102  O44   S    
C144  H47   S    
N16   Ni3   S    
O50   C178  S    
N20   Ni8   S    
C34   C114  S    
O14   C142  S    
C93   O51   S    
N15   Ni4   S    
O11   C139  S    
C131  H7    S    
N30   Ni6   S    
C31   C78   A    
C171  H128  S    
C172  H130  S    
C6    C70   A    
C157  H85   S    
C133  H14   S    
C10   O10   S    
N14   Ni2   S    
C162  H102  S    
C110  O36   S    
C174  H136  S    
C173  H133  S    
O3    C131  S    
C12   C65   A    
C183  H165  S    
C139  H32   S    
C101  C117  A    
C168  H119  S    
C33   C50   T    
O23   C151  S    
C190  H186  S    
C57   C75   S    
C132  H10   S    
C129  H2    S    
C179  H152  S    
C2    N2    A    
N10   Ni1   S    
C141  H37   S    
C169  H123  S    
C13   O13   S    
O31   C159  S    
C38   C118  S    
C187  H175  S    
C34   C49   T    
C26   C75   A    
C156  H82   S    
C94   O52   S    
C35   C52   T    
C64   C74   S    
C149  H61   S    
C83   C123  A    
C82   O64   S    
C110  C115  A    
C22   O22   S    
C104  C120  A    
C89   C128  A    
N13   Ni1   S    
C91   C126  A    
O33   C161  S    
C85   C125  A    
C93   C124  A    
O27   C155  S    
O44   C172  S    
C59   C77   S    
C173  H135  S    
C87   C127  A    
C136  H22   S    
O4    C132  S    
O18   C146  S    
C150  H65   S    
C151  H68   S    
C152  H72   S    
C138  H29   S    
C7    C71   A    
N9    Ni2   S    
C189  H182  S    
C176  H143  S    
N23   Ni8   S    
N31   Ni8   S    
C20   C76   A    
C141  H39   S    
N32   Ni7   S    
C41   C121  S    
C184  H167  S    
N19   N26   A    
C3    O3    S    
C181  H157  S    
C28   O28   S    
C140  H35   S    
O42   C170  S    
C24   C80   A    
C166  H112  S    
C9    O9    S    
C135  H19   S    
C186  H174  S    
C83   C109  A    
C27   C74   A    
C148  H58   S    
C177  H146  S    
C102  C118  A    
C131  H9    S    
C182  H162  S    
C185  H169  S    
N18   Ni6   S    
C18   C74   A    
C109  O35   S    
C142  H41   S    
N8    Ni3   S    
C112  C113  A    
C154  H78   S    
C170  H125  S    
C158  H89   S    
C24   O24   S    
C160  H94   S    
C177  H147  S    
C175  H140  S    
C45   C125  S    
C190  H184  S    
O10   C138  S    
C132  H12   S    
N22   Ni5   S    
C84   C110  A    
C25   O25   S    
C160  H96   S    
C7    N7    A    
C88   C106  A    
C178  H148  S    
C187  H177  S    
C156  H84   S    
C143  H44   S    
C188  H178  S    
C161  H98   S    
C178  H150  S    
N26   Ni5   S    
C4    O4    S    
C36   C51   T    
N19   Ni7   S    
C43   C60   T    
C37   C54   T    
C89   O55   S    
O28   C156  S    
C150  H64   S    
O38   C166  S    
C26   N26   A    
C97   C113  A    
C146  H52   S    
C14   O14   S    
C42   C122  S    
O41   C169  S    
C136  H24   S    
C30   N30   A    
C23   N23   A    
C49   C67   S    
C140  H34   S    
C46   C126  S    
C103  C119  A    
N21   Ni6   S    
C18   N18   A    
C84   C124  A    
C23   C79   A    
C159  H91   S    
C172  H132  S    
C19   C75   A    
C9    C68   A    
O64   C192  S    
C192  H191  S    
C85   C107  A    
C2    O2    S    
C174  H137  S    
N1    N12   A    
C135  H21   S    
C1    O1    S    
C183  H164  S    
C153  H74   S    
C139  H33   S    
C7    O7    S    
C148  H60   S    
C52   C70   S    
C182  H160  S    
C31   O31   S    
C6    N6    A    
C166  H114  S    
C54   C72   S    
C87   O57   S    
C137  H25   S    
C21   C77   A    
C28   N28   A    
C95   O49   S    
C164  H106  S    
C88   C128  A    
C31   N31   A    
C32   N32   A    
