data_mof_unit_62767.cif
_audit_creation_date              2012-12-11T15:42:49-0500
_audit_creation_method            fapswitch 2.2
_symmetry_space_group_name_H-M    P1
_symmetry_Int_Tables_number       1
_space_group_crystal_system       triclinic
_cell_length_a                    21.91367
_cell_length_b                    21.913664
_cell_length_c                    22.261949
_cell_angle_alpha                 89.99519
_cell_angle_beta                  90.060267
_cell_angle_gamma                 90.001452
_cell_volume                      10690.3778908

loop_
_atom_site_label
_atom_site_type_symbol
_atom_type_description
_atom_site_fract_x
_atom_site_fract_y
_atom_site_fract_z
_atom_type_partial_charge
C1    C     C_R   0.652105 0.419669 0.414452 0.573894
C2    C     C_R   0.353393 0.425070 0.403378 0.508189
C3    C     C_3   0.594248 0.753546 0.582473 -0.176899
C4    C     C_3   0.251704 0.605120 0.454609 -0.076148
C5    C     C_3   0.755467 0.426584 0.610029 -0.034008
C6    C     C_3   0.591856 0.753479 0.415501 -0.162605
C7    C     C_3   0.417071 0.246348 0.610718 -0.218727
C8    C     C_3   0.753440 0.591927 0.582971 -0.163958
C9    C     C_3   0.270371 0.453688 0.346089 -0.124246
C10   C     C_3   0.429382 0.753330 0.616052 -0.042813
C11   C     C_3   0.567748 0.248070 0.380775 -0.048654
C12   C     C_3   0.258987 0.399965 0.547838 -0.102892
C13   C     C_R   0.420472 0.651658 0.586808 0.570006
C14   C     C_3   0.753549 0.593162 0.416226 -0.175082
C15   C     C_3   0.580305 0.241606 0.600081 -0.044800
C16   C     C_3   0.425521 0.754934 0.388068 -0.048640
C17   C     C_3   0.241956 0.906167 0.945443 -0.111895
C18   C     C_3   0.746918 0.093830 0.081241 -0.171979
C19   C     C_3   0.894891 0.751371 0.954155 -0.075625
C20   C     C_3   0.074307 0.255430 0.109996 -0.036728
C21   C     C_3   0.746349 0.091722 0.914123 -0.167321
C22   C     C_3   0.253850 0.916718 0.110953 -0.219697
C23   C     C_3   0.071175 0.253989 0.885829 -0.036538
C24   C     C_R   0.579613 0.348157 0.413569 0.569527
C25   C     C_3   0.939659 0.755114 0.132917 -0.110683
C26   C     C_3   0.258365 0.080009 0.100322 -0.043398
C27   C     C_3   0.744600 0.925567 0.889198 -0.045783
C28   C     C_3   0.908541 0.253736 0.086650 -0.170439
C29   C     C_3   0.046503 0.770195 0.846473 -0.126341
C30   C     C_3   0.746528 0.928912 0.115479 -0.044118
C31   C     C_3   0.251210 0.067563 0.879343 -0.052217
C32   C     C_3   0.100369 0.758869 0.047063 -0.100365
C33   C     C_3   0.906157 0.252881 0.919418 -0.167979
C34   C     C_R   0.350847 0.421671 0.591171 0.549005
C35   C     C_R   0.649147 0.577977 0.408467 0.547587
C36   C     C_R   0.581206 0.346803 0.582729 0.593427
C37   C     C_R   0.419548 0.652470 0.414840 0.573722
C38   C     C_R   0.147615 0.923337 0.906037 0.533550
C39   C     C_R   0.850860 0.077990 0.091518 0.547914
C40   C     C_R   0.918228 0.847482 0.916800 0.575027
C41   C     C_R   0.349735 0.578498 0.589686 0.545978
C42   C     C_R   0.080749 0.152580 0.084388 0.578761
C43   C     C_R   0.850993 0.077844 0.908011 0.548734
C44   C     C_R   0.148619 0.922971 0.093175 0.532053
C45   C     C_R   0.080067 0.152102 0.914296 0.572442
C46   C     C_R   0.921405 0.849504 0.089310 0.545374
C47   C     C_R   0.153145 0.080954 0.082983 0.591619
C48   C     C_R   0.847363 0.919595 0.915139 0.574034
C49   C     C_R   0.922203 0.148973 0.091971 0.548529
C50   C     C_R   0.075001 0.853328 0.903591 0.510087
C51   C     C_R   0.848206 0.920146 0.086394 0.571262
C52   C     C_R   0.423451 0.352552 0.405656 0.532063
C53   C     C_R   0.151642 0.079667 0.913243 0.568996
C54   C     C_R   0.078494 0.850572 0.090694 0.550157
C55   C     C_R   0.921995 0.149114 0.908355 0.546832
C56   C     C_R   0.637966 0.361693 0.392085 -0.329828
C57   C     C_R   0.363534 0.636845 0.611068 -0.334751
C58   C     C_R   0.369278 0.369029 0.378071 -0.314731
C59   C     C_R   0.633849 0.633683 0.617325 -0.335437
C60   C     C_R   0.361099 0.638753 0.393598 -0.355789
C61   C     C_R   0.639478 0.360465 0.604638 -0.334478
C62   C     C_R   0.633497 0.633479 0.382309 -0.336338
C63   C     C_R   0.578261 0.649334 0.591217 0.547730
C64   C     C_R   0.366826 0.367194 0.618488 -0.333565
C65   C     C_R   0.131142 0.869146 0.878536 -0.316883
C66   C     C_R   0.866490 0.133434 0.117776 -0.335182
C67   C     C_R   0.860891 0.861158 0.893931 -0.355963
C68   C     C_R   0.139480 0.139081 0.105090 -0.333678
C69   C     C_R   0.866514 0.133529 0.882142 -0.335199
C70   C     C_R   0.133119 0.866297 0.117833 -0.335268
C71   C     C_R   0.137912 0.138039 0.891744 -0.328987
C72   C     C_R   0.862906 0.862975 0.110316 -0.335921
C73   C     C_1   0.667378 0.667366 0.337529 0.039500
C74   C     C_R   0.347476 0.581580 0.416689 0.575433
C75   C     C_1   0.330706 0.334584 0.662559 0.044540
C76   C     C_1   0.676539 0.322875 0.355432 0.001586
C77   C     C_1   0.325294 0.675311 0.648249 0.006578
C78   C     C_1   0.334344 0.331709 0.336802 0.051860
C79   C     C_1   0.668179 0.667559 0.661877 0.039273
C80   C     C_1   0.321895 0.674867 0.355033 0.007890
C81   C     C_1   0.677588 0.322442 0.642694 -0.017873
C82   C     C_1   0.176298 0.176831 0.854899 0.002238
C83   C     C_1   0.824124 0.823897 0.146369 0.008976
C84   C     C_1   0.168528 0.834107 0.837610 0.051208
C85   C     C_R   0.652720 0.419278 0.584169 0.576607
C86   C     C_1   0.832469 0.167133 0.162664 0.039795
C87   C     C_1   0.824280 0.822166 0.855607 0.007320
C88   C     C_1   0.177239 0.176379 0.144136 -0.020769
C89   C     C_1   0.832708 0.167608 0.837290 0.040408
C90   C     C_1   0.165696 0.829656 0.161553 0.041925
C91   C     C_1   0.695632 0.695570 0.300054 -0.044854
C92   C     C_1   0.301620 0.306807 0.699762 -0.039374
C93   C     C_1   0.707244 0.292059 0.321952 -0.050508
C94   C     C_1   0.295151 0.706268 0.682014 -0.052787
C95   C     C_1   0.305557 0.301827 0.300920 -0.042509
C96   C     C_R   0.577842 0.648996 0.408116 0.549613
C97   C     C_1   0.696889 0.695484 0.699293 -0.043983
C98   C     C_1   0.290553 0.703926 0.320618 -0.038897
C99   C     C_1   0.707993 0.292121 0.676946 -0.045240
C100  C     C_1   0.206388 0.208088 0.821285 -0.050168
C101  C     C_1   0.793157 0.792887 0.179386 -0.053719
C102  C     C_1   0.198485 0.805178 0.802030 -0.043467
C103  C     C_1   0.804206 0.195192 0.200282 -0.044201
C104  C     C_1   0.794464 0.791336 0.821370 -0.039818
C105  C     C_1   0.207654 0.205930 0.179006 -0.043793
C106  C     C_1   0.804572 0.195839 0.799633 -0.043767
C107  C     C_R   0.423274 0.351611 0.593535 0.530603
C108  C     C_1   0.193154 0.799958 0.198553 -0.039023
C109  C     C_1   0.729083 0.728926 0.256594 -0.023155
C110  C     C_1   0.268429 0.273180 0.743275 -0.022094
C111  C     C_1   0.741976 0.257274 0.280532 -0.018432
C112  C     C_1   0.261097 0.741544 0.723451 -0.019141
C113  C     C_1   0.271657 0.268027 0.257995 -0.022148
C114  C     C_1   0.730775 0.728327 0.742905 -0.022510
C115  C     C_1   0.255292 0.737490 0.278633 -0.020366
C116  C     C_1   0.742529 0.257731 0.718934 -0.018215
C117  C     C_1   0.240171 0.243674 0.779779 -0.017861
C118  C     C_R   0.649125 0.577894 0.591702 0.549022
C119  C     C_1   0.758154 0.757924 0.220356 -0.020167
C120  C     C_1   0.232411 0.771045 0.759566 -0.021986
C121  C     C_1   0.770865 0.228410 0.244003 -0.022658
C122  C     C_1   0.759924 0.756844 0.779531 -0.020830
C123  C     C_1   0.242457 0.239558 0.221348 -0.017416
C124  C     C_1   0.771321 0.229045 0.755748 -0.023221
C125  C     C_1   0.226231 0.766071 0.241989 -0.021944
C126  C     C_3   0.754022 0.428017 0.386118 -0.038645
C127  C     C_3   0.255214 0.560838 0.633225 -0.110446
C128  C     C_3   0.407060 0.258207 0.445012 -0.114201
H1    H     H_    0.735708 0.435372 0.339958 0.089734
H2    H     H_    0.633460 0.740181 0.553506 0.096524
H3    H     H_    0.610523 0.770178 0.626750 0.132242
H4    H     H_    0.571145 0.792363 0.559979 0.149932
H5    H     H_    0.228512 0.631366 0.418613 0.103993
H6    H     H_    0.276657 0.636283 0.485665 0.122831
H7    H     H_    0.215535 0.582295 0.481224 0.166313
H8    H     H_    0.774399 0.380121 0.603335 0.110162
H9    H     H_    0.738814 0.433379 0.656833 0.092863
H10   H     H_    0.793863 0.458789 0.603207 0.139116
H11   H     H_    0.608718 0.770116 0.371470 0.129737
H12   H     H_    0.774004 0.381801 0.391336 0.110082
H13   H     H_    0.630773 0.741017 0.445318 0.093373
H14   H     H_    0.567672 0.792022 0.437279 0.149457
H15   H     H_    0.373032 0.247480 0.585801 0.107939
H16   H     H_    0.409879 0.242403 0.659905 0.145513
H17   H     H_    0.440970 0.204316 0.596151 0.146508
H18   H     H_    0.770831 0.609192 0.626593 0.130796
H19   H     H_    0.740440 0.630597 0.553090 0.093678
H20   H     H_    0.791613 0.567602 0.560734 0.149450
H21   H     H_    0.244018 0.411904 0.335269 0.120978
H22   H     H_    0.305275 0.463224 0.310885 0.089163
H23   H     H_    0.792082 0.460755 0.392372 0.142691
H24   H     H_    0.237418 0.492091 0.345128 0.171303
H25   H     H_    0.437983 0.734501 0.661793 0.093152
H26   H     H_    0.383070 0.773417 0.612254 0.107180
H27   H     H_    0.461983 0.791431 0.609404 0.144717
H28   H     H_    0.613056 0.225920 0.385166 0.110989
H29   H     H_    0.561423 0.268843 0.335489 0.089856
H30   H     H_    0.533369 0.211189 0.385106 0.150937
H31   H     H_    0.243977 0.360105 0.574856 0.099724
H32   H     H_    0.285635 0.384227 0.508173 0.122447
H33   H     H_    0.217451 0.423076 0.530667 0.167419
H34   H     H_    0.229826 0.604621 0.632750 0.113639
H35   H     H_    0.740681 0.632636 0.445089 0.095727
H36   H     H_    0.770125 0.609102 0.371847 0.132657
H37   H     H_    0.792264 0.569834 0.438679 0.149457
H38   H     H_    0.573041 0.252619 0.648386 0.100844
H39   H     H_    0.628107 0.227900 0.590681 0.112839
H40   H     H_    0.551640 0.201318 0.589585 0.130062
H41   H     H_    0.378609 0.772800 0.394584 0.105936
H42   H     H_    0.432653 0.738063 0.341382 0.096113
H43   H     H_    0.456915 0.794057 0.394667 0.140871
H44   H     H_    0.259211 0.867171 0.918535 0.106896
H45   H     H_    0.281837 0.555180 0.675565 0.101544
H46   H     H_    0.216796 0.888910 0.985417 0.105638
H47   H     H_    0.282057 0.932040 0.962115 0.159493
H48   H     H_    0.760826 0.132390 0.051641 0.095001
H49   H     H_    0.729600 0.111174 0.124827 0.131094
H50   H     H_    0.708431 0.070287 0.058621 0.150441
H51   H     H_    0.868825 0.728342 0.917931 0.103682
H52   H     H_    0.863575 0.775999 0.985255 0.123303
H53   H     H_    0.917771 0.715098 0.980646 0.166013
H54   H     H_    0.121085 0.273584 0.103317 0.109704
H55   H     H_    0.067159 0.239071 0.156858 0.094813
H56   H     H_    0.220279 0.524226 0.632495 0.169983
H57   H     H_    0.042706 0.294283 0.102880 0.138205
H58   H     H_    0.730119 0.107861 0.869654 0.131098
H59   H     H_    0.758384 0.131101 0.943482 0.094124
H60   H     H_    0.707650 0.067756 0.935858 0.148747
H61   H     H_    0.253202 0.872699 0.086045 0.109564
H62   H     H_    0.256929 0.909600 0.160222 0.145187
H63   H     H_    0.296089 0.940695 0.097119 0.146442
H64   H     H_    0.063663 0.235585 0.839741 0.090687
H65   H     H_    0.117299 0.274252 0.890799 0.109709
H66   H     H_    0.038251 0.291865 0.892149 0.143564
H67   H     H_    0.366990 0.241899 0.418989 0.106566
H68   H     H_    0.896196 0.729188 0.132434 0.114668
H69   H     H_    0.944928 0.781843 0.175220 0.099332
H70   H     H_    0.976676 0.720609 0.132357 0.170676
H71   H     H_    0.247511 0.072219 0.148577 0.101402
H72   H     H_    0.271845 0.127957 0.091304 0.112598
H73   H     H_    0.298733 0.051599 0.089514 0.130416
H74   H     H_    0.726743 0.878685 0.895985 0.106089
H75   H     H_    0.761015 0.932648 0.842355 0.096092
H76   H     H_    0.705565 0.956986 0.896069 0.140049
H77   H     H_    0.892945 0.269671 0.131377 0.132521
H78   H     H_    0.391428 0.283033 0.485818 0.108972
H79   H     H_    0.868812 0.242056 0.057579 0.094810
H80   H     H_    0.932374 0.292529 0.064922 0.148491
H81   H     H_    0.088296 0.743792 0.835885 0.121083
H82   H     H_    0.037090 0.805029 0.811125 0.089033
H83   H     H_    0.008080 0.737265 0.845482 0.170941
H84   H     H_    0.765368 0.936906 0.161332 0.092517
H85   H     H_    0.726252 0.882723 0.111212 0.107161
H86   H     H_    0.708564 0.961741 0.109106 0.144695
H87   H     H_    0.273452 0.112869 0.883253 0.111042
H88   H     H_    0.229813 0.061135 0.834338 0.088970
H89   H     H_    0.432859 0.217510 0.460329 0.158220
H90   H     H_    0.288106 0.033151 0.883361 0.152371
H91   H     H_    0.139561 0.742923 0.074540 0.100094
H92   H     H_    0.117127 0.785934 0.008065 0.119884
H93   H     H_    0.077042 0.717909 0.028889 0.168321
H94   H     H_    0.868104 0.238637 0.949474 0.094201
H95   H     H_    0.888041 0.270502 0.876215 0.130726
H96   H     H_    0.929969 0.291239 0.941956 0.150733
N1    N     N_R   0.601930 0.442130 0.442240 -0.136331
N2    N     N_R   0.398070 0.442130 0.442240 -0.132696
N3    N     N_R   0.442130 0.601930 0.557760 -0.134581
N4    N     N_R   0.557870 0.398070 0.442240 -0.137458
N5    N     N_R   0.398070 0.442130 0.557760 -0.137978
N6    N     N_R   0.601930 0.557870 0.442240 -0.139290
N7    N     N_R   0.557870 0.398070 0.557760 -0.136687
N8    N     N_R   0.442130 0.601930 0.442240 -0.135430
N9    N     N_R   0.101930 0.942130 0.942240 -0.139331
N10   N     N_R   0.898070 0.057870 0.057760 -0.139089
N11   N     N_R   0.942130 0.898070 0.942240 -0.139017
N12   N     N_R   0.398070 0.557870 0.557760 -0.135048
N13   N     N_R   0.057870 0.101930 0.057760 -0.136709
N14   N     N_R   0.898070 0.057870 0.942240 -0.138475
N15   N     N_R   0.101930 0.942130 0.057760 -0.136290
N16   N     N_R   0.057870 0.101930 0.942240 -0.136424
N17   N     N_R   0.942130 0.898070 0.057760 -0.135346
N18   N     N_R   0.101930 0.057870 0.057760 -0.136746
N19   N     N_R   0.898070 0.942130 0.942240 -0.135708
N20   N     N_R   0.942130 0.101930 0.057760 -0.138605
N21   N     N_R   0.057870 0.898070 0.942240 -0.132765
N22   N     N_R   0.898070 0.942130 0.057760 -0.134776
N23   N     N_R   0.442130 0.398070 0.442240 -0.139327
N24   N     N_R   0.101930 0.057870 0.942240 -0.137128
N25   N     N_R   0.057870 0.898070 0.057760 -0.138045
N26   N     N_R   0.942130 0.101930 0.942240 -0.139393
N27   N     N_R   0.557870 0.601930 0.557760 -0.139101
N28   N     N_R   0.398070 0.557870 0.442240 -0.139211
N29   N     N_R   0.601930 0.442130 0.557760 -0.136934
N30   N     N_R   0.557870 0.601930 0.442240 -0.138600
N31   N     N_R   0.442130 0.398070 0.557760 -0.136374
N32   N     N_R   0.601930 0.557870 0.557760 -0.138824
Ni1   Ni    Ni4+2 0.601020 0.500000 0.500000 0.269101
Ni2   Ni    Ni4+2 0.398980 0.500000 0.500000 0.255040
Ni3   Ni    Ni4+2 0.500000 0.398980 0.500000 0.261315
Ni4   Ni    Ni4+2 0.500000 0.601020 0.500000 0.266881
Ni5   Ni    Ni4+2 0.101020 0.000000 0.000000 0.262425
Ni6   Ni    Ni4+2 0.898980 0.000000 0.000000 0.266425
Ni7   Ni    Ni4+2 1.000000 0.898980 0.000000 0.255586
Ni8   Ni    Ni4+2 0.000000 0.101020 0.000000 0.269015
O1    O     O_3   0.710124 0.438675 0.431257 -0.533865
O2    O     O_3   0.295228 0.449425 0.404538 -0.566795
O3    O     O_3   0.438734 0.709940 0.570126 -0.537933
O4    O     O_3   0.558793 0.290153 0.427947 -0.537750
O5    O     O_3   0.291709 0.441655 0.583914 -0.575769
O6    O     O_3   0.705876 0.550512 0.408511 -0.572657
O7    O     O_3   0.562617 0.289852 0.562002 -0.535630
O8    O     O_3   0.438927 0.710293 0.431791 -0.535544
O9    O     O_3   0.206344 0.945291 0.909252 -0.582334
O10   O     O_3   0.793964 0.050921 0.091054 -0.572759
O11   O     O_3   0.940264 0.789598 0.929417 -0.563729
O12   O     O_3   0.291448 0.555628 0.581051 -0.565605
O13   O     O_3   0.061275 0.210195 0.066767 -0.534269
O14   O     O_3   0.794613 0.049706 0.906691 -0.572338
O15   O     O_3   0.203494 0.954213 0.097040 -0.574754
O16   O     O_3   0.061035 0.210084 0.931119 -0.534951
O17   O     O_3   0.944459 0.791318 0.080636 -0.564831
O18   O     O_3   0.210087 0.062499 0.062198 -0.535912
O19   O     O_3   0.789682 0.938983 0.932506 -0.535456
O20   O     O_3   0.950492 0.205286 0.093378 -0.573677
O21   O     O_3   0.050632 0.795170 0.904858 -0.566281
O22   O     O_3   0.789973 0.938597 0.069687 -0.537337
O23   O     O_3   0.445565 0.293874 0.408320 -0.583316
O24   O     O_3   0.209770 0.058801 0.927069 -0.537319
O25   O     O_3   0.058484 0.791501 0.082933 -0.575891
O26   O     O_3   0.949013 0.206017 0.908644 -0.573836
O27   O     O_3   0.551227 0.706272 0.590452 -0.571701
O28   O     O_3   0.289601 0.559682 0.429489 -0.563727
O29   O     O_3   0.710239 0.438945 0.566548 -0.534377
O30   O     O_3   0.549813 0.705418 0.406889 -0.572179
O31   O     O_3   0.454706 0.296891 0.597860 -0.575464
O32   O     O_3   0.705571 0.549923 0.592704 -0.574747

loop_
_geom_bond_atom_site_label_1
_geom_bond_atom_site_label_2
_ccdc_geom_bond_type
C127  H45   S    
C5    H8    S    
C63   N27   A    
C52   N23   A    
C9    H24   S    
C56   C76   S    
C62   C96   A    
N15   N25   A    
C3    H2    S    
C84   C102  T    
C51   O22   S    
C31   O24   S    
C128  H67   S    
C3    O27   S    
C127  O12   S    
N9    N21   A    
C10   H26   S    
C52   O23   S    
C7    H15   S    
C33   O26   S    
C98   C115  S    
C17   H44   S    
N28   Ni2   S    
C5    H10   S    
C74   N28   A    
C8    H20   S    
N3    N12   A    
C11   H29   S    
C85   N29   A    
C11   H28   S    
N13   N18   A    
C21   H60   S    
C3    H3    S    
C118  O32   S    
C47   O18   S    
C1    C56   A    
C95   C113  S    
C55   O26   S    
C48   N19   A    
C54   O25   S    
C27   O19   S    
C76   C93   T    
C107  O31   S    
C44   O15   S    
C31   H87   S    
N26   Ni8   S    
C27   H74   S    
C77   C94   T    
C14   H35   S    
N1    N4    A    
C105  C123  S    
C60   C74   A    
C6    H11   S    
C53   N24   A    
C7    H16   S    
C14   H37   S    
C25   H70   S    
N5    N31   A    
C12   H33   S    
N9    Ni5   S    
C16   H41   S    
C64   C75   S    
C19   O11   S    
C91   C109  S    
C18   H49   S    
C111  C121  T    
C40   C67   A    
C54   C70   A    
C89   C106  T    
N11   Ni7   S    
C11   O4    S    
C38   C65   A    
C34   O5    S    
C29   H83   S    
N8    N28   A    
C37   O8    S    
C30   O22   S    
C108  C125  S    
C6    H14   S    
C50   N21   A    
C26   H72   S    
C46   C72   A    
N22   Ni6   S    
C71   C82   S    
N5    Ni2   S    
C45   O16   S    
C20   H57   S    
C12   H31   S    
C24   O4    S    
N13   Ni8   S    
C63   O27   S    
C28   H77   S    
N2    Ni2   S    
C15   H39   S    
C70   C90   S    
C128  H78   S    
N16   Ni8   S    
C40   N11   A    
C15   O7    S    
C86   C103  T    
C13   O3    S    
C110  C117  T    
C23   H64   S    
C16   O8    S    
C48   O19   S    
C21   H59   S    
C4    H6    S    
C20   O13   S    
C46   O17   S    
C9    H21   S    
N31   Ni3   S    
C9    H22   S    
N4    Ni3   S    
C49   C66   A    
C118  N32   A    
N17   N22   A    
C101  C119  S    
C57   C77   S    
C6    O30   S    
C21   H58   S    
C26   H73   S    
C25   H69   S    
C12   O5    S    
C73   C91   T    
C53   C71   A    
C10   O3    S    
C59   C79   S    
C99   C116  S    
C112  C120  T    
C42   O13   S    
C7    O31   S    
C22   O15   S    
C53   O24   S    
C31   H88   S    
C81   C99   T    
C40   O11   S    
N7    Ni3   S    
C46   N17   A    
C12   H32   S    
C109  C119  T    
C27   H76   S    
C10   H25   S    
C67   C87   S    
C22   H61   S    
C114  C122  T    
C61   C81   S    
C37   N8    A    
C127  H56   S    
C4    O28   S    
C18   H48   S    
C66   C86   S    
C26   H71   S    
C43   N14   A    
C5    O29   S    
N27   Ni4   S    
C30   H86   S    
C62   C73   S    
C126  O1    S    
C126  H23   S    
C69   C89   S    
C17   O9    S    
C113  C123  T    
N6    Ni1   S    
N30   Ni4   S    
C78   C95   T    
C23   O16   S    
C38   N9    A    
C85   O29   S    
N32   Ni1   S    
C23   H65   S    
C34   C64   A    
C55   N26   A    
C107  N31   A    
C15   H38   S    
C55   C69   A    
C37   C60   A    
N25   Ni7   S    
C6    H13   S    
C74   O28   S    
C19   H53   S    
C25   H68   S    
N11   N19   A    
C32   H92   S    
C41   O12   S    
C52   C58   A    
N3    Ni4   S    
C93   C111  S    
C20   H55   S    
N20   Ni8   S    
C75   C92   T    
C39   O10   S    
N19   Ni6   S    
C29   H82   S    
C127  H34   S    
C90   C108  T    
C4    H7    S    
C50   O21   S    
N8    Ni4   S    
C51   N22   A    
C28   H80   S    
C39   C66   A    
C27   H75   S    
C15   H40   S    
C13   C57   A    
C34   N5    A    
C22   H62   S    
C51   C72   A    
C35   O6    S    
C25   O17   S    
C36   C61   A    
N21   Ni7   S    
C44   N15   A    
C19   H51   S    
C47   C68   A    
C49   N20   A    
C102  C120  S    
C17   H46   S    
C2    N2    A    
C64   C107  A    
C20   H54   S    
N24   Ni5   S    
C1    N1    A    
C28   O20   S    
C60   C80   S    
C29   O21   S    
C116  C124  T    
C80   C98   T    
C59   C63   A    
C79   C97   T    
C8    H18   S    
C103  C121  S    
C128  O23   S    
N6    N30   A    
C36   O7    S    
C115  C125  T    
C10   H27   S    
C13   N3    A    
C39   N10   A    
N23   Ni3   S    
C3    H4    S    
C14   O6    S    
C38   O9    S    
C29   H81   S    
C65   C84   S    
C41   N12   A    
C24   C56   A    
C8    O32   S    
C9    O2    S    
C49   O20   S    
N12   Ni2   S    
C126  H1    S    
C82   C100  T    
C35   N6    A    
C33   H95   S    
C61   C85   A    
C22   H63   S    
C45   N16   A    
C41   C57   A    
C5    H9    S    
C31   H90   S    
C47   N18   A    
C21   O14   S    
C33   H94   S    
N2    N23   A    
C30   H84   S    
C88   C105  T    
C16   H43   S    
C92   C110  S    
N27   N32   A    
C43   O14   S    
C32   H93   S    
N1    Ni1   S    
C36   N7    A    
C68   C88   S    
C19   H52   S    
C23   H66   S    
C94   C112  S    
C126  H12   S    
N18   Ni5   S    
C35   C62   A    
C44   C70   A    
C42   C68   A    
C48   C67   A    
C14   H36   S    
C2    C58   A    
N7    N29   A    
C50   C65   A    
C96   O30   S    
C26   O18   S    
C32   H91   S    
N14   Ni6   S    
C58   C78   S    
C72   C83   S    
C96   N30   A    
C87   C104  T    
C8    H19   S    
C33   H96   S    
C16   H42   S    
C18   O10   S    
N10   Ni6   S    
C104  C122  S    
C59   C118  A    
C18   H50   S    
C43   C69   A    
C54   N25   A    
N17   Ni7   S    
C32   O25   S    
C106  C124  S    
N16   N24   A    
C28   H79   S    
C83   C101  T    
N15   Ni5   S    
N29   Ni1   S    
C45   C71   A    
C100  C117  S    
C1    O1    S    
C7    H17   S    
C97   C114  S    
C24   N4    A    
C128  H89   S    
N14   N26   A    
C17   H47   S    
C11   H30   S    
N10   N20   A    
C4    H5    S    
C30   H85   S    
C42   N13   A    
C2    O2    S    
