data_mof_unit_32990.cif
_audit_creation_date              2012-10-26T19:16:22-0400
_audit_creation_method            fapswitch 2.2
_symmetry_space_group_name_H-M    P1
_symmetry_Int_Tables_number       1
_space_group_crystal_system       triclinic
_cell_length_a                    14.7691
_cell_length_b                    15.86134
_cell_length_c                    15.992041
_cell_angle_alpha                 90.140087
_cell_angle_beta                  89.328806
_cell_angle_gamma                 69.841465
_cell_volume                      3516.44803782

loop_
_atom_site_label
_atom_site_type_symbol
_atom_type_description
_atom_site_fract_x
_atom_site_fract_y
_atom_site_fract_z
_atom_type_partial_charge
C1    C     C_R   0.500490 0.499944 0.340939 0.530997
C2    C     C_R   0.503290 0.496865 0.087314 -0.056817
C3    C     C_R   0.411190 0.524625 0.958717 0.203291
C4    C     C_R   0.590764 0.471992 0.041397 0.245852
C5    C     C_1   0.498392 0.498782 0.823013 0.070474
C6    C     C_1   0.503138 0.498166 0.177055 0.077073
C7    C     C_1   0.501969 0.499136 0.252018 0.027819
C8    C     C_1   0.498807 0.499381 0.748035 0.048767
C9    C     C_R   0.937227 0.536388 0.566388 0.209567
C10   C     C_R   0.065008 0.457122 0.433252 0.229253
C11   C     C_R   0.903494 0.498265 0.499097 -0.078230
C12   C     C_R   0.499590 0.499929 0.659081 0.554715
C13   C     C_R   0.098407 0.496557 0.500443 -0.077224
C14   C     C_R   0.967807 0.459566 0.431869 0.238467
C15   C     C_R   0.034489 0.533865 0.567917 0.216440
C16   C     C_R   0.558052 0.327464 0.502719 0.561878
C17   C     C_R   0.441862 0.672720 0.498350 0.554647
C18   C     C_1   0.802806 0.499497 0.499316 0.191737
C19   C     C_1   0.197738 0.498992 0.500234 0.193571
C20   C     C_R   0.592683 0.229726 0.513998 0.007791
C21   C     C_R   0.406675 0.771277 0.492582 0.003964
C22   C     C_R   0.703573 0.092736 0.571990 -0.116633
C23   C     C_R   0.602244 0.911472 0.554983 -0.128262
C24   C     C_R   0.286120 0.913648 0.456097 -0.113033
C25   C     C_R   0.680289 0.184084 0.553989 0.249777
C26   C     C_R   0.313682 0.820449 0.463916 0.258358
C27   C     C_R   0.531100 0.183615 0.491710 -0.178803
C28   C     C_R   0.470806 0.815845 0.511354 -0.176616
C29   C     C_R   0.550570 0.093588 0.514205 0.021527
C30   C     C_R   0.445242 0.909238 0.502223 0.020635
C31   C     C_R   0.640163 0.047496 0.551992 0.010113
C32   C     C_R   0.351408 0.957822 0.473314 0.008102
C33   C     C_R   0.483168 0.048640 0.501462 0.048820
C34   C     C_R   0.387946 0.094723 0.474597 -0.130568
C35   C     C_R   0.510760 0.955254 0.519337 0.048944
C36   C     C_3   0.254218 0.761412 0.357281 0.000828
C37   C     C_3   0.193638 0.703888 0.336266 -0.337390
C38   C     C_3   0.824044 0.208198 0.545113 -0.002681
C39   C     C_3   0.886770 0.252405 0.589535 -0.368779
C40   C     C_3   0.699900 0.350001 0.888195 0.017720
C41   C     C_3   0.784753 0.323640 0.826909 -0.338544
C42   C     C_3   0.305375 0.468497 0.110215 0.005686
C43   C     C_3   0.213955 0.495361 0.163828 -0.326497
C44   C     C_3   0.086942 0.516669 0.702612 0.009258
C45   C     C_R   0.664819 0.957169 0.571823 -0.130921
C46   C     C_3   0.073984 0.572812 0.781969 -0.279277
C47   C     C_3   0.934170 0.343853 0.370041 -0.021684
C48   C     C_3   0.865751 0.326543 0.307449 -0.328424
C49   C     C_3   0.833977 0.665678 0.623438 0.005262
C50   C     C_3   0.766541 0.704778 0.697248 -0.359095
C51   C     C_3   0.188463 0.334146 0.386174 -0.010772
C52   C     C_3   0.235871 0.284912 0.306716 -0.371239
C53   C     C_R   0.323518 0.050049 0.461227 -0.134298
C54   C     C_R   0.587987 0.468575 0.953522 0.213410
C55   C     C_R   0.414124 0.520374 0.046585 0.209493
C56   C     C_R   0.498634 0.497596 0.912801 -0.071012
Cu1   Cu    Cu3+1 0.589210 0.500030 0.500000 1.013097
Cu2   Cu    Cu3+1 0.410790 0.499970 0.500000 1.022893
H1    H     H_    0.733269 0.921301 0.600793 0.105039
H2    H     H_    0.225449 0.825663 0.322402 0.125642
H3    H     H_    0.117521 0.738699 0.356217 0.161686
H4    H     H_    0.196197 0.691512 0.267753 0.120679
H5    H     H_    0.222201 0.638349 0.368680 0.183593
H6    H     H_    0.813246 0.232640 0.479516 0.134674
H7    H     H_    0.863474 0.134398 0.544679 0.116848
H8    H     H_    0.898474 0.228739 0.655153 0.156965
H9    H     H_    0.957898 0.234620 0.557191 0.075591
H10   H     H_    0.851135 0.326523 0.589707 0.167803
H11   H     H_    0.756528 0.498724 0.198631 0.373559
H12   H     H_    0.251357 0.088099 0.440470 0.095904
H13   H     H_    0.313998 0.684566 0.861834 0.343247
H14   H     H_    0.640269 0.332887 0.858873 0.113390
H15   H     H_    0.722406 0.309900 0.946191 0.178309
H16   H     H_    0.846422 0.338399 0.854427 0.183993
H17   H     H_    0.807531 0.250696 0.812524 0.104380
H18   H     H_    0.763582 0.361804 0.767868 0.177456
H19   H     H_    0.363684 0.417232 0.144908 0.104116
H20   H     H_    0.291592 0.438007 0.051052 0.179539
H21   H     H_    0.155136 0.549019 0.132452 0.199174
H22   H     H_    0.190805 0.436472 0.173266 0.127437
H23   H     H_    0.541632 0.775026 0.530953 0.130526
H24   H     H_    0.227479 0.520311 0.225737 0.162951
H25   H     H_    0.163351 0.471260 0.697357 0.160032
H26   H     H_    0.040112 0.474735 0.708903 0.145100
H27   H     H_    0.997936 0.618626 0.788066 0.152600
H28   H     H_    0.091868 0.528294 0.837341 0.161915
H29   H     H_    0.121954 0.613441 0.779812 0.237058
H30   H     H_    0.910301 0.331337 0.433589 0.098333
H31   H     H_    0.007745 0.295364 0.357297 0.140234
H32   H     H_    0.888307 0.336391 0.242778 0.204640
H33   H     H_    0.866752 0.256511 0.313653 0.096089
H34   H     H_    0.467525 0.220403 0.457362 0.119390
H35   H     H_    0.791101 0.373434 0.319401 0.188209
H36   H     H_    0.791058 0.681735 0.565051 0.122092
H37   H     H_    0.889770 0.698276 0.621551 0.173391
H38   H     H_    0.806803 0.687629 0.756661 0.175438
H39   H     H_    0.735664 0.778973 0.692048 0.089016
H40   H     H_    0.706855 0.677210 0.698276 0.172738
H41   H     H_    0.150566 0.293128 0.418072 0.097400
H42   H     H_    0.246402 0.338796 0.427645 0.130543
H43   H     H_    0.280334 0.320591 0.276632 0.149395
H44   H     H_    0.283251 0.215604 0.321928 0.096361
H45   H     H_    0.769254 0.058084 0.605427 0.112870
H46   H     H_    0.179864 0.281342 0.262483 0.167610
H47   H     H_    0.214145 0.951125 0.434594 0.113869
H48   H     H_    0.627265 0.842228 0.573462 0.096760
H49   H     H_    0.359504 0.166260 0.465607 0.093269
H50   H     H_    0.329792 0.724345 0.336004 0.131883
N1    N     N_1   0.276700 0.500030 0.499980 -0.190204
N2    N     N_1   0.723300 0.499970 0.500020 -0.190358
O1    O     O_R   0.575310 0.500040 0.380310 -0.482212
O2    O     O_3   0.734398 0.231511 0.587628 -0.545233
O3    O     O_2   0.723797 0.353798 0.134393 -0.335893
O4    O     O_2   0.784135 0.440325 0.035336 -0.226024
O5    O     O_3   0.694404 0.521225 0.168873 -0.517666
O6    O     O_2   0.286605 0.480965 0.864107 -0.307257
O7    O     O_2   0.215003 0.603920 0.963817 -0.249575
O8    O     O_3   0.300401 0.635822 0.831486 -0.516509
O9    O     O_3   0.672436 0.442739 0.906416 -0.500972
O10   O     O_3   0.329620 0.545615 0.093612 -0.511578
O11   O     O_3   0.064533 0.574764 0.633120 -0.543056
O12   O     O_R   0.424690 0.499960 0.619690 -0.467304
O13   O     O_3   0.933451 0.432544 0.360196 -0.514740
O14   O     O_3   0.876436 0.571960 0.633832 -0.545947
O15   O     O_3   0.124728 0.420750 0.365259 -0.527489
O16   O     O_R   0.424640 0.500000 0.380310 -0.516124
O17   O     O_R   0.575360 0.500000 0.619690 -0.491672
O18   O     O_R   0.617590 0.370200 0.500000 -0.463762
O19   O     O_R   0.382410 0.629800 0.500000 -0.440348
O20   O     O_R   0.466910 0.370160 0.500000 -0.519766
O21   O     O_R   0.533090 0.629840 0.500000 -0.515682
O22   O     O_3   0.249010 0.778043 0.444344 -0.533136
S1    S     S_3+6 0.702733 0.443961 0.094160 0.014109
S2    S     S_3+6 0.299151 0.561213 0.905633 -0.003768

loop_
_geom_bond_atom_site_label_1
_geom_bond_atom_site_label_2
_ccdc_geom_bond_type
C21   C26   A    
C11   C18   S    
C23   C45   A    
C36   H50   S    
Cu2   N1    S    
C39   H10   S    
C5    C56   S    
C44   H25   S    
C42   O10   S    
Cu1   O18   S    
C37   H4    S    
C12   O17   A    
C52   H44   S    
C30   C35   A    
C34   H49   S    
C36   C37   S    
C24   C26   A    
C2    C55   A    
C36   O22   S    
C38   C39   S    
C11   C14   A    
C27   C29   A    
C20   C25   A    
O7    S2    D    
Cu2   O19   S    
C43   H21   S    
C29   C33   A    
C44   O11   S    
C9    O14   S    
C40   H15   S    
C25   O2    S    
C41   H16   S    
C3    C55   A    
C52   H46   S    
C47   C48   S    
C48   H33   S    
C49   H36   S    
C10   O15   S    
C16   O20   A    
O8    S2    S    
C16   C20   S    
C46   H27   S    
C48   H32   S    
C54   O9    S    
C47   H31   S    
C2    C6    S    
C53   H12   S    
C37   H5    S    
C44   C46   S    
C38   H6    S    
C55   O10   S    
C19   N1    T    
C51   H41   S    
C54   C56   A    
C52   H43   S    
Cu2   O12   S    
C50   H40   S    
C48   H35   S    
C13   C19   S    
C17   O19   A    
C51   C52   S    
C51   O15   S    
C1    O16   A    
C22   C31   A    
O5    S1    S    
C36   H2    S    
C43   H22   S    
C49   O14   S    
C22   C25   A    
C17   C21   S    
C22   H45   S    
C2    C4    A    
C24   C32   A    
C17   O21   A    
C41   H17   S    
C16   O18   A    
C3    C56   A    
C47   O13   S    
Cu1   N2    S    
C38   H7    S    
C8    C12   S    
C33   C34   A    
C27   H34   S    
C49   H37   S    
O6    S2    D    
C9    C11   A    
C34   C53   A    
C40   C41   S    
C21   C28   A    
Cu2   O16   S    
C23   C35   A    
C13   C15   A    
C10   C14   A    
C39   H8    S    
C42   C43   S    
C38   O2    S    
C32   C53   A    
C26   O22   S    
C46   H29   S    
C51   H42   S    
H11   O5    S    
C50   H39   S    
C14   O13   S    
C40   H14   S    
H13   O8    S    
C4    C54   A    
C28   H23   S    
C1    C7    S    
C39   H9    S    
Cu1   O21   S    
C18   N2    T    
C44   H26   S    
C10   C13   A    
Cu1   O17   S    
C5    C8    T    
C37   H3    S    
C42   H20   S    
C6    C7    T    
C20   C27   A    
C3    S2    S    
C47   H30   S    
C28   C30   A    
C9    C15   A    
C29   C31   A    
C1    O1    A    
C41   H18   S    
C30   C32   A    
C23   H48   S    
C50   H38   S    
Cu1   Cu2   S    
Cu1   O1    S    
Cu2   O20   S    
C33   C35   A    
O4    S1    D    
C15   O11   S    
C40   O9    S    
C12   O12   A    
C42   H19   S    
C45   H1    S    
C49   C50   S    
C31   C45   A    
C43   H24   S    
O3    S1    D    
C24   H47   S    
C4    S1    S    
C46   H28   S    
