data_mof_unit_41450.cif
_audit_creation_date              2012-12-11T16:23:58-0500
_audit_creation_method            fapswitch 2.2
_symmetry_space_group_name_H-M    P1
_symmetry_Int_Tables_number       1
_space_group_crystal_system       triclinic
_cell_length_a                    14.751796
_cell_length_b                    14.763582
_cell_length_c                    33.27261
_cell_angle_alpha                 96.044559
_cell_angle_beta                  96.207689
_cell_angle_gamma                 61.219711
_cell_volume                      6302.24789693

loop_
_atom_site_label
_atom_site_type_symbol
_atom_type_description
_atom_site_fract_x
_atom_site_fract_y
_atom_site_fract_z
_atom_type_partial_charge
C1    C     C_R   0.390801 0.700106 0.446313 0.542038
C2    C     C_R   0.327286 0.346874 0.309133 0.037634
C3    C     C_R   0.410087 0.264622 0.328628 -0.111938
C4    C     C_R   0.430999 0.273937 0.370286 -0.123872
C5    C     C_R   0.389320 0.248694 0.166759 -0.162107
C6    C     C_R   0.381651 0.230219 0.124949 -0.142067
C7    C     C_R   0.210472 0.379691 0.121392 -0.109095
C8    C     C_R   0.217077 0.397307 0.163602 0.283629
C9    C     C_R   0.306442 0.330245 0.186190 0.050453
C10   C     C_1   0.310903 0.339091 0.229530 0.022863
C11   C     C_1   0.316428 0.343357 0.265863 -0.011175
C12   C     C_R   0.405746 0.386311 0.434040 0.543701
C13   C     C_R   0.290673 0.293314 0.102038 -0.021867
C14   C     C_R   0.758525 0.372144 0.410708 0.021560
C15   C     C_R   0.793504 0.432962 0.394552 -0.130043
C16   C     C_R   0.825792 0.410660 0.355281 -0.119613
C17   C     C_R   0.823829 0.327074 0.331525 0.035877
C18   C     C_R   0.798327 0.260494 0.349019 -0.121655
C19   C     C_R   0.765809 0.282921 0.388345 -0.132876
C20   C     C_R   0.845434 0.306654 0.206348 0.347022
C21   C     C_R   0.837337 0.316598 0.287803 0.350310
C22   C     C_R   0.842110 0.386850 0.143689 -0.131279
C23   C     C_R   0.700989 0.409874 0.447609 0.546141
C24   C     C_R   0.869289 0.377007 0.104114 -0.138238
C25   C     C_R   0.914576 0.195349 0.100066 -0.135963
C26   C     C_R   0.887367 0.205247 0.139757 -0.127829
C27   C     C_R   0.855576 0.299987 0.162487 0.036818
C28   C     C_R   0.910270 0.280132 0.082621 0.024388
C29   C     C_R   0.369549 0.758723 0.410279 0.021801
C30   C     C_R   0.272860 0.795434 0.388498 -0.132368
C31   C     C_R   0.259797 0.829898 0.349877 -0.118834
C32   C     C_R   0.343360 0.827800 0.332367 0.036894
C33   C     C_R   0.437076 0.800199 0.355660 -0.120041
C34   C     C_R   0.393354 0.701677 0.561198 0.551483
C35   C     C_R   0.450031 0.766059 0.394361 -0.131169
C36   C     C_R   0.328551 0.850223 0.207419 0.369671
C37   C     C_R   0.336193 0.842977 0.288888 0.342818
C38   C     C_R   0.244608 0.848215 0.137593 0.267848
C39   C     C_R   0.233293 0.869368 0.096748 -0.116115
C40   C     C_R   0.375147 0.909773 0.106842 -0.151207
C41   C     C_R   0.389997 0.884811 0.147066 -0.171901
C42   C     C_R   0.322471 0.858279 0.163303 0.043941
C43   C     C_R   0.293575 0.906809 0.081921 -0.020997
C44   C     C_R   0.371512 0.369163 0.585113 0.019464
C45   C     C_R   0.407347 0.388855 0.549015 0.544634
C46   C     C_R   0.284996 0.448652 0.603960 -0.128389
C47   C     C_R   0.265829 0.439374 0.643040 -0.120049
C48   C     C_R   0.332971 0.350554 0.663821 0.032807
C49   C     C_R   0.413695 0.267440 0.643518 -0.122583
C50   C     C_R   0.432710 0.276589 0.604482 -0.131175
C51   C     C_R   0.318640 0.348070 0.788533 0.346347
C52   C     C_R   0.325294 0.347888 0.707386 0.346215
C53   C     C_R   0.218514 0.403538 0.850506 -0.122003
C54   C     C_R   0.207324 0.383915 0.889259 -0.131225
C55   C     C_R   0.386347 0.249050 0.893015 -0.129903
C56   C     C_R   0.701366 0.413602 0.562681 0.541627
C57   C     C_R   0.397486 0.268608 0.854346 -0.120940
C58   C     C_R   0.312287 0.342558 0.831993 0.034404
C59   C     C_R   0.289781 0.303038 0.909987 0.022506
C60   C     C_R   0.754346 0.380514 0.602891 0.018893
C61   C     C_R   0.777027 0.448339 0.629684 -0.127814
C62   C     C_R   0.805437 0.427592 0.670437 -0.111340
C63   C     C_R   0.812031 0.338772 0.684797 0.040409
C64   C     C_R   0.795966 0.267638 0.657937 -0.112841
C65   C     C_R   0.767544 0.288155 0.617157 -0.128814
C66   C     C_R   0.886381 0.212275 0.822797 -0.110777
C67   C     C_R   0.369388 0.366088 0.392747 0.020137
C68   C     C_R   0.913798 0.201203 0.864209 -0.127308
C69   C     C_R   0.872400 0.381927 0.873266 -0.125971
C70   C     C_R   0.844849 0.392792 0.831913 -0.110845
C71   C     C_R   0.854720 0.307308 0.806484 0.041528
C72   C     C_1   0.839491 0.315805 0.763450 -0.022394
C73   C     C_1   0.827894 0.324789 0.727478 -0.022930
C74   C     C_R   0.910509 0.285106 0.889627 0.019484
C75   C     C_R   0.376747 0.755546 0.601967 0.016409
C76   C     C_R   0.277799 0.805236 0.617896 0.256729
C77   C     C_R   0.269315 0.832365 0.659473 -0.090062
C78   C     C_R   0.281772 0.445357 0.373265 -0.126846
C79   C     C_R   0.357478 0.813868 0.684970 -0.004414
C80   C     C_R   0.453980 0.772810 0.668841 -0.130995
C81   C     C_R   0.463625 0.744087 0.627611 -0.176416
C82   C     C_R   0.396222 0.884333 0.832623 -0.111377
C83   C     C_R   0.376654 0.911906 0.873450 -0.126157
C84   C     C_R   0.227997 0.881420 0.862926 -0.126334
C85   C     C_R   0.247841 0.853789 0.822145 -0.111186
C86   C     C_R   0.330185 0.857983 0.806758 0.039485
C87   C     C_1   0.342274 0.842092 0.764003 -0.020254
C88   C     C_1   0.349865 0.830049 0.727984 -0.019147
C89   C     C_R   0.261142 0.435835 0.331570 -0.106340
C90   C     C_R   0.290268 0.913982 0.888726 0.019659
C91   C     C_R   0.963948 0.263960 0.045680 0.543877
C92   C     C_R   0.272654 0.259325 0.060074 0.547381
C93   C     C_R   0.258968 0.959955 0.043880 0.547651
C94   C     C_R   0.962677 0.267589 0.930699 0.543248
C95   C     C_R   0.270868 0.264066 0.945380 0.546552
C96   C     C_R   0.256095 0.965045 0.928953 0.543973
Cr1   Cr    Cr6+3 0.576280 0.580550 0.506370 1.008498
Cr2   Cr    Cr6+3 0.346780 0.572400 0.496520 1.027557
Cr3   Cr    Cr6+3 0.576960 0.347070 0.497150 1.008720
Cr4   Cr    Cr6+3 0.087320 0.083240 0.984860 1.011481
Cr5   Cr    Cr6+3 0.087720 0.316210 0.996740 1.013773
Cr6   Cr    Cr6+3 0.317350 0.090340 0.995890 1.013605
H1    H     H_    0.444772 0.163210 0.110935 0.141153
H2    H     H_    0.740146 0.234069 0.400167 0.127807
H3    H     H_    0.864012 0.443954 0.091268 0.128275
H4    H     H_    0.847120 0.462185 0.342871 0.131836
H5    H     H_    0.797208 0.194805 0.331572 0.132351
H6    H     H_    0.815293 0.461543 0.160141 0.127700
H7    H     H_    0.945653 0.119668 0.084159 0.122979
H8    H     H_    0.897105 0.137309 0.153307 0.118805
H9    H     H_    0.209025 0.791965 0.400268 0.127540
H10   H     H_    0.525221 0.739204 0.410654 0.130511
H11   H     H_    0.173177 0.862169 0.077201 0.131356
H12   H     H_    0.458318 0.196643 0.184157 0.122445
H13   H     H_    0.185963 0.852421 0.332938 0.135162
H14   H     H_    0.502397 0.799283 0.343220 0.134877
H15   H     H_    0.423372 0.937742 0.096101 0.140589
H16   H     H_    0.450357 0.892890 0.166111 0.140072
H17   H     H_    0.235988 0.520724 0.589647 0.145814
H18   H     H_    0.499251 0.213520 0.590540 0.129747
H19   H     H_    0.132067 0.427261 0.901709 0.130646
H20   H     H_    0.202207 0.504219 0.657754 0.137948
H21   H     H_    0.465507 0.197087 0.658472 0.132738
H22   H     H_    0.461439 0.195339 0.311359 0.114150
H23   H     H_    0.151830 0.461961 0.834188 0.132467
H24   H     H_    0.451682 0.187205 0.908525 0.129986
H25   H     H_    0.471448 0.221839 0.841199 0.133518
H26   H     H_    0.943403 0.125488 0.875790 0.128154
H27   H     H_    0.894058 0.145714 0.803292 0.111476
H28   H     H_    0.801233 0.198494 0.668804 0.111754
H29   H     H_    0.750591 0.234376 0.597341 0.124364
H30   H     H_    0.767239 0.520226 0.619739 0.126484
H31   H     H_    0.820042 0.466775 0.819518 0.111015
H32   H     H_    0.869014 0.447956 0.891992 0.127526
H33   H     H_    0.498871 0.211530 0.384393 0.128378
H34   H     H_    0.818019 0.482973 0.691062 0.112672
H35   H     H_    0.425882 0.936894 0.892457 0.128657
H36   H     H_    0.460318 0.887530 0.820926 0.113113
H37   H     H_    0.522596 0.758551 0.688420 0.123561
H38   H     H_    0.540426 0.706732 0.616401 0.139462
H39   H     H_    0.196503 0.833155 0.802291 0.114841
H40   H     H_    0.160830 0.882358 0.873693 0.128128
H41   H     H_    0.194236 0.864843 0.671947 0.123577
H42   H     H_    0.232831 0.517274 0.389710 0.127879
H43   H     H_    0.140478 0.430496 0.104193 0.132544
H44   H     H_    0.196689 0.499709 0.316602 0.120080
H45   H     H_    0.790068 0.501458 0.411278 0.129708
N1    N     N_R   0.839324 0.390402 0.229518 -0.248715
N2    N     N_R   0.243412 0.423101 0.726992 -0.235035
N3    N     N_R   0.403913 0.273347 0.729178 -0.234716
N4    N     N_R   0.400496 0.273247 0.768897 -0.235102
N5    N     N_R   0.835055 0.395422 0.269395 -0.235450
N6    N     N_R   0.843632 0.232528 0.264680 -0.233350
N7    N     N_R   0.848374 0.227309 0.224717 -0.234684
N8    N     N_R   0.244742 0.864397 0.225881 -0.179763
N9    N     N_R   0.248574 0.860299 0.265738 -0.238778
N10   N     N_R   0.419838 0.830147 0.270547 -0.233030
N11   N     N_R   0.415888 0.834357 0.230605 -0.241026
N12   N     N_R   0.239809 0.422780 0.766778 -0.235592
O1    O     O_R   0.679450 0.499830 0.463150 -0.518566
O2    O     O_R   0.356040 0.477400 0.534170 -0.500243
O3    O     O_R   0.495910 0.323070 0.537100 -0.520358
O4    O     O_R   0.663920 0.359620 0.542290 -0.502245
O5    O     O_3   0.500010 0.500010 0.500010 -0.238467
O6    O     O_R   0.170070 0.978950 0.027680 -0.522689
O7    O     O_R   0.001760 0.175230 0.026640 -0.502052
O8    O     O_R   0.984760 0.333570 0.037150 -0.520986
O9    O     O_R   0.183410 0.309240 0.041890 -0.502600
O10   O     O_R   0.340240 0.172500 0.045430 -0.517211
O11   O     O_R   0.309670 0.000990 0.032050 -0.498818
O12   O     O_R   0.480650 0.664000 0.464630 -0.502571
O13   O     O_R   0.168330 0.982130 0.939200 -0.519648
O14   O     O_R   0.000140 0.178170 0.944610 -0.501511
O15   O     O_R   0.983010 0.336750 0.948660 -0.519013
O16   O     O_R   0.181800 0.312190 0.959860 -0.501196
O17   O     O_R   0.338500 0.175680 0.956950 -0.519348
O18   O     O_R   0.308050 0.003930 0.950020 -0.501263
O19   O     O_3   0.164130 0.163270 0.992500 -0.237516
O20   O     O_R   0.323930 0.675950 0.455370 -0.523766
O21   O     O_R   0.354700 0.475360 0.451930 -0.502643
O22   O     O_R   0.494470 0.320860 0.448390 -0.519992
O23   O     O_R   0.662580 0.357570 0.460050 -0.502570
O24   O     O_R   0.680900 0.502040 0.551870 -0.520431
O25   O     O_R   0.481990 0.666040 0.546870 -0.516149
O26   O     O_R   0.325370 0.678160 0.544080 -0.462087
O27   O     O_3   0.182621 0.813880 0.152145 -0.530040
C97   C     C_3   0.078884 0.894344 0.151677 -0.001356
H46   H     H_    0.043035 0.906044 0.120205 0.112700
H47   H     H_    0.073843 0.968659 0.165575 0.137868
C98   C     C_3   0.016397 0.864985 0.176019 -0.338765
H48   H     H_    0.049168 0.854023 0.207876 0.191125
H49   H     H_    0.934657 0.927485 0.175704 0.092857
H50   H     H_    0.018249 0.791977 0.162641 0.169582
O28   O     O_3   0.190108 0.819194 0.593918 -0.543157
C99   C     C_3   0.146912 0.916378 0.577061 -0.004266
H51   H     H_    0.203087 0.920368 0.558367 0.125592
H52   H     H_    0.122918 0.980138 0.601297 0.123965
C100  C     C_3   0.051393 0.932409 0.549789 -0.361407
H53   H     H_    0.993124 0.930149 0.567612 0.154076
H54   H     H_    0.016601 0.008807 0.536390 0.092896
H55   H     H_    0.073099 0.870640 0.524960 0.164215
O29   O     O_3   0.137857 0.481425 0.182804 -0.549497
C101  C     C_3   0.054500 0.460635 0.184647 -0.015381
H56   H     H_    0.080606 0.385675 0.198513 0.142026
H57   H     H_    0.017137 0.458700 0.153888 0.126796
C102  C     C_3   0.973998 0.546326 0.210793 -0.357285
H58   H     H_    0.945266 0.622161 0.197553 0.154798
H59   H     H_    0.907625 0.531504 0.212489 0.129471
H60   H     H_    0.008817 0.549253 0.241901 0.163661

loop_
_geom_bond_atom_site_label_1
_geom_bond_atom_site_label_2
_ccdc_geom_bond_type
Cr6   O11   S    
C81   H38   S    
C66   C68   A    
C101  H56   S    
C69   H32   S    
C55   C59   A    
C5    H12   S    
Cr4   O13   S    
C41   C42   A    
C74   C94   S    
C91   O7    A    
C36   C42   S    
C84   C90   A    
C45   O3    A    
Cr5   O9    S    
Cr4   O19   S    
C6    H1    S    
C7    C8    A    
C22   H6    S    
C85   C86   A    
C44   C45   S    
C25   C28   A    
C101  H57   S    
C56   O4    A    
C26   C27   A    
N10   N11   A    
C20   N7    A    
C50   H18   S    
C91   O8    A    
C38   C42   A    
Cr2   O26   S    
C5    C6    A    
C102  H59   S    
C68   C74   A    
C15   C16   A    
C49   H21   S    
Cr4   O7    S    
C18   C19   A    
C21   N5    A    
C37   N10   A    
Cr5   O8    S    
C95   O16   A    
C18   H5    S    
C97   C98   S    
C45   O2    A    
Cr5   O19   S    
C98   H50   S    
C43   C93   S    
C40   C43   A    
C12   O22   A    
C53   C54   A    
C16   C17   A    
Cr3   O23   S    
C70   H31   S    
C20   N1    A    
C34   O25   A    
C70   C71   A    
C41   H16   S    
C29   C30   A    
C9    C10   S    
C26   H8    S    
C61   H30   S    
C16   H4    S    
C34   C75   S    
C72   C73   T    
C66   H27   S    
C7    C13   A    
Cr6   O10   S    
C40   H15   S    
C93   O6    A    
N6    N7    A    
C95   O17   A    
C37   N9    A    
Cr5   O15   S    
C61   C62   A    
C67   C78   A    
C59   C95   S    
C2    C11   S    
C31   H13   S    
C79   C88   S    
C65   H29   S    
C44   C46   A    
Cr1   O24   S    
C100  H54   S    
C54   C59   A    
C77   C79   A    
C78   C89   A    
C89   H44   S    
C12   C67   S    
C93   O11   A    
Cr3   O22   S    
O29   C101  S    
C63   C64   A    
Cr1   O1    S    
C24   C28   A    
C101  C102  S    
C38   C39   A    
C76   C77   A    
C23   O23   A    
C85   H39   S    
C102  H58   S    
C8    C9    A    
C47   H20   S    
C39   C43   A    
C63   C73   S    
C39   H11   S    
C25   C26   A    
C82   C86   A    
C1    O12   A    
C17   C21   S    
C56   C60   S    
Cr4   O6    S    
Cr4   O14   S    
C14   C23   S    
C2    C89   A    
C75   C76   A    
C77   H41   S    
C98   H48   S    
C5    C9    A    
C62   C63   A    
C78   H42   S    
C25   H7    S    
Cr3   O3    S    
C19   H2    S    
C52   N2    A    
C47   C48   A    
C55   H24   S    
C84   H40   S    
C92   O10   A    
Cr1   O5    S    
C23   O1    A    
C100  H55   S    
C1    C29   S    
C17   C18   A    
C69   C74   A    
C51   C58   S    
C32   C37   S    
C84   C85   A    
C34   O26   A    
N2    N12   A    
C100  H53   S    
C53   H23   S    
C66   C71   A    
C94   O15   A    
C4    H33   S    
Cr3   O4    S    
C40   C41   A    
C12   O21   A    
C54   H19   S    
C64   H28   S    
C60   C65   A    
C49   C50   A    
C22   C27   A    
C55   C57   A    
C13   C92   S    
C96   O18   A    
C22   C24   A    
C79   C80   A    
Cr5   O16   S    
Cr2   O21   S    
C3    C4    A    
C83   H35   S    
Cr2   O2    S    
C3    H22   S    
Cr1   O25   S    
C44   C50   A    
C83   C90   A    
C68   H26   S    
C46   C47   A    
C48   C49   A    
C33   H14   S    
C98   H49   S    
C86   C87   S    
C14   C19   A    
C31   C32   A    
C75   C81   A    
N1    N5    A    
C80   C81   A    
C57   H25   S    
C4    C67   A    
Cr2   O5    S    
C53   C58   A    
C90   C96   S    
C20   C27   S    
C36   N11   A    
C80   H37   S    
C29   C35   A    
Cr1   O12   S    
C30   H9    S    
C64   C65   A    
C99   C100  S    
C8    O29   S    
C2    C3    A    
O27   C97   S    
C71   C72   S    
C82   H36   S    
C38   O27   S    
C32   C33   A    
C6    C13   A    
C15   H45   S    
C1    O20   A    
C102  H60   S    
C56   O24   A    
C57   C58   A    
C30   C31   A    
Cr6   O19   S    
C51   N12   A    
Cr3   O5    S    
C33   C35   A    
C46   H17   S    
O28   C99   S    
C28   C91   S    
C62   H34   S    
C69   C70   A    
C92   O9    A    
C97   H47   S    
C10   C11   T    
C94   O14   A    
C51   N4    A    
C99   H51   S    
C76   O28   S    
C87   C88   T    
C52   N3    A    
C82   C83   A    
C96   O13   A    
N8    N9    A    
Cr6   O18   S    
C21   N6    A    
C14   C15   A    
C60   C61   A    
C97   H46   S    
C24   H3    S    
C7    H43   S    
Cr2   O20   S    
C48   C52   S    
Cr6   O17   S    
C35   H10   S    
C36   N8    A    
N3    N4    A    
C99   H52   S    
