data_mof_unit_27123.cif
_audit_creation_date              2012-12-11T14:17:54-0500
_audit_creation_method            fapswitch 2.2
_symmetry_space_group_name_H-M    P1
_symmetry_Int_Tables_number       1
_space_group_crystal_system       triclinic
_cell_length_a                    11.098194
_cell_length_b                    11.098185
_cell_length_c                    18.85087
_cell_angle_alpha                 90.000874
_cell_angle_beta                  89.9968
_cell_angle_gamma                 119.999686
_cell_volume                      2010.7944398

loop_
_atom_site_label
_atom_site_type_symbol
_atom_type_description
_atom_site_fract_x
_atom_site_fract_y
_atom_site_fract_z
_atom_type_partial_charge
C1    C     C_R   0.518230 0.456398 0.147156 0.536366
C2    C     C_R   0.959600 0.392908 0.541551 -0.151674
C3    C     C_R   0.433311 0.040405 0.541554 -0.151677
C4    C     C_R   0.607092 0.566708 0.541544 -0.151685
C5    C     C_R   0.717736 0.952249 0.553048 -0.086813
C6    C     C_R   0.047766 0.765492 0.553059 -0.086807
C7    C     C_R   0.234530 0.282244 0.553072 -0.086795
C8    C     C_R   0.117709 0.752485 0.413308 -0.081893
C9    C     C_R   0.634772 0.882286 0.413305 -0.081879
C10   C     C_R   0.247497 0.365191 0.413325 -0.081888
C11   C     C_R   0.784596 0.902847 0.509482 -0.145780
C12   C     C_R   0.543596 0.061805 0.147167 0.536369
C13   C     C_R   0.097184 0.881757 0.509498 -0.145771
C14   C     C_R   0.118249 0.215396 0.509525 -0.145755
C15   C     C_R   0.132240 0.875598 0.439629 -0.116700
C16   C     C_R   0.743373 0.867782 0.439617 -0.116700
C17   C     C_R   0.124390 0.256607 0.439657 -0.116700
C18   C     C_R   0.519446 0.457385 0.353490 0.528599
C19   C     C_R   0.542612 0.062063 0.353493 0.528580
C20   C     C_R   0.937930 0.480548 0.353494 0.528599
C21   C     C_R   0.453846 0.516606 0.645614 0.542848
C22   C     C_R   0.062770 0.546160 0.645612 0.542857
C23   C     C_R   0.938175 0.481775 0.147158 0.536363
C24   C     C_R   0.483393 0.937232 0.645612 0.542868
C25   C     C_R   0.506384 0.993925 0.925453 -0.005951
C26   C     C_R   0.005971 0.512428 0.925428 -0.005966
C27   C     C_R   0.487576 0.493535 0.925422 -0.005955
C28   C     C_R   0.994166 0.506519 0.074611 -0.006583
C29   C     C_R   0.512325 0.005738 0.074637 -0.006584
C30   C     C_R   0.493499 0.487644 0.074607 -0.006571
C31   C     C_R   0.404000 0.006701 0.962726 0.033514
C32   C     C_R   0.993116 0.397229 0.962680 0.033504
C33   C     C_R   0.602784 0.595875 0.962669 0.033500
C34   C     C_R   0.456373 0.518244 0.852859 0.537965
C35   C     C_R   0.006975 0.404154 0.037356 0.033490
C36   C     C_R   0.397111 0.992853 0.037403 0.033474
C37   C     C_R   0.595874 0.602810 0.037346 0.033488
C38   C     C_R   0.620141 0.004221 0.036526 -0.137761
C39   C     C_R   0.995700 0.615871 0.036513 -0.137745
C40   C     C_R   0.384138 0.379831 0.036512 -0.137761
C41   C     C_R   0.004531 0.620289 0.963535 -0.137669
C42   C     C_R   0.615710 0.995394 0.963547 -0.137674
C43   C     C_R   0.379718 0.384235 0.963533 -0.137685
C44   C     C_R   0.307613 0.032190 0.927933 -0.087590
C45   C     C_R   0.061871 0.543626 0.852860 0.537961
C46   C     C_R   0.967613 0.275376 0.927856 -0.087540
C47   C     C_R   0.724628 0.692226 0.927835 -0.087548
C48   C     C_R   0.032393 0.307752 0.072181 -0.087482
C49   C     C_R   0.275321 0.967440 0.072263 -0.087456
C50   C     C_R   0.692293 0.724628 0.072167 -0.087510
C51   C     C_R   0.194979 0.020877 0.964759 -0.141539
C52   C     C_R   0.979015 0.174074 0.964636 -0.141491
C53   C     C_R   0.825934 0.804939 0.964605 -0.141454
C54   C     C_R   0.020882 0.195002 0.035405 -0.141148
C55   C     C_R   0.174094 0.979033 0.035533 -0.141065
C56   C     C_R   0.481736 0.938103 0.852870 0.537963
C57   C     C_R   0.805032 0.825871 0.035382 -0.141131
C58   C     C_R   0.513054 0.989903 0.572496 0.002534
C59   C     C_R   0.010104 0.523150 0.572496 0.002544
C60   C     C_R   0.476861 0.486948 0.572497 0.002532
C61   C     C_R   0.993855 0.497890 0.424887 -0.004535
C62   C     C_R   0.504022 0.006131 0.424887 -0.004533
C63   C     C_R   0.502099 0.495969 0.424885 -0.004538
C64   C     C_R   0.601669 0.961475 0.528362 0.041446
C65   C     C_R   0.038527 0.640193 0.528367 0.041451
C66   C     C_R   0.359816 0.398312 0.528372 0.041451
C67   C     C_R   0.438568 0.059248 0.468658 -0.140871
C68   C     C_R   0.056336 0.630668 0.455393 0.025190
C69   C     C_R   0.574323 0.943653 0.455392 0.025195
C70   C     C_R   0.369322 0.425649 0.455400 0.025189
C71   C     C_R   0.940746 0.379320 0.468656 -0.140881
C72   C     C_R   0.620672 0.561450 0.468648 -0.140869
Cr1   Cr    Cr6+3 0.768550 0.541320 0.250660 0.999191
Cr2   Cr    Cr6+3 0.458680 0.227230 0.250660 0.999207
Cr3   Cr    Cr6+3 0.772770 0.231450 0.250660 0.999206
Cr4   Cr    Cr6+3 0.541320 0.768550 0.749340 1.002653
Cr5   Cr    Cr6+3 0.227230 0.458680 0.749340 1.002661
Cr6   Cr    Cr6+3 0.231450 0.772770 0.749340 1.002641
H1    H     H_    0.125369 0.043663 0.936809 0.095556
H2    H     H_    0.146036 0.750394 0.358516 0.119703
H3    H     H_    0.604349 0.853952 0.358515 0.119697
H4    H     H_    0.249574 0.395609 0.358534 0.119705
H5    H     H_    0.868171 0.891182 0.530567 0.100067
H6    H     H_    0.108866 0.977002 0.530591 0.100063
H7    H     H_    0.023011 0.131827 0.530627 0.100039
H8    H     H_    0.168901 0.965607 0.405500 0.119325
H9    H     H_    0.796732 0.831139 0.405483 0.119313
H10   H     H_    0.034372 0.203248 0.405537 0.119324
H11   H     H_    0.711055 0.013779 0.062874 0.155999
H12   H     H_    0.956313 0.081734 0.936643 0.095523
H13   H     H_    0.986174 0.697238 0.062873 0.156037
H14   H     H_    0.302760 0.288949 0.062875 0.155997
H15   H     H_    0.014096 0.711203 0.937181 0.155883
H16   H     H_    0.697080 0.985878 0.937182 0.155869
H17   H     H_    0.288806 0.302881 0.937182 0.155840
H18   H     H_    0.319855 0.063460 0.872821 0.122845
H19   H     H_    0.936339 0.256392 0.872745 0.122814
H20   H     H_    0.743600 0.679935 0.872720 0.122818
H21   H     H_    0.063674 0.320032 0.127293 0.121942
H22   H     H_    0.256368 0.936170 0.127379 0.121920
H23   H     H_    0.918255 0.874587 0.936599 0.095523
H24   H     H_    0.680029 0.743635 0.127282 0.121956
H25   H     H_    0.393010 0.117534 0.446724 0.150099
H26   H     H_    0.882456 0.275477 0.446720 0.150102
H27   H     H_    0.724510 0.607027 0.446705 0.150113
H28   H     H_    0.930646 0.301723 0.573882 0.121434
H29   H     H_    0.371080 0.069358 0.573888 0.121423
H30   H     H_    0.698270 0.628957 0.573870 0.121442
H31   H     H_    0.043532 0.125340 0.063400 0.095825
H32   H     H_    0.081855 0.956496 0.063577 0.095797
H33   H     H_    0.874701 0.918183 0.063372 0.095837
H34   H     H_    0.764964 0.990274 0.604278 0.133516
H35   H     H_    0.009749 0.774704 0.604292 0.133528
H36   H     H_    0.225345 0.235014 0.604301 0.133505
O1    O     O_R   0.910960 0.572410 0.171010 -0.527629
O2    O     O_R   0.528530 0.639750 0.824400 -0.505854
O3    O     O_R   0.111220 0.471470 0.824400 -0.505840
O4    O     O_R   0.360250 0.888780 0.824400 -0.505871
O5    O     O_R   0.909330 0.572400 0.331540 -0.527170
O6    O     O_R   0.427600 0.336930 0.331540 -0.527167
O7    O     O_R   0.663070 0.090670 0.331540 -0.527166
O8    O     O_R   0.572400 0.909330 0.668460 -0.538517
O9    O     O_R   0.336930 0.427600 0.668460 -0.538515
O10   O     O_R   0.090670 0.663070 0.668460 -0.538531
O11   O     O_R   0.638240 0.528520 0.324410 -0.512442
O12   O     O_R   0.427590 0.338550 0.171010 -0.527608
O13   O     O_R   0.471480 0.109720 0.324410 -0.512445
O14   O     O_R   0.890280 0.361760 0.324410 -0.512439
O15   O     O_R   0.528520 0.638240 0.675590 -0.497797
O16   O     O_R   0.109720 0.471480 0.675590 -0.497789
O17   O     O_R   0.361760 0.890280 0.675590 -0.497789
O18   O     O_3   0.666667 0.333333 0.250630 -0.239289
O19   O     O_3   0.333333 0.666667 0.749370 -0.241052
O20   O     O_R   0.661450 0.089040 0.171010 -0.527622
O21   O     O_R   0.572410 0.910960 0.828990 -0.527757
O22   O     O_R   0.338550 0.427590 0.828990 -0.527758
O23   O     O_R   0.089040 0.661450 0.828990 -0.527776
O24   O     O_R   0.639750 0.528530 0.175600 -0.504799
O25   O     O_R   0.471470 0.111220 0.175600 -0.504769
O26   O     O_R   0.888780 0.360250 0.175600 -0.504779

loop_
_geom_bond_atom_site_label_1
_geom_bond_atom_site_label_2
_ccdc_geom_bond_type
C25   C31   A    
C71   H26   S    
C26   C32   A    
Cr1   O5    S    
Cr2   O18   S    
C12   C29   S    
C17   H10   S    
C52   H12   S    
C61   C68   A    
C25   C56   S    
Cr3   O20   S    
C67   H25   S    
C39   C41   A    
C66   C70   A    
C27   C33   A    
C48   C54   A    
C4    H30   S    
C13   H6    S    
C47   H20   S    
C62   C67   A    
C44   H18   S    
C7    H36   S    
Cr6   O4    S    
C9    C16   A    
C9    C69   A    
C20   O14   A    
Cr5   O3    S    
Cr3   O26   S    
C18   O11   A    
C18   C63   S    
Cr1   O24   S    
C19   C62   S    
C34   O2    A    
C46   C52   A    
C62   C69   A    
Cr3   O14   S    
C11   C16   A    
C20   C61   S    
C26   C45   S    
C7    C14   A    
C41   H15   S    
C28   C35   A    
C53   H23   S    
C29   C38   A    
C16   H9    S    
C43   H17   S    
Cr5   O22   S    
Cr6   O10   S    
C47   C53   A    
C61   C71   A    
Cr1   O18   S    
C60   C66   A    
C42   H16   S    
C22   O16   A    
C14   C17   A    
Cr5   O19   S    
C35   C48   A    
C39   H13   S    
Cr4   O21   S    
C52   C54   A    
C6    C65   A    
C27   C34   S    
C58   C64   A    
C31   C44   A    
C32   C35   A    
C23   O26   A    
C1    O12   A    
C21   C60   S    
C22   C59   S    
C53   C57   A    
C2    C59   A    
C28   C39   A    
C3    H29   S    
C49   C55   A    
C10   H4    S    
C33   C37   A    
C30   C37   A    
C21   O9    A    
Cr6   O17   S    
C3    C58   A    
C6    H35   S    
Cr5   O9    S    
Cr4   O15   S    
Cr2   O13   S    
C29   C36   A    
C63   C70   A    
C34   O22   A    
C65   C68   A    
C4    C60   A    
C24   O8    A    
C12   O25   A    
C30   C40   A    
Cr2   O12   S    
C23   C28   S    
C40   H14   S    
C21   O15   A    
C15   H8    S    
C10   C70   A    
C44   C51   A    
C72   H27   S    
C46   H19   S    
C50   H24   S    
C8    C15   A    
C13   C15   A    
C5    C11   A    
C33   C47   A    
C2    C71   A    
Cr6   O23   S    
C18   O6    A    
C4    C72   A    
C56   O21   A    
Cr2   O6    S    
Cr3   O18   S    
C45   O23   A    
C45   O3    A    
C48   H21   S    
C19   O7    A    
Cr3   O7    S    
C50   C57   A    
C32   C46   A    
C3    C67   A    
C14   H7    S    
C25   C42   A    
Cr4   O19   S    
C22   O10   A    
C5    H34   S    
C64   C69   A    
Cr2   O25   S    
Cr1   O1    S    
C5    C64   A    
C38   H11   S    
C40   C43   A    
C8    C68   A    
Cr4   O8    S    
C55   H32   S    
C59   C65   A    
C6    C13   A    
C56   O4    A    
C37   C50   A    
C24   O17   A    
C11   H5    S    
C57   H33   S    
Cr1   O11   S    
C19   O13   A    
C1    C30   S    
Cr4   O2    S    
C2    H28   S    
C51   C55   A    
Cr5   O16   S    
Cr6   O19   S    
C51   H1    S    
C36   C49   A    
C23   O1    A    
C38   C42   A    
C27   C43   A    
C63   C72   A    
C54   H31   S    
C24   C58   S    
C8    H2    S    
C31   C36   A    
C12   O20   A    
C10   C17   A    
C20   O5    A    
C1    O24   A    
C26   C41   A    
C9    H3    S    
C49   H22   S    
C7    C66   A    
