data_mof_unit_19312.cif
_audit_creation_date              2012-12-10T17:41:28-0500
_audit_creation_method            fapswitch 2.2
_symmetry_space_group_name_H-M    P1
_symmetry_Int_Tables_number       1
_space_group_crystal_system       triclinic
_cell_length_a                    15.186308
_cell_length_b                    13.773502
_cell_length_c                    14.319066
_cell_angle_alpha                 89.999982
_cell_angle_beta                  89.870396
_cell_angle_gamma                 90.0
_cell_volume                      2995.09195045

loop_
_atom_site_label
_atom_site_type_symbol
_atom_type_description
_atom_site_fract_x
_atom_site_fract_y
_atom_site_fract_z
_atom_type_partial_charge
C1    C     C_R   0.329139 0.500037 0.499477 0.816157
C2    C     C_R   0.670860 0.500037 0.500523 0.816158
C3    C     C_R   0.953153 0.501891 0.500990 -0.032624
C4    C     C_R   0.046847 0.501891 0.499010 -0.032624
C5    C     C_R   0.906101 0.498571 0.416082 0.047481
C6    C     C_R   0.093899 0.498571 0.583918 0.047481
C7    C     C_R   0.955910 0.504986 0.672042 0.402704
C8    C     C_R   0.044090 0.504986 0.327958 0.402704
C9    C     C_R   0.047537 0.499852 0.668592 -0.303585
C10   C     C_R   0.952463 0.499852 0.331408 -0.303585
C11   C     C_R   0.441563 0.792500 0.555227 0.513917
C12   C     C_R   0.551196 0.207436 0.437256 0.512026
C13   C     C_R   0.558437 0.792500 0.444773 0.513917
C14   C     C_R   0.448804 0.207436 0.562744 0.512025
C15   C     C_R   0.558330 0.896176 0.440921 -0.133525
C16   C     C_R   0.445002 0.103780 0.562530 -0.131885
C17   C     C_R   0.441670 0.896176 0.559079 -0.133525
C18   C     C_R   0.554998 0.103780 0.437470 -0.131885
C19   C     C_R   0.500000 0.948136 0.500000 -0.128280
C20   C     C_R   0.500000 0.051805 0.500000 -0.127240
C21   C     C_R   0.615045 0.948492 0.380303 0.332224
C22   C     C_R   0.388331 0.051526 0.623219 0.329672
C23   C     C_R   0.384955 0.948492 0.619697 0.332224
C24   C     C_R   0.611669 0.051526 0.376781 0.329672
C25   C     C_R   0.500496 0.499981 0.331080 0.825088
C26   C     C_R   0.499504 0.499981 0.668920 0.825088
C27   C     C_1   0.501176 0.499852 0.228827 -0.141753
C28   C     C_1   0.498824 0.499852 0.771173 -0.141753
C29   C     C_1   0.501252 0.499629 0.143360 -0.006203
C30   C     C_1   0.498748 0.499629 0.856640 -0.006203
C31   C     C_1   0.500474 0.499445 0.042707 -0.044261
C32   C     C_1   0.499526 0.499445 0.957293 -0.044261
C33   C     C_R   0.813324 0.493875 0.416464 -0.041646
C34   C     C_R   0.186676 0.493875 0.583536 -0.041646
C35   C     C_R   0.767295 0.500300 0.501243 -0.158795
C36   C     C_R   0.232705 0.500300 0.498756 -0.158795
C37   C     C_R   0.812917 0.508391 0.586441 -0.085578
C38   C     C_R   0.187083 0.508391 0.413559 -0.085577
C39   C     C_R   0.906764 0.505086 0.587558 0.054402
C40   C     C_R   0.093236 0.505086 0.412442 0.054402
Cu1   Cu    Cu3+1 0.500000 0.597420 0.500000 1.010778
Cu2   Cu    Cu3+1 0.500000 0.402580 0.500000 1.006033
H1    H     H_    0.082415 0.498067 0.734289 0.157249
H2    H     H_    0.917585 0.498067 0.265711 0.157249
N1    N     N_R   0.500000 0.743810 0.500000 -0.240162
N2    N     N_R   0.500000 0.256190 0.500000 -0.237599
O1    O     O_R   0.370260 0.582280 0.500020 -0.564596
O2    O     O_R   0.629740 0.417720 0.499980 -0.539855
O3    O     O_R   0.629740 0.582280 0.499980 -0.564596
O4    O     O_R   0.370260 0.417720 0.500020 -0.539854
O5    O     O_R   0.500000 0.582290 0.376050 -0.523364
O6    O     O_R   0.500000 0.417710 0.623950 -0.549025
O7    O     O_R   0.500000 0.582290 0.623950 -0.523364
O8    O     O_R   0.500000 0.417710 0.376050 -0.549024
C41   C     C_R   0.765051 0.480565 0.327425 0.055195
C42   C     C_R   0.753987 0.386648 0.291381 -0.060880
C43   C     C_R   0.724362 0.373590 0.199932 -0.133508
C44   C     C_R   0.706921 0.454179 0.143700 -0.137851
C45   C     C_R   0.715825 0.547963 0.179945 -0.126808
C46   C     C_R   0.744467 0.561292 0.271793 -0.127097
H3    H     H_    0.771533 0.323872 0.332922 0.178922
H4    H     H_    0.716929 0.301056 0.171968 0.149120
H5    H     H_    0.685941 0.443911 0.072213 0.133248
H6    H     H_    0.701707 0.610258 0.136408 0.147389
H7    H     H_    0.754719 0.634130 0.298027 0.165684
C47   C     C_R   0.234949 0.480565 0.672575 0.055195
C48   C     C_R   0.246013 0.386648 0.708619 -0.060879
C49   C     C_R   0.275638 0.373590 0.800068 -0.133507
C50   C     C_R   0.293079 0.454179 0.856300 -0.137852
C51   C     C_R   0.284175 0.547963 0.820055 -0.126808
C52   C     C_R   0.255533 0.561292 0.728207 -0.127097
H8    H     H_    0.228467 0.323872 0.667077 0.178922
H9    H     H_    0.283071 0.301056 0.828032 0.149119
H10   H     H_    0.314059 0.443910 0.927787 0.133248
H11   H     H_    0.298293 0.610257 0.863592 0.147389
H12   H     H_    0.245280 0.634130 0.701973 0.165684
C53   C     C_R   0.761928 0.523531 0.673512 0.154703
C54   C     C_R   0.738254 0.443862 0.729363 -0.087866
C55   C     C_R   0.708864 0.459013 0.820828 -0.125106
C56   C     C_R   0.700664 0.553499 0.855691 -0.093002
C57   C     C_R   0.718811 0.633017 0.798231 -0.118184
C58   C     C_R   0.749690 0.618233 0.707359 -0.090458
H13   H     H_    0.747862 0.370485 0.704151 0.125722
H14   H     H_    0.693541 0.397601 0.865131 0.124284
H15   H     H_    0.679246 0.565169 0.926928 0.124698
H16   H     H_    0.711330 0.706041 0.824992 0.129878
H17   H     H_    0.768038 0.680184 0.664978 0.117661
C59   C     C_R   0.238071 0.523531 0.326488 0.154703
C60   C     C_R   0.261746 0.443862 0.270637 -0.087865
C61   C     C_R   0.291136 0.459013 0.179172 -0.125106
C62   C     C_R   0.299336 0.553499 0.144309 -0.093002
C63   C     C_R   0.281189 0.633017 0.201768 -0.118184
C64   C     C_R   0.250310 0.618233 0.292641 -0.090457
H18   H     H_    0.252138 0.370485 0.295849 0.125722
H19   H     H_    0.306459 0.397601 0.134869 0.124284
H20   H     H_    0.320754 0.565169 0.073072 0.124699
H21   H     H_    0.288670 0.706041 0.175008 0.129878
H22   H     H_    0.231962 0.680184 0.335022 0.117661
O9    O     O_3   0.914520 0.508043 0.758106 -0.731190
H23   H     H_    0.958467 0.508014 0.809214 0.322618
O10   O     O_3   0.085480 0.508043 0.241894 -0.731190
H24   H     H_    0.041533 0.508014 0.190786 0.322618
O11   O     O_3   0.383854 0.738493 0.607606 -0.650772
H25   H     H_    0.324295 0.754495 0.583815 0.326948
O12   O     O_3   0.599391 0.261360 0.375003 -0.658098
H26   H     H_    0.576234 0.244874 0.312251 0.328713
O13   O     O_3   0.616146 0.738493 0.392394 -0.650772
H27   H     H_    0.675704 0.754495 0.416185 0.326948
O14   O     O_3   0.400609 0.261359 0.624996 -0.658098
H28   H     H_    0.423766 0.244874 0.687749 0.328713
O15   O     O_3   0.673007 0.898274 0.323689 -0.733058
H29   H     H_    0.728176 0.936254 0.318009 0.328993
O16   O     O_3   0.335355 0.101823 0.685039 -0.743302
H30   H     H_    0.330400 0.063924 0.743635 0.327409
O17   O     O_3   0.326992 0.898274 0.676311 -0.733057
H31   H     H_    0.271824 0.936254 0.681990 0.328993
O18   O     O_3   0.664645 0.101823 0.314961 -0.743302
H32   H     H_    0.669600 0.063924 0.256365 0.327409

loop_
_geom_bond_atom_site_label_1
_geom_bond_atom_site_label_2
_ccdc_geom_bond_type
C2    C35   S    
C33   C41   S    
C14   O14   S    
C13   N1    A    
C41   C42   A    
O10   H24   S    
C27   C29   T    
Cu1   Cu2   S    
C19   C20   A    
C13   O13   S    
C34   C47   S    
C6    C9    A    
C57   C58   A    
C61   C62   A    
C61   H19   S    
C14   N2    A    
C53   C54   A    
C15   C19   A    
C24   O18   S    
C17   C23   A    
C7    O9    S    
C18   C24   A    
C7    C39   A    
C35   C37   A    
C55   H14   S    
O17   H31   S    
C42   C43   A    
C48   H8    S    
Cu2   N2    S    
C60   H18   S    
C33   C35   A    
C62   H20   S    
C54   H13   S    
C22   O16   S    
C31   C32   T    
C49   C50   A    
C5    C33   A    
O13   H27   S    
C51   C52   A    
C30   C32   S    
C1    O4    A    
C18   C20   A    
C57   H16   S    
C47   C48   A    
C3    C39   A    
C45   C46   A    
C41   C46   A    
C29   C31   S    
Cu1   O3    S    
C21   O15   S    
C63   H21   S    
C9    H1    S    
C10   H2    S    
C48   C49   A    
C4    C40   A    
C43   H4    S    
C25   O8    A    
C4    C6    A    
C62   C63   A    
C54   C55   A    
C1    O1    A    
C2    O2    A    
C49   H9    S    
C37   C53   S    
C6    C34   A    
C38   C59   S    
C25   O5    A    
C56   H15   S    
C2    O3    A    
C26   O6    A    
C47   C52   A    
C16   C20   A    
Cu1   O1    S    
C50   H10   S    
Cu2   O2    S    
Cu1   O7    S    
Cu2   O4    S    
C12   N2    A    
C46   H7    S    
C13   C15   A    
C14   C16   A    
C11   N1    A    
C3    C4    A    
C26   O7    A    
C52   H12   S    
C51   H11   S    
O16   H30   S    
C8    O10   S    
C44   H5    S    
C7    C9    A    
C59   C64   A    
C11   C17   A    
C16   C22   A    
O15   H29   S    
C22   C23   A    
C56   C57   A    
C3    C5    A    
C25   C27   S    
O12   H26   S    
C26   C28   S    
O9    H23   S    
C28   C30   T    
C44   C45   A    
C5    C10   A    
C37   C39   A    
O14   H28   S    
Cu2   O8    S    
C38   C40   A    
C43   C44   A    
C12   O12   S    
C53   C58   A    
C36   C38   A    
C63   C64   A    
C17   C19   A    
C34   C36   A    
C50   C51   A    
C23   O17   S    
C55   C56   A    
C45   H6    S    
C15   C21   A    
C59   C60   A    
C8    C10   A    
C21   C24   A    
C12   C18   A    
O11   H25   S    
Cu1   N1    S    
C42   H3    S    
C11   O11   S    
C8    C40   A    
C60   C61   A    
O18   H32   S    
C64   H22   S    
Cu1   O5    S    
C58   H17   S    
C1    C36   S    
Cu2   O6    S    
