data_mof_unit_32566.cif
_audit_creation_date              2013-03-05T15:52:18-0500
_audit_creation_method            fapswitch 2.2
_symmetry_space_group_name_H-M    P1
_symmetry_Int_Tables_number       1
_space_group_crystal_system       triclinic
_cell_length_a                    21.53778
_cell_length_b                    7.28066
_cell_length_c                    14.946591
_cell_angle_alpha                 90.001107
_cell_angle_beta                  73.183497
_cell_angle_gamma                 89.999627
_cell_volume                      2243.5355463

loop_
_atom_site_label
_atom_site_type_symbol
_atom_site_description
_atom_site_fract_x
_atom_site_fract_y
_atom_site_fract_z
_atom_type_partial_charge
O1    O     O_R   0.464160 0.506670 0.130070 -0.590628
O2    O     O_R   0.535840 0.006670 0.869930 -0.590647
O3    O     O_R   0.589710 0.179080 0.006710 -0.571351
O4    O     O_R   0.410290 0.679080 0.993290 -0.571337
C1    C     C_R   0.615532 0.343975 0.004928 1.024334
C2    C     C_R   0.384470 0.843976 0.995064 1.024343
O5    O     O_R   0.467940 0.177220 0.138010 -0.558826
O6    O     O_R   0.532060 0.677220 0.861990 -0.558826
O7    O     O_R   0.413200 0.002810 0.002170 -0.601515
O8    O     O_R   0.586800 0.502810 0.997830 -0.601509
C3    C     C_R   0.456939 0.345852 0.174625 1.044504
C4    C     C_R   0.543057 0.845850 0.825374 1.044482
O9    O     O_3   0.482180 0.337850 0.955280 -0.271087
O10   O     O_3   0.517820 0.837850 0.044720 -0.271091
V1    V     V_3+5 0.503310 0.064600 0.008300 1.295186
V2    V     V_3+5 0.496690 0.564600 0.991700 1.295204
C5    C     C_R   0.567165 0.852915 0.722398 -0.332784
C6    C     C_R   0.432828 0.352919 0.277602 -0.332812
C7    C     C_R   0.925146 0.864193 0.275055 -0.162644
C8    C     C_R   0.074852 0.364178 0.724946 -0.162618
C9    C     C_R   0.550419 0.821545 0.568739 0.520635
C10   C     C_R   0.449575 0.321537 0.431260 0.520628
C11   C     C_R   0.525503 0.832298 0.666777 0.425145
C12   C     C_R   0.474492 0.332330 0.333223 0.425162
C13   C     C_R   0.633350 0.867784 0.680161 -0.162221
C14   C     C_R   0.366641 0.367738 0.319839 -0.162231
C15   C     C_R   0.661218 0.831622 0.584063 0.094948
C16   C     C_R   0.338775 0.331561 0.415935 0.094953
C17   C     C_R   0.619242 0.819976 0.525550 -0.240167
C18   C     C_R   0.380753 0.319918 0.474447 -0.240168
C19   C     C_R   0.730182 0.813562 0.545135 -0.074936
C20   C     C_R   0.269811 0.313487 0.454863 -0.074887
C21   C     C_R   0.757839 0.825396 0.446718 -0.024394
C22   C     C_R   0.242155 0.325280 0.553282 -0.024404
C23   C     C_R   0.715702 0.820197 0.390232 -0.257517
C24   C     C_R   0.284293 0.320061 0.609766 -0.257511
C25   C     C_R   0.648542 0.809957 0.427313 0.614665
C26   C     C_R   0.351453 0.309853 0.572682 0.614662
C27   C     C_R   0.772249 0.775793 0.601024 0.230988
C28   C     C_R   0.227743 0.275741 0.398973 0.230994
C29   C     C_R   0.839680 0.789597 0.563275 0.221598
C30   C     C_R   0.160311 0.289530 0.436728 0.221314
C31   C     C_R   0.867152 0.824866 0.467819 -0.086759
C32   C     C_R   0.132842 0.324817 0.532185 -0.086582
C33   C     C_R   0.826850 0.835477 0.407719 0.121998
C34   C     C_R   0.173145 0.335368 0.592284 0.121957
C35   C     C_R   0.935066 0.841175 0.430818 -0.020765
C36   C     C_R   0.064932 0.341273 0.569180 -0.020726
C37   C     C_R   0.963616 0.860816 0.335347 -0.063176
C38   C     C_R   0.036383 0.360928 0.664651 -0.063207
C39   C     C_R   0.857590 0.855408 0.310591 -0.186236
C40   C     C_R   0.142406 0.355280 0.689413 -0.186246
H1    H     H_    0.830829 0.865283 0.260256 0.150354
H2    H     H_    0.169168 0.365063 0.739751 0.150377
H3    H     H_    0.015820 0.870882 0.308438 0.209379
H4    H     H_    0.984182 0.371100 0.691558 0.209414
H5    H     H_    0.662438 0.909182 0.724310 0.180190
H6    H     H_    0.337551 0.409119 0.275691 0.180224
H7    H     H_    0.733692 0.815826 0.315203 0.177668
H8    H     H_    0.266304 0.315661 0.684794 0.177665
H9    H     H_    0.966770 0.836622 0.475300 0.178770
H10   H     H_    0.033231 0.336852 0.524690 0.178725
C41   C     C_3   0.222298 0.675712 0.951795 0.085805
C42   C     C_3   0.777704 0.175717 0.048196 0.085782
H11   H     H_    0.229911 0.695566 0.875292 0.151994
H12   H     H_    0.770101 0.195566 0.124698 0.151979
C43   C     C_3   0.289911 0.656323 0.967779 0.242519
C44   C     C_3   0.710088 0.156334 0.032227 0.242542
H13   H     H_    0.287203 0.559560 0.026416 0.147769
H14   H     H_    0.712786 0.059541 0.973602 0.147706
H15   H     H_    0.285018 0.815451 0.146632 0.214720
H16   H     H_    0.714994 0.315293 0.853369 0.214671
C45   C     C_3   0.195402 0.877414 0.102493 0.661922
C46   C     C_3   0.804606 0.377399 0.897494 0.662032
C47   C     C_3   0.227208 0.014334 0.939123 -0.401306
C48   C     C_3   0.772794 0.514340 0.060864 -0.401290
C49   C     C_3   0.187409 0.855887 0.000728 -0.357062
C50   C     C_3   0.812593 0.355885 0.999263 -0.357112
H17   H     H_    0.211148 0.147455 0.972357 0.292923
H18   H     H_    0.788858 0.647459 0.027637 0.292924
H19   H     H_    0.218535 0.017701 0.869236 0.179951
H20   H     H_    0.781459 0.517700 0.130757 0.179945
C51   C     C_3   0.313548 0.847586 0.994551 -0.222202
C52   C     C_3   0.686456 0.347581 0.005435 -0.222232
C53   C     C_3   0.269954 0.897635 0.094027 -0.513164
C54   C     C_3   0.730051 0.397564 0.905951 -0.513198
C55   C     C_3   0.301140 0.995160 0.926671 -0.293523
C56   C     C_3   0.698864 0.495189 0.073300 -0.293438
H21   H     H_    0.326304 0.956209 0.853371 0.254220
H22   H     H_    0.673691 0.456288 0.146603 0.254209
H23   H     H_    0.320841 0.130693 0.939536 0.224900
H24   H     H_    0.679173 0.630720 0.060409 0.224864
H25   H     H_    0.280997 0.041858 0.108138 0.261590
H26   H     H_    0.719000 0.541758 0.891804 0.261602
O11   O     O_R   0.913210 0.208550 0.002110 -0.545240
O12   O     O_R   0.086790 0.708550 0.997890 -0.545254
O13   O     O_R   0.032060 0.539960 0.861980 -0.583770
O14   O     O_R   0.967940 0.039960 0.138020 -0.583754
C57   C     C_R   0.044861 0.372760 0.825876 1.016423
C58   C     C_R   0.955138 0.872764 0.174125 1.016363
O15   O     O_R   0.910290 0.538020 0.993280 -0.547963
O16   O     O_R   0.089710 0.038020 0.006720 -0.547959
O17   O     O_R   0.964160 0.712340 0.130090 -0.581942
O18   O     O_R   0.035840 0.212340 0.869910 -0.581912
C59   C     C_R   0.883830 0.368819 0.999289 0.976103
C60   C     C_R   0.116170 0.868818 0.000710 0.976106
O19   O     O_3   0.017820 0.379210 0.044690 -0.246918
O20   O     O_3   0.982180 0.879210 0.955310 -0.246894
V3    V     V_3+5 0.996690 0.652500 0.991710 1.349000
V4    V     V_3+5 0.003310 0.152500 0.008290 1.349014
Cl1   Cl    Cl    0.607021 0.786225 0.341969 -0.435467
Cl2   Cl    Cl    0.392976 0.286100 0.658023 -0.435499
N1    N     N_R   0.185415 0.504687 0.976162 0.247391
O21   O     O_R   0.166047 0.419007 0.912674 -0.452437
O22   O     O_R   0.174301 0.431524 0.058420 -0.286939
N2    N     N_R   0.814586 0.004692 0.023811 0.247384
O23   O     O_R   0.833966 0.919001 0.087284 -0.452401
O24   O     O_R   0.825685 0.931538 0.941552 -0.287033
Cl3   Cl    Cl    0.343499 0.551056 0.865892 -0.527905
Cl4   Cl    Cl    0.656500 0.051130 0.134130 -0.527903
N3    N     N_R   0.165187 0.723541 0.163753 0.264699
O25   O     O_R   0.196497 0.632533 0.211917 -0.299523
O26   O     O_R   0.103207 0.694067 0.181414 -0.355401
N4    N     N_R   0.834847 0.223558 0.836221 0.264742
O27   O     O_R   0.803584 0.132698 0.787930 -0.299425
O28   O     O_R   0.896825 0.194097 0.818610 -0.355365
Cl5   Cl    Cl    0.153805 0.078639 0.158456 -0.447190
Cl6   Cl    Cl    0.846182 0.578665 0.841558 -0.447076
N5    N     N_R   0.880599 0.749018 0.621074 0.274353
O29   O     O_R   0.908192 0.588782 0.615234 -0.371393
O30   O     O_R   0.898783 0.880429 0.666824 -0.252614
N6    N     N_R   0.119385 0.248976 0.378932 0.274227
O31   O     O_R   0.091462 0.089149 0.385171 -0.372007
O32   O     O_R   0.101568 0.380211 0.332685 -0.251718
Cl7   Cl    Cl    0.491881 0.810566 0.506511 -0.434576
Cl8   Cl    Cl    0.508113 0.310578 0.493488 -0.434576
Cl9   Cl    Cl    0.441083 0.832418 0.720426 -0.494601
Cl10  Cl    Cl    0.558912 0.332533 0.279576 -0.494583
N7    N     N_R   0.748121 0.696053 0.692080 0.242621
O33   O     O_R   0.714335 0.545187 0.703549 -0.399870
O34   O     O_R   0.756090 0.781167 0.764388 -0.323355
N8    N     N_R   0.251872 0.195960 0.307924 0.242588
O35   O     O_R   0.285652 0.045085 0.296474 -0.399930
O36   O     O_R   0.243926 0.281070 0.235603 -0.323317

loop_
_geom_bond_atom_site_label_1
_geom_bond_atom_site_label_2
_geom_bond_distance
_ccdc_geom_bond_type
C46   N4    1.473880 S    
C41   H11   1.116607 S    
C3    C6    1.476087 S    
C43   C51   1.573614 S    
C42   N2    1.465172 S    
C55   H23   1.112630 S    
C15   C17   1.430708 A    
C21   C33   1.432847 A    
C51   C55   1.553100 S    
O1    C3    1.333677 A    
O2    C4    1.333670 A    
C2    O7    1.330229 A    
C35   C37   1.388193 A    
O20   V3    1.793472 S    
O5    C3    1.337151 A    
C5    C11   1.396593 A    
C13   H5    1.076090 S    
C50   C59   1.537284 S    
O14   V4    2.038839 S    
C42   C44   1.548820 S    
C10   C12   1.409367 A    
C49   C60   1.537286 S    
C23   C25   1.393252 A    
C48   C50   1.567397 S    
N5    O29   1.300684 A    
C28   N8    1.431847 S    
C33   C39   1.418025 A    
O15   V3    2.032937 S    
C34   C40   1.418013 A    
O13   V3    2.038805 S    
N2    O23   1.301024 A    
C18   C26   1.422439 A    
C23   H7    1.075785 S    
C8    C38   1.389692 A    
O11   C59   1.333858 A    
H15   C53   1.108651 S    
C53   H25   1.110244 S    
C14   H6    1.076083 S    
C46   Cl6   1.793039 S    
C56   H24   1.112630 S    
C32   C34   1.420377 A    
N6    O31   1.300776 A    
C55   H21   1.109447 S    
C6    C14   1.386207 A    
C4    C5    1.476082 S    
C19   C21   1.420951 A    
C22   C34   1.432841 A    
C54   H26   1.110246 S    
C48   C56   1.555027 S    
C36   C38   1.388196 A    
C57   O18   1.327064 A    
C30   N6    1.432117 S    
O6    V2    2.038822 S    
C29   C31   1.401142 A    
C30   C32   1.401144 A    
C14   C16   1.412026 A    
O13   C57   1.327778 A    
C40   H2    1.074381 S    
C27   N7    1.431846 S    
O15   C59   1.349369 A    
N7    O33   1.301236 A    
C41   C43   1.548822 S    
N3    O26   1.301469 A    
C15   C19   1.435944 A    
C44   C52   1.573584 S    
C48   H18   1.098313 S    
C16   C20   1.435958 A    
C27   C29   1.401247 A    
C48   H20   1.113351 S    
C1    C52   1.529963 S    
C47   H19   1.113350 S    
C12   Cl10  1.762188 S    
C45   Cl5   1.793043 S    
C9    C17   1.435392 A    
C58   O17   1.327069 A    
C38   H4    1.081502 S    
C10   Cl8   1.771872 S    
C39   H1    1.074389 S    
C42   H12   1.116606 S    
O4    V2    2.032849 S    
C29   N5    1.432087 S    
C47   C49   1.567411 S    
C7    C37   1.389690 A    
C36   H10   1.082633 S    
O6    C4    1.337154 A    
O1    V2    2.026738 S    
C46   C54   1.580658 S    
O2    V1    2.026722 S    
C31   C33   1.420389 A    
C45   C53   1.580628 S    
N3    O25   1.301123 A    
O4    C2    1.320135 A    
C51   C53   1.554735 S    
C56   H22   1.109448 S    
C31   C35   1.411177 A    
C45   N3    1.473840 S    
C9    C11   1.409369 A    
O19   V4    1.793457 S    
C6    C12   1.396589 A    
O16   V4    2.032927 S    
C26   Cl2   1.765442 S    
O3    C1    1.320138 A    
N8    O36   1.299533 A    
O3    V1    2.032857 S    
N4    O28   1.301475 A    
N1    O21   1.301019 A    
C41   C49   1.581875 S    
C47   C55   1.555058 S    
O12   C60   1.333860 A    
C2    C51   1.529957 S    
C10   C18   1.435392 A    
O10   V1    1.793845 S    
C42   C50   1.581864 S    
C11   Cl9   1.762181 S    
C52   C56   1.553086 S    
C52   C54   1.554747 S    
C28   C30   1.401283 A    
C24   H8    1.075780 S    
O11   V4    2.011099 S    
C35   H9    1.082627 S    
H16   C54   1.108649 S    
C7    C58   1.460505 S    
C16   C18   1.430717 A    
C13   C15   1.412020 A    
O12   V3    2.011103 S    
O14   C58   1.327778 A    
O17   V3    2.029798 S    
C5    C13   1.386198 A    
C24   C26   1.393245 A    
O7    V1    2.019968 S    
C1    O8    1.330231 A    
C8    C40   1.398604 A    
C37   H3    1.081495 S    
C44   Cl4   1.794864 S    
O18   V4    2.029817 S    
N7    O34   1.299539 A    
C8    C57   1.460493 S    
C43   Cl3   1.794874 S    
O5    V1    2.038787 S    
C21   C23   1.407556 A    
N2    O24   1.297075 A    
O16   C60   1.349367 A    
C22   C24   1.407547 A    
C20   C28   1.425584 A    
C25   Cl1   1.765443 S    
C41   N1    1.465186 S    
C7    C39   1.398602 A    
N5    O30   1.300492 A    
N6    O32   1.300571 A    
C46   C50   1.587223 S    
O9    V2    1.793832 S    
C17   C25   1.422443 A    
C19   C27   1.425576 A    
C44   H14   1.112795 S    
C45   C49   1.587221 S    
N8    O35   1.301229 A    
O8    V2    2.019959 S    
C43   H13   1.112794 S    
C47   H17   1.098317 S    
C9    Cl7   1.771873 S    
C32   C36   1.411185 A    
C20   C22   1.420949 A    
N4    O27   1.301217 A    
N1    O22   1.297073 A    
