data_mof_unit_17340.cif
_audit_creation_date              2012-12-10T18:12:36-0500
_audit_creation_method            fapswitch 2.2
_symmetry_space_group_name_H-M    P1
_symmetry_Int_Tables_number       1
_space_group_crystal_system       triclinic
_cell_length_a                    12.625628
_cell_length_b                    13.196027
_cell_length_c                    15.725547
_cell_angle_alpha                 90.824914
_cell_angle_beta                  102.300097
_cell_angle_gamma                 82.565404
_cell_volume                      2538.10762522

loop_
_atom_site_label
_atom_site_type_symbol
_atom_type_description
_atom_site_fract_x
_atom_site_fract_y
_atom_site_fract_z
_atom_type_partial_charge
C1    C     C_R   0.439471 0.690614 0.494163 0.891109
C2    C     C_3   0.500223 0.507971 0.917113 0.049167
C3    C     C_3   0.445913 0.432505 0.016651 0.466744
C4    C     C_3   0.498917 0.506653 0.082779 0.044320
C5    C     C_3   0.549713 0.416890 0.978802 -0.278585
C6    C     C_3   0.603482 0.492085 0.046352 -0.280482
C7    C     C_1   0.500915 0.506637 0.826225 0.041535
C8    C     C_1   0.497758 0.504162 0.173563 0.033526
C9    C     C_R   0.685706 0.065870 0.438852 -0.103039
C10   C     C_R   0.597434 0.200388 0.513762 -0.107046
C11   C     C_R   0.352705 0.816304 0.583259 0.382321
C12   C     C_R   0.500525 0.500859 0.661761 0.934774
C13   C     C_R   0.375958 0.897909 0.637619 -0.146681
C14   C     C_R   0.447918 0.962335 0.621103 -0.123109
C15   C     C_R   0.485582 0.956463 0.542656 0.121876
C16   C     C_R   0.468316 0.869898 0.490374 -0.019115
C17   C     C_R   0.547287 0.029170 0.517966 -0.027116
C18   C     C_R   0.613368 0.000596 0.455990 0.022002
C19   C     C_R   0.599858 0.911106 0.407850 0.397106
C20   C     C_R   0.521690 0.851729 0.420527 -0.183396
C21   C     C_R   0.536861 0.132362 0.544700 0.333125
C22   C     C_R   0.678421 0.165103 0.468510 -0.264751
C23   C     C_R   0.560724 0.309222 0.511637 0.920362
C24   C     C_R   0.407139 0.796756 0.513917 -0.160921
C25   C     C_R   0.089339 0.341540 0.383339 -0.281955
C26   C     C_R   0.804003 0.627180 0.605431 0.357290
C27   C     C_R   0.913474 0.638080 0.640237 0.315991
C28   C     C_R   0.995880 0.575183 0.611171 0.384457
C29   C     C_R   0.966855 0.515672 0.535438 -0.177695
C30   C     C_R   0.855671 0.499631 0.508427 0.038275
C31   C     C_R   0.043277 0.469107 0.487482 -0.033165
C32   C     C_R   0.012557 0.392251 0.426534 0.016401
C33   C     C_R   0.905343 0.368156 0.408450 0.433285
C34   C     C_R   0.499279 0.499939 0.338192 0.875465
C35   C     C_R   0.827884 0.423928 0.447708 -0.217347
C36   C     C_R   0.149122 0.497130 0.496769 -0.073404
C37   C     C_R   0.194263 0.368316 0.399066 0.533947
C38   C     C_3   0.449473 0.597898 0.021153 -0.225151
C39   C     C_3   0.553286 0.582257 0.983089 0.495003
C40   C     C_1   0.501130 0.504109 0.750897 -0.108376
C41   C     C_1   0.497577 0.501786 0.248864 -0.123055
C42   C     C_3   0.395807 0.522715 0.953577 -0.261950
H1    H     H_    0.477688 0.012736 0.672733 0.205965
H2    H     H_    0.344514 0.907141 0.696578 0.193864
H3    H     H_    0.507258 0.787267 0.378066 0.167263
H4    H     H_    0.068179 0.282232 0.336771 0.217667
H5    H     H_    0.175024 0.560648 0.535618 0.244460
H6    H     H_    0.409320 0.672041 0.040240 0.188249
H7    H     H_    0.747014 0.404170 0.431503 0.202908
H8    H     H_    0.688197 0.480898 0.086021 0.176268
H9    H     H_    0.589576 0.342739 0.959472 0.188262
H10   H     H_    0.311275 0.535206 0.914250 0.174519
H11   H     H_    0.726929 0.217342 0.446792 0.194204
H12   H     H_    0.742041 0.043896 0.396738 0.204842
N1    N     N_R   0.222180 0.444680 0.455580 -0.148969
N2    N     N_R   0.776980 0.554790 0.543960 -0.161254
O1    O     O_R   0.366730 0.627160 0.478790 -0.588179
O2    O     O_R   0.544830 0.662520 0.507160 -0.551566
O3    O     O_R   0.410960 0.482330 0.609040 -0.600981
O4    O     O_R   0.589060 0.517690 0.637410 -0.575375
O5    O     O_R   0.455170 0.337480 0.492840 -0.515486
O6    O     O_R   0.633270 0.372840 0.521210 -0.662272
O7    O     O_R   0.410940 0.482310 0.362590 -0.559282
O8    O     O_R   0.589040 0.517670 0.390960 -0.642932
Zn1   Zn    Zn3+2 0.381080 0.476390 0.481050 1.059111
Zn2   Zn    Zn3+2 0.618920 0.523610 0.518950 0.998567
Cl1   Cl    Cl    0.624556 0.682122 0.958271 -0.587158
Cl2   Cl    Cl    0.434662 0.184687 0.601877 -0.634921
Cl3   Cl    Cl    0.272799 0.730322 0.615790 -0.570829
Cl4   Cl    Cl    0.287234 0.303486 0.342087 -0.527470
O9    O     O_3   0.879429 0.283037 0.359701 -0.648533
C43   C     C_3   0.809292 0.313516 0.279228 0.027637
H13   H     H_    0.851224 0.359150 0.240591 0.158042
H14   H     H_    0.732184 0.359370 0.288405 0.140676
C44   C     C_3   0.779864 0.217541 0.228948 -0.292763
H15   H     H_    0.855749 0.170760 0.218612 0.243381
H16   H     H_    0.739000 0.171320 0.267708 0.240269
C45   C     C_3   0.703645 0.243972 0.140958 -0.883648
H17   H     H_    0.626829 0.290016 0.149921 0.288045
H18   H     H_    0.682896 0.172614 0.106842 0.290124
H19   H     H_    0.744253 0.287438 0.100063 0.251849
Cl5   Cl    Cl    0.703865 0.703692 0.648575 -0.560760
O10   O     O_3   0.102179 0.573950 0.659051 -0.585139
C46   C     C_3   0.146424 0.474699 0.693660 0.105520
H20   H     H_    0.236886 0.469839 0.705176 0.198962
H21   H     H_    0.123361 0.411669 0.648677 0.145208
C47   C     C_3   0.115222 0.455818 0.780401 -0.461311
H22   H     H_    0.143480 0.514986 0.827297 0.228035
H23   H     H_    0.024997 0.459736 0.770502 0.207358
C48   C     C_3   0.167985 0.351289 0.819012 -0.793330
H24   H     H_    0.139971 0.289690 0.774211 0.264048
H25   H     H_    0.144483 0.340106 0.882035 0.287810
H26   H     H_    0.258501 0.346062 0.830760 0.279755
O11   O     O_3   0.939777 0.716398 0.697367 -0.558265
C49   C     C_3   0.944840 0.685291 0.783971 0.145158
H27   H     H_    0.031519 0.661015 0.815060 0.159934
H28   H     H_    0.896307 0.621442 0.789214 0.122559
C50   C     C_3   0.903145 0.776500 0.834269 -0.303452
H29   H     H_    0.951849 0.840191 0.830946 0.236563
H30   H     H_    0.816307 0.803334 0.804282 0.275536
C51   C     C_3   0.912000 0.748220 0.929525 -0.853721
H31   H     H_    0.863536 0.684881 0.934476 0.298676
H32   H     H_    0.879837 0.815479 0.963980 0.287438
H33   H     H_    0.998746 0.724290 0.961687 0.252301
Cl6   Cl    Cl    0.374281 0.332531 0.040719 -0.586402
Cl7   Cl    Cl    0.671985 0.874278 0.325419 -0.588773

loop_
_geom_bond_atom_site_label_1
_geom_bond_atom_site_label_2
_ccdc_geom_bond_type
C47   H22   S    
O7    Zn1   S    
C3    C42   S    
C51   H31   S    
C49   H27   S    
C46   C47   S    
C4    C8    S    
C49   C50   S    
C10   C22   A    
C26   C27   A    
C30   C35   A    
O10   C46   S    
C28   C29   A    
C46   H21   S    
C38   C42   S    
C5    C6    S    
C45   H18   S    
C9    C22   A    
C15   C16   A    
C11   C24   A    
C36   H5    S    
C18   C19   A    
C2    C7    S    
C25   C37   A    
C12   O3    A    
C2    C39   S    
O2    Zn2   S    
C23   O6    A    
C19   C20   A    
C35   H7    S    
C7    C40   T    
C38   H6    S    
C20   H3    S    
C25   C32   A    
O4    Zn2   S    
C16   C24   A    
C37   Cl4   S    
C28   O10   S    
C34   C41   S    
C43   C44   S    
N1    Zn1   S    
C26   Cl5   S    
C22   H11   S    
C10   C21   A    
O6    Zn2   S    
C8    C41   T    
C4    C6    S    
C45   H17   S    
C30   N2    A    
C6    H8    S    
C12   O4    A    
C12   C40   S    
C44   H15   S    
C29   C30   A    
C1    O1    A    
C48   H25   S    
C31   C32   A    
C3    Cl6   S    
C16   C20   A    
C34   O8    A    
C17   C18   A    
C46   H20   S    
C44   H16   S    
O8    Zn2   S    
C43   H14   S    
C4    C38   S    
C51   H33   S    
C50   H30   S    
C47   H23   S    
C21   Cl2   S    
C2    C5    S    
C3    C4    S    
C48   H26   S    
C15   C17   A    
C49   H28   S    
C31   C36   A    
C39   Cl1   S    
C14   C15   A    
O1    Zn1   S    
C43   H13   S    
C3    C5    S    
C26   N2    A    
C11   Cl3   S    
C10   C23   S    
C50   C51   S    
C32   C33   A    
O9    C43   S    
C29   C31   A    
C36   N1    A    
C1    O2    A    
O3    Zn1   S    
C11   C13   A    
C45   H19   S    
C48   H24   S    
C38   C39   S    
C2    C42   S    
N2    Zn2   S    
C34   O7    A    
C33   C35   A    
O11   C49   S    
C44   C45   S    
C17   C21   A    
C33   O9    S    
C37   N1    A    
C19   Cl7   S    
O5    Zn1   S    
C9    C18   A    
C23   O5    A    
C1    C24   S    
C51   H32   S    
C50   H29   S    
C47   C48   S    
C27   C28   A    
C6    C39   S    
C5    H9    S    
C27   O11   S    
C9    H12   S    
C13   C14   A    
C25   H4    S    
C13   H2    S    
C42   H10   S    
C14   H1    S    
