data_mof_unit_55840.cif
_audit_creation_date              2012-12-10T18:03:16-0500
_audit_creation_method            fapswitch 2.2
_symmetry_space_group_name_H-M    P1
_symmetry_Int_Tables_number       1
_space_group_crystal_system       triclinic
_cell_length_a                    10.950433
_cell_length_b                    9.504524
_cell_length_c                    15.061809
_cell_angle_alpha                 90.174626
_cell_angle_beta                  88.875558
_cell_angle_gamma                 90.218507
_cell_volume                      1567.29259719

loop_
_atom_site_label
_atom_site_type_symbol
_atom_type_description
_atom_site_fract_x
_atom_site_fract_y
_atom_site_fract_z
_atom_type_partial_charge
C1    C     C_R   0.261982 0.499739 0.502032 0.876618
C2    C     C_R   0.738052 0.500027 0.498409 0.879490
C3    C     C_R   0.502239 0.499805 0.329626 0.826978
C4    C     C_R   0.499827 0.500047 0.669863 0.824731
C5    C     C_R   0.461305 0.073908 0.427956 -0.029878
C6    C     C_R   0.539017 0.926146 0.572028 -0.059571
C7    C     C_R   0.537861 0.074834 0.572333 -0.019907
C8    C     C_R   0.458929 0.925192 0.428633 -0.054839
C9    C     C_R   0.062884 0.371107 0.500342 0.298678
C10   C     C_R   0.938406 0.626265 0.489771 0.306967
C11   C     C_R   0.935814 0.371652 0.507855 0.296100
C12   C     C_R   0.063022 0.627116 0.507075 0.296859
C13   C     C_R   0.549880 0.625374 0.095029 0.455917
C14   C     C_R   0.601307 0.414637 0.898278 0.474079
C15   C     C_R   0.440809 0.593342 0.908042 0.444405
C16   C     C_R   0.505635 0.372705 0.092900 0.447371
C17   C     C_R   0.534426 0.625180 0.187101 -0.320622
C18   C     C_R   0.585645 0.407498 0.806926 -0.307010
C19   C     C_R   0.435764 0.594106 0.815817 -0.293312
C20   C     C_R   0.500918 0.373070 0.185350 -0.295206
C21   C     C_R   0.511319 0.499444 0.232664 -0.158132
C22   C     C_R   0.506013 0.499771 0.765718 -0.150562
C23   C     C_R   0.530191 0.499955 0.047217 -0.071369
C24   C     C_R   0.525509 0.504073 0.949922 -0.079044
C25   C     C_R   0.871964 0.499328 0.498381 -0.380100
C26   C     C_R   0.128025 0.499139 0.504263 -0.374579
Cu1   Cu    Cu3+1 0.500000 0.640660 0.500000 0.947248
Cu2   Cu    Cu3+1 0.500000 0.359340 0.500000 0.956228
N1    N     N_R   0.500000 0.852070 0.500000 -0.160717
N2    N     N_R   0.500000 0.147930 0.500000 -0.148481
O1    O     O_R   0.319640 0.618740 0.499990 -0.543822
O2    O     O_R   0.680360 0.381260 0.500010 -0.544262
O3    O     O_R   0.680360 0.618740 0.500010 -0.541827
O4    O     O_R   0.319640 0.381260 0.499990 -0.545273
O5    O     O_R   0.499990 0.618780 0.371460 -0.604800
O6    O     O_R   0.500010 0.381220 0.628540 -0.598470
O7    O     O_R   0.500010 0.618780 0.628540 -0.596221
O8    O     O_R   0.499990 0.381220 0.371460 -0.601522
H1    H     H_    0.429833 0.129023 0.370204 0.123279
H2    H     H_    0.571780 0.871190 0.629505 0.150969
H3    H     H_    0.569474 0.130606 0.630135 0.130054
H4    H     H_    0.425512 0.869412 0.371363 0.145636
O9    O     O_3   0.572325 0.750598 0.050756 -0.565448
C27   C     C_3   0.694353 0.792878 0.064092 0.006110
H5    H     H_    0.758866 0.710134 0.039984 0.129730
H6    H     H_    0.710467 0.814363 0.135627 0.140530
C28   C     C_3   0.719073 0.928188 0.012025 -0.246612
H7    H     H_    0.700397 0.909996 0.940593 0.226437
H8    H     H_    0.656830 0.012106 0.037096 0.268761
C29   C     C_3   0.851016 0.977517 0.021219 -0.947809
H9    H     H_    0.873074 0.992967 0.092259 0.250779
H10   H     H_    0.864144 0.079151 0.986256 0.277319
H11   H     H_    0.914493 0.899244 0.991049 0.258556
O10   O     O_3   0.687642 0.329975 0.937229 -0.579850
C30   C     C_3   0.802743 0.398776 0.935397 0.056279
H12   H     H_    0.850001 0.370105 0.997362 0.165211
H13   H     H_    0.796347 0.516045 0.935407 0.113456
C31   C     C_3   0.880680 0.348676 0.855662 -0.356431
H14   H     H_    0.882953 0.231876 0.854225 0.228793
H15   H     H_    0.840545 0.386024 0.792992 0.196899
C32   C     C_3   0.011024 0.405032 0.859707 -0.966787
H16   H     H_    0.010860 0.521892 0.858374 0.255826
H17   H     H_    0.064808 0.366136 0.801422 0.257253
H18   H     H_    0.055385 0.368544 0.921078 0.254961
O11   O     O_3   0.370087 0.689256 0.955403 -0.565986
C33   C     C_3   0.263917 0.621660 0.988939 0.035214
H19   H     H_    0.287907 0.546780 0.042205 0.136240
H20   H     H_    0.215107 0.565010 0.935268 0.131990
C34   C     C_3   0.178352 0.731920 0.029723 -0.281477
H21   H     H_    0.228455 0.794341 0.079945 0.239403
H22   H     H_    0.147580 0.804195 0.976875 0.213174
C35   C     C_3   0.066879 0.663760 0.074706 -0.996687
H23   H     H_    0.011417 0.606924 0.025052 0.258058
H24   H     H_    0.009433 0.746167 0.106810 0.255628
H25   H     H_    0.095645 0.588875 0.126714 0.257925
O12   O     O_3   0.496234 0.245207 0.048581 -0.586414
C36   C     C_3   0.376205 0.224909 0.017638 0.082410
H26   H     H_    0.383028 0.159712 0.956397 0.181373
H27   H     H_    0.330728 0.324013 0.997877 0.091851
C37   C     C_3   0.297558 0.145431 0.086352 -0.365054
H28   H     H_    0.340919 0.042722 0.100982 0.239897
H29   H     H_    0.290754 0.207291 0.148892 0.201614
C38   C     C_3   0.168809 0.119826 0.052617 -0.932363
H30   H     H_    0.120394 0.221426 0.045326 0.252966
H31   H     H_    0.116673 0.053729 0.100832 0.259490
H32   H     H_    0.172156 0.064701 0.987504 0.262694
H33   H     H_    0.540880 0.723899 0.222549 0.163145
H34   H     H_    0.638818 0.333333 0.767663 0.148767
H35   H     H_    0.374370 0.665481 0.783372 0.158394
H36   H     H_    0.486311 0.274397 0.219843 0.166037
O13   O     O_3   0.121799 0.242859 0.495636 -0.577300
C39   C     C_3   0.125728 0.197090 0.406139 0.081202
H37   H     H_    0.200629 0.253122 0.369672 0.142550
H38   H     H_    0.038185 0.215788 0.371312 0.138305
C40   C     C_3   0.150087 0.039271 0.404207 -0.292607
H39   H     H_    0.228469 0.015243 0.446400 0.239328
H40   H     H_    0.070496 0.983165 0.433809 0.257699
C41   C     C_3   0.175858 0.985630 0.310016 -0.976894
H41   H     H_    0.259885 0.035489 0.282057 0.243663
H42   H     H_    0.098420 0.009674 0.266215 0.250621
H43   H     H_    0.189444 0.869965 0.311272 0.271813
O14   O     O_3   0.885309 0.748021 0.458401 -0.548192
C42   C     C_3   0.896761 0.744840 0.364339 0.128529
H44   H     H_    0.840771 0.657556 0.336568 0.111777
H45   H     H_    0.993661 0.728897 0.342469 0.107312
C43   C     C_3   0.855057 0.883325 0.323355 -0.390633
H46   H     H_    0.910520 0.972443 0.347297 0.232291
H47   H     H_    0.867567 0.876704 0.250076 0.155207
C44   C     C_3   0.722402 0.914777 0.345319 -0.707437
H48   H     H_    0.664418 0.823221 0.328574 0.238396
H49   H     H_    0.692272 0.007475 0.306863 0.214257
H50   H     H_    0.712499 0.939005 0.417086 0.282547
O15   O     O_3   0.875698 0.243748 0.514171 -0.565216
C45   C     C_3   0.871192 0.201207 0.604080 0.094971
H51   H     H_    0.793056 0.254122 0.638478 0.131034
H52   H     H_    0.956595 0.226699 0.640317 0.139199
C46   C     C_3   0.852998 0.042017 0.607508 -0.280959
H53   H     H_    0.777039 0.011052 0.564252 0.236952
H54   H     H_    0.935981 0.989532 0.580721 0.241693
C47   C     C_3   0.826106 0.991334 0.701963 -0.984891
H55   H     H_    0.901837 0.020893 0.746234 0.257182
H56   H     H_    0.815878 0.875055 0.702064 0.264191
H57   H     H_    0.740046 0.038641 0.728154 0.252881
O16   O     O_3   0.120886 0.754730 0.520727 -0.577579
C48   C     C_3   0.126667 0.777828 0.613498 0.072683
H58   H     H_    0.177456 0.691444 0.646304 0.132277
H59   H     H_    0.033037 0.783783 0.643566 0.143216
C49   C     C_3   0.193616 0.916316 0.631273 -0.316602
H60   H     H_    0.287075 0.910683 0.601932 0.238372
H61   H     H_    0.145245 0.004494 0.599453 0.241543
C50   C     C_3   0.202124 0.947211 0.730456 -0.931941
H62   H     H_    0.109645 0.953896 0.761511 0.252454
H63   H     H_    0.249859 0.049191 0.740370 0.263052
H64   H     H_    0.254187 0.863609 0.763916 0.258721

loop_
_geom_bond_atom_site_label_1
_geom_bond_atom_site_label_2
_ccdc_geom_bond_type
C33   H20   S    
C30   H12   S    
C4    O6    A    
Cu1   N1    S    
C14   C18   A    
C40   H39   S    
C50   H64   S    
C49   H60   S    
C9    O13   S    
C45   H51   S    
C40   C41   S    
C28   H8    S    
C36   H26   S    
Cu1   O3    S    
C15   C19   A    
C8    N1    A    
C8    H4    S    
O15   C45   S    
C46   H54   S    
C33   C34   S    
C43   H46   S    
C11   C25   A    
C31   H15   S    
C15   O11   S    
C1    O1    A    
C13   C23   A    
C2    O2    A    
C14   C24   A    
C34   H22   S    
C42   H44   S    
C28   H7    S    
C3    O8    A    
C47   H56   S    
C1    O4    A    
C48   C49   S    
C29   H10   S    
C23   C24   S    
Cu2   O8    S    
C2    C25   S    
C27   C28   S    
C31   C32   S    
C33   H19   S    
Cu2   O4    S    
C7    N2    A    
C16   O12   S    
C32   H16   S    
C35   H25   S    
C27   H6    S    
C9    C26   A    
C28   C29   S    
C36   H27   S    
C29   H11   S    
Cu1   O1    S    
O14   C42   S    
Cu2   O2    S    
C19   C22   A    
O12   C36   S    
C37   H29   S    
C44   H50   S    
O13   C39   S    
C35   H23   S    
Cu1   O5    S    
C31   H14   S    
C20   H36   S    
C39   C40   S    
C18   H34   S    
C12   C26   A    
C32   H18   S    
O9    C27   S    
C19   H35   S    
C4    C22   S    
C38   H30   S    
C12   O16   S    
C3    O5    A    
C16   C20   A    
C17   H33   S    
C39   H38   S    
C29   H9    S    
C42   H45   S    
C40   H40   S    
C20   C21   A    
C9    C11   A    
C10   C12   A    
C10   C25   A    
C35   H24   S    
C15   C24   A    
C14   O10   S    
C41   H41   S    
C16   C23   A    
C41   H42   S    
C30   H13   S    
C1    C26   S    
C6    H2    S    
C46   C47   S    
C50   H62   S    
C49   C50   S    
C13   O9    S    
C34   C35   S    
C47   H55   S    
C2    O3    A    
C37   C38   S    
C5    N2    A    
C36   C37   S    
C5    H1    S    
O10   C30   S    
C38   H31   S    
C18   C22   A    
C32   H17   S    
C27   H5    S    
C37   H28   S    
C50   H63   S    
C49   H61   S    
C5    C8    A    
C45   H52   S    
C47   H57   S    
C6    C7    A    
C41   H43   S    
C13   C17   A    
C38   H32   S    
C44   H49   S    
C46   H53   S    
C48   H58   S    
C43   H47   S    
Cu1   O7    S    
C10   O14   S    
Cu2   N2    S    
C39   H37   S    
C42   C43   S    
C7    H3    S    
C34   H21   S    
C11   O15   S    
C17   C21   A    
C45   C46   S    
C3    C21   S    
C6    N1    A    
C4    O7    A    
Cu2   O6    S    
O11   C33   S    
C30   C31   S    
Cu1   Cu2   S    
C48   H59   S    
C44   H48   S    
O16   C48   S    
C43   C44   S    
