data_mof_unit_50193.cif
_audit_creation_date              2012-12-10T18:39:00-0500
_audit_creation_method            fapswitch 2.2
_symmetry_space_group_name_H-M    P1
_symmetry_Int_Tables_number       1
_space_group_crystal_system       triclinic
_cell_length_a                    13.825809
_cell_length_b                    15.112221
_cell_length_c                    17.282606
_cell_angle_alpha                 90.569515
_cell_angle_beta                  85.944112
_cell_angle_gamma                 89.499502
_cell_volume                      3601.62207213

loop_
_atom_site_label
_atom_site_type_symbol
_atom_type_description
_atom_site_fract_x
_atom_site_fract_y
_atom_site_fract_z
_atom_type_partial_charge
C1    C     C_R   0.499619 0.670369 0.497646 0.870646
C2    C     C_R   0.500480 0.330134 0.499991 0.912538
C3    C     C_R   0.414366 0.908230 0.485476 0.345908
C4    C     C_R   0.550625 0.093102 0.547462 0.333411
C5    C     C_R   0.412355 0.815715 0.483718 0.337619
C6    C     C_R   0.554465 0.185710 0.549092 0.308176
C7    C     C_R   0.499137 0.767158 0.490981 -0.282777
C8    C     C_R   0.502291 0.234180 0.496830 -0.246428
C9    C     C_R   0.587542 0.811754 0.490464 -0.361384
C10   C     C_R   0.454495 0.191229 0.438919 -0.370945
C11   C     C_R   0.591445 0.903135 0.483659 0.477750
C12   C     C_R   0.459304 0.099614 0.431248 0.464621
C13   C     C_R   0.503967 0.952382 0.484255 -0.126953
C14   C     C_R   0.505212 0.049634 0.487199 -0.119525
C15   C     C_R   0.898640 0.490763 0.429024 0.356813
C16   C     C_R   0.104631 0.569818 0.538531 0.330613
C17   C     C_R   0.796681 0.486006 0.432240 -0.026562
C18   C     C_R   0.206355 0.565020 0.539526 -0.002356
C19   C     C_R   0.785781 0.515854 0.566827 0.023964
C20   C     C_R   0.212689 0.436911 0.459793 0.028705
C21   C     C_R   0.887321 0.515921 0.567418 -0.301704
C22   C     C_R   0.111134 0.436889 0.459257 -0.304246
C23   C     C_R   0.487495 0.498535 0.650163 0.836440
C24   C     C_R   0.512439 0.503334 0.349971 0.801239
C25   C     C_R   0.945910 0.502920 0.498362 0.017931
C26   C     C_R   0.054917 0.503365 0.499007 0.027882
C27   C     C_R   0.481767 0.493971 0.734787 -0.083708
C28   C     C_R   0.517638 0.514939 0.265935 -0.079670
C29   C     C_R   0.566436 0.477507 0.772574 -0.283950
C30   C     C_R   0.433353 0.539320 0.230385 -0.319236
C31   C     C_R   0.564280 0.475839 0.853629 0.481926
C32   C     C_R   0.434277 0.548076 0.149405 0.496352
C33   C     C_R   0.474500 0.487793 0.896472 0.067142
C34   C     C_R   0.523424 0.535426 0.105571 0.074047
C35   C     C_R   0.389293 0.500371 0.858635 -0.227907
C36   C     C_R   0.608568 0.516501 0.141701 -0.230843
C37   C     C_R   0.392883 0.504274 0.778150 -0.195897
C38   C     C_R   0.605674 0.505419 0.221491 -0.203871
C39   C     C_2   0.467814 0.489111 0.981226 -0.123121
C40   C     C_2   0.528885 0.537052 0.020845 -0.128028
Cu1   Cu    Cu3+1 0.403570 0.500010 0.500000 0.938619
Cu2   Cu    Cu3+1 0.596430 0.499990 0.500000 0.930890
H1    H     H_    0.743284 0.527961 0.620733 0.138166
H2    H     H_    0.254716 0.385897 0.428153 0.142716
H3    H     H_    0.587467 0.573339 0.990880 0.142427
H4    H     H_    0.409395 0.452854 0.011376 0.153060
N1    N     N_R   0.741310 0.499980 0.500000 -0.193262
N2    N     N_R   0.258690 0.500020 0.500000 -0.205487
O1    O     O_R   0.418570 0.628550 0.499990 -0.566084
O2    O     O_R   0.581430 0.371450 0.500010 -0.570116
O3    O     O_R   0.581440 0.628540 0.499990 -0.585060
O4    O     O_R   0.418560 0.371460 0.500010 -0.587398
O5    O     O_R   0.409120 0.500020 0.613600 -0.584254
O6    O     O_R   0.590880 0.499980 0.386400 -0.604871
O7    O     O_R   0.571990 0.500010 0.613600 -0.602614
O8    O     O_R   0.428010 0.499990 0.386400 -0.599688
H5    H     H_    0.634192 0.465059 0.739022 0.145358
H6    H     H_    0.368060 0.552162 0.266744 0.154284
O9    O     O_3   0.950180 0.480451 0.357779 -0.627299
C41   C     C_3   0.982946 0.563814 0.330311 0.054010
H7    H     H_    0.045312 0.551692 0.287425 0.165983
H8    H     H_    0.011002 0.606369 0.376421 0.113198
C42   C     C_3   0.903646 0.612941 0.289664 -0.371170
H9    H     H_    0.878003 0.570341 0.242625 0.224759
H10   H     H_    0.841167 0.628189 0.331799 0.208425
C43   C     C_3   0.941478 0.699634 0.255189 -0.924628
H11   H     H_    0.964456 0.744332 0.301791 0.259689
H12   H     H_    0.883089 0.732961 0.225188 0.258871
H13   H     H_    0.003975 0.686783 0.212432 0.255371
O10   O     O_3   0.055941 0.638481 0.578476 -0.620387
C44   C     C_3   0.028645 0.702800 0.525091 0.046290
H14   H     H_    0.964120 0.680023 0.495903 0.151824
H15   H     H_    0.088599 0.716863 0.480363 0.133042
C45   C     C_3   0.001849 0.788873 0.568829 -0.309362
H16   H     H_    0.947976 0.775116 0.617968 0.229766
H17   H     H_    0.067828 0.816713 0.592664 0.222625
C46   C     C_3   0.958551 0.856685 0.515868 -0.919291
H18   H     H_    0.009631 0.869823 0.464862 0.242768
H19   H     H_    0.943829 0.919677 0.548368 0.268410
H20   H     H_    0.889222 0.832000 0.495479 0.266441
H21   H     H_    0.762538 0.473125 0.379110 0.144490
H22   H     H_    0.243761 0.614836 0.571077 0.169184
H23   H     H_    0.919903 0.525715 0.621911 0.193401
H24   H     H_    0.076692 0.384576 0.428308 0.187657
H25   H     H_    0.671871 0.488579 0.248180 0.153073
H26   H     H_    0.326447 0.515898 0.750008 0.165709
H27   H     H_    0.320235 0.509246 0.891669 0.157093
H28   H     H_    0.676819 0.507277 0.107589 0.154989
O11   O     O_3   0.353631 0.574830 0.110647 -0.623661
C47   C     C_3   0.263012 0.546373 0.144869 0.045788
H29   H     H_    0.206116 0.574027 0.109516 0.169121
H30   H     H_    0.246104 0.575583 0.203431 0.130745
C48   C     C_3   0.252932 0.444990 0.143312 -0.400473
H31   H     H_    0.254195 0.421552 0.082109 0.213688
H32   H     H_    0.313864 0.412501 0.170890 0.219615
C49   C     C_3   0.158324 0.416313 0.186165 -0.882908
H33   H     H_    0.158901 0.433339 0.248800 0.256919
H34   H     H_    0.150531 0.343536 0.180332 0.258149
H35   H     H_    0.095344 0.449126 0.161541 0.254741
O12   O     O_3   0.645968 0.452413 0.891628 -0.616271
C50   C     C_3   0.726759 0.505959 0.869263 0.023949
H36   H     H_    0.753855 0.534924 0.922883 0.155877
H37   H     H_    0.709691 0.563195 0.832000 0.122779
C51   C     C_3   0.807829 0.448759 0.829187 -0.330723
H38   H     H_    0.829840 0.396850 0.869715 0.230468
H39   H     H_    0.781451 0.415333 0.777391 0.210037
C52   C     C_3   0.895988 0.504227 0.803973 -0.927310
H40   H     H_    0.875546 0.556547 0.763327 0.254191
H41   H     H_    0.952731 0.461198 0.774020 0.257070
H42   H     H_    0.926254 0.535622 0.855271 0.259194
O13   O     O_3   0.328407 0.955244 0.482586 -0.561950
C53   C     C_3   0.285867 0.967908 0.558516 0.085298
H43   H     H_    0.330009 0.014601 0.591153 0.113198
H44   H     H_    0.278671 0.904051 0.590156 0.153476
C54   C     C_3   0.184918 0.008311 0.553538 -0.308069
H45   H     H_    0.191174 0.072959 0.523524 0.230392
H46   H     H_    0.140871 0.963616 0.519023 0.226073
C55   C     C_3   0.133585 0.022456 0.633839 -0.943296
H47   H     H_    0.125181 0.958408 0.664456 0.255227
H48   H     H_    0.060457 0.051523 0.627960 0.259445
H49   H     H_    0.175563 0.068492 0.668792 0.259429
O14   O     O_3   0.596035 0.045614 0.602789 -0.568597
C56   C     C_3   0.528176 0.027853 0.665382 0.088072
H50   H     H_    0.474123 0.979202 0.647198 0.113995
H51   H     H_    0.490188 0.089524 0.687411 0.150511
C57   C     C_3   0.581607 0.987640 0.731139 -0.304690
H52   H     H_    0.620436 0.926420 0.709825 0.228510
H53   H     H_    0.635973 0.035467 0.750223 0.224712
C58   C     C_3   0.511608 0.964897 0.800165 -0.939015
H54   H     H_    0.473116 0.025448 0.823262 0.260351
H55   H     H_    0.552645 0.935866 0.846851 0.260281
H56   H     H_    0.457635 0.915907 0.782608 0.255655
O15   O     O_3   0.323556 0.774327 0.481432 -0.599120
C59   C     C_3   0.309388 0.745846 0.404665 0.109912
H57   H     H_    0.271022 0.681582 0.408652 0.162171
H58   H     H_    0.378193 0.733183 0.368153 0.109213
C60   C     C_3   0.245801 0.812258 0.364689 -0.336025
H59   H     H_    0.180691 0.829267 0.403519 0.226954
H60   H     H_    0.287194 0.873758 0.352580 0.250904
C61   C     C_3   0.213464 0.774596 0.288504 -0.980761
H61   H     H_    0.277531 0.757711 0.248454 0.270437
H62   H     H_    0.168472 0.824507 0.260448 0.269933
H63   H     H_    0.169407 0.714257 0.299420 0.247461
O16   O     O_3   0.600587 0.229113 0.606797 -0.598864
C62   C     C_3   0.701601 0.227759 0.587233 0.116026
H64   H     H_    0.718712 0.252516 0.527249 0.138005
H65   H     H_    0.731434 0.159490 0.591450 0.178124
C63   C     C_3   0.750981 0.287591 0.643920 -0.337099
H66   H     H_    0.720127 0.355502 0.641568 0.230993
H67   H     H_    0.736681 0.262606 0.703881 0.222099
C64   C     C_3   0.860300 0.290932 0.624441 -0.934431
H68   H     H_    0.893055 0.223963 0.628895 0.256890
H69   H     H_    0.893704 0.336075 0.665816 0.260866
H70   H     H_    0.876222 0.316006 0.564736 0.266387
H71   H     H_    0.655054 0.775677 0.494466 0.204742
H72   H     H_    0.416076 0.229221 0.397702 0.181724
O17   O     O_3   0.681455 0.942726 0.485011 -0.569901
C65   C     C_3   0.712357 0.975194 0.410878 0.057868
H73   H     H_    0.777726 0.015864 0.418071 0.170101
H74   H     H_    0.658140 0.020554 0.387840 0.104522
C66   C     C_3   0.740235 0.900266 0.352464 -0.390179
H75   H     H_    0.795422 0.856307 0.376324 0.228226
H76   H     H_    0.675465 0.860197 0.341677 0.207858
C67   C     C_3   0.780975 0.937276 0.275207 -0.910557
H77   H     H_    0.726512 0.981130 0.250269 0.252903
H78   H     H_    0.798925 0.882046 0.233721 0.257101
H79   H     H_    0.847972 0.975303 0.283299 0.257961
O18   O     O_3   0.412673 0.060158 0.371727 -0.563179
C68   C     C_3   0.481956 0.034052 0.311690 0.037239
H80   H     H_    0.520361 0.973048 0.328474 0.140005
H81   H     H_    0.535675 0.087357 0.297802 0.124446
C69   C     C_3   0.430062 0.013183 0.238650 -0.309654
H82   H     H_    0.375067 0.961202 0.251466 0.224988
H83   H     H_    0.392227 0.073690 0.219948 0.220248
C70   C     C_3   0.501386 0.980681 0.172821 -0.928051
H84   H     H_    0.556305 0.032167 0.158031 0.255497
H85   H     H_    0.461628 0.966123 0.120619 0.261402
H86   H     H_    0.538727 0.919232 0.189908 0.258393

loop_
_geom_bond_atom_site_label_1
_geom_bond_atom_site_label_2
_ccdc_geom_bond_type
C43   H12   S    
C42   H10   S    
C48   H31   S    
C27   C29   A    
C68   H81   S    
Cu1   Cu2   S    
O13   C53   S    
C63   C64   S    
C66   C67   S    
C59   C60   S    
C51   H39   S    
C66   H75   S    
C56   H50   S    
C70   H85   S    
C46   H18   S    
C36   H28   S    
C5    O15   S    
C60   H60   S    
C33   C39   S    
C45   H17   S    
C41   C42   S    
C34   C40   S    
C67   H77   S    
C35   C37   A    
C61   H62   S    
C62   H64   S    
C33   C35   A    
C19   N1    A    
C56   H51   S    
C43   H13   S    
C24   O6    A    
C54   H45   S    
C49   H35   S    
C41   H8    S    
C68   H80   S    
C64   H70   S    
C55   H47   S    
C53   H43   S    
C2    O2    A    
C65   C66   S    
C62   H65   S    
C35   H27   S    
O17   C65   S    
C21   H23   S    
C3    O13   S    
C54   H46   S    
C45   C46   S    
C49   H34   S    
C64   H68   S    
C61   H63   S    
O10   C44   S    
C23   C27   S    
Cu1   O4    S    
C17   H21   S    
C3    C13   A    
C69   C70   S    
Cu2   O3    S    
C58   H56   S    
C43   H11   S    
C42   C43   S    
O9    C41   S    
C50   H37   S    
C13   C14   S    
C65   H74   S    
C52   H41   S    
C10   C12   A    
C48   H32   S    
Cu1   O1    S    
C51   H38   S    
C66   H76   S    
C69   H83   S    
C23   O5    A    
C70   H86   S    
C46   H19   S    
C16   C26   A    
C40   H3    S    
C60   C61   S    
C45   H16   S    
C38   H25   S    
C50   H36   S    
C17   N1    A    
C37   H26   S    
C53   C54   S    
C16   O10   S    
C63   H66   S    
C4    C6    A    
C10   H72   S    
C39   C40   D    
C5    C7    A    
C56   C57   S    
C59   H58   S    
C19   H1    S    
C57   C58   S    
C25   C26   S    
C41   H7    S    
C55   H49   S    
C22   H24   S    
Cu1   O8    S    
Cu2   O7    S    
C1    O3    A    
C47   H30   S    
C70   H84   S    
C28   C38   A    
C52   H40   S    
C54   C55   S    
C49   H33   S    
C31   C33   A    
C4    O14   S    
C31   O12   S    
C61   H61   S    
C9    C11   A    
Cu1   O5    S    
C20   N2    A    
C2    O4    A    
Cu2   O2    S    
C39   H4    S    
C53   H44   S    
C16   C18   A    
O18   C68   S    
C29   H5    S    
C20   H2    S    
C48   C49   S    
C32   O11   S    
O15   C59   S    
C68   C69   S    
C20   C22   A    
C6    O16   S    
C36   C38   A    
O11   C47   S    
C62   C63   S    
C69   H82   S    
C11   O17   S    
C47   C48   S    
C44   H15   S    
C58   H54   S    
C46   H20   S    
C15   C17   A    
C21   C25   A    
C57   H53   S    
C19   C21   A    
C1    C7    S    
C15   O9    S    
C67   H79   S    
C2    C8    S    
C24   C28   S    
C63   H67   S    
O16   C62   S    
C3    C5    A    
C18   N2    A    
C12   O18   S    
C44   C45   S    
C6    C8    A    
C23   O7    A    
C59   H57   S    
C24   O8    A    
C60   H59   S    
C52   H42   S    
C67   H78   S    
C12   C14   A    
C44   H14   S    
C29   C31   A    
Cu2   O6    S    
C30   C32   A    
C11   C13   A    
C47   H29   S    
C65   H73   S    
C27   C37   A    
C57   H52   S    
C30   H6    S    
C28   C30   A    
O12   C50   S    
C18   H22   S    
Cu1   N2    S    
C34   C36   A    
Cu2   N1    S    
C64   H69   S    
C4    C14   A    
C55   H48   S    
C15   C25   A    
C42   H9    S    
C7    C9    A    
C9    H71   S    
C8    C10   A    
C22   C26   A    
C50   C51   S    
O14   C56   S    
C1    O1    A    
C51   C52   S    
C32   C34   A    
C58   H55   S    
