data_mof_unit_62114.cif
_audit_creation_date              2013-03-05T16:31:39-0500
_audit_creation_method            fapswitch 2.2
_symmetry_space_group_name_H-M    P1
_symmetry_Int_Tables_number       1
_space_group_crystal_system       triclinic
_cell_length_a                    38.671425
_cell_length_b                    32.118845
_cell_length_c                    21.393205
_cell_angle_alpha                 89.820837
_cell_angle_beta                  123.867865
_cell_angle_gamma                 90.205101
_cell_volume                      22063.3198757

loop_
_atom_site_label
_atom_site_type_symbol
_atom_site_description
_atom_site_fract_x
_atom_site_fract_y
_atom_site_fract_z
_atom_type_partial_charge
O1    O     O_R   0.939010 0.034440 0.439030 -0.606360
O2    O     O_R   0.060990 0.034440 0.560970 -0.600841
O3    O     O_R   0.439010 0.534440 0.439030 -0.626924
O4    O     O_R   0.560990 0.534440 0.560970 -0.587183
O5    O     O_R   0.939030 0.965580 0.439000 -0.600604
O6    O     O_R   0.060970 0.965580 0.561000 -0.611302
O7    O     O_R   0.439030 0.465580 0.439000 -0.583912
O8    O     O_R   0.560970 0.465580 0.561000 -0.604315
C1    C     C_R   0.919354 0.999958 0.419452 0.940106
C2    C     C_R   0.080644 0.000042 0.580400 0.944421
C3    C     C_R   0.419352 0.499952 0.419311 0.893472
C4    C     C_R   0.580648 0.500042 0.580705 0.908479
O9    O     O_R   0.000010 0.034440 0.593030 -0.615017
O10   O     O_R   0.999990 0.034440 0.406970 -0.614263
O11   O     O_R   0.500010 0.534440 0.593030 -0.591361
O12   O     O_R   0.499990 0.534440 0.406970 -0.604158
O13   O     O_R   0.000020 0.965580 0.593000 -0.619544
O14   O     O_R   0.999980 0.965580 0.407000 -0.607750
O15   O     O_R   0.500020 0.465580 0.593000 -0.600051
O16   O     O_R   0.499980 0.465580 0.407000 -0.592357
C5    C     C_R   0.999857 0.999983 0.621502 0.970205
C6    C     C_R   0.999890 0.000147 0.378223 0.954205
C7    C     C_R   0.501398 0.499952 0.623032 0.940119
C8    C     C_R   0.498693 0.500114 0.377054 0.921266
Zn1   Zn    Zn3+2 0.000000 0.045990 0.500000 1.085717
Zn2   Zn    Zn3+2 0.500000 0.545990 0.500000 1.090790
Zn3   Zn    Zn3+2 0.000000 0.954030 0.500000 1.071292
Zn4   Zn    Zn3+2 0.500000 0.454030 0.500000 1.126923
C9    C     C_3   0.976953 0.966951 0.705315 -0.358950
C10   C     C_3   0.030808 0.975197 0.302717 -0.361344
C11   C     C_3   0.462337 0.507383 0.689719 -0.338395
C12   C     C_3   0.537152 0.490244 0.309726 -0.335616
C13   C     C_3   0.016185 0.963987 0.786728 -0.099219
C14   C     C_3   0.993888 0.961448 0.223727 -0.096123
C15   C     C_3   0.474545 0.469755 0.743659 -0.110531
C16   C     C_3   0.509479 0.462766 0.239303 -0.101794
H1    H     H_    0.958514 0.940394 0.668326 0.190875
H2    H     H_    0.055785 0.954806 0.346595 0.186876
H3    H     H_    0.430916 0.513961 0.638764 0.192350
H4    H     H_    0.568133 0.481745 0.360139 0.188819
C17   C     C_3   0.999284 0.999343 0.810460 -0.074315
C18   C     C_3   0.000507 0.000102 0.189287 -0.075490
C19   C     C_3   0.499897 0.499149 0.811094 -0.061109
C20   C     C_3   0.500158 0.500883 0.188890 -0.052850
C21   C     C_3   0.960252 0.002628 0.729884 -0.014518
C22   C     C_3   0.037075 0.014126 0.267225 -0.007049
C23   C     C_3   0.488144 0.536583 0.758285 -0.023654
C24   C     C_3   0.527378 0.528535 0.258145 0.012330
C25   C     C_3   0.982850 0.035251 0.712395 -0.063351
C26   C     C_3   0.006421 0.039236 0.276303 -0.061585
C27   C     C_3   0.527428 0.529109 0.758379 -0.072154
C28   C     C_3   0.488769 0.538597 0.258732 -0.092744
C29   C     C_3   0.022120 0.032446 0.793745 -0.327703
C30   C     C_3   0.969480 0.025592 0.197411 -0.326712
C31   C     C_3   0.539718 0.491656 0.812345 -0.288848
C32   C     C_3   0.461018 0.511203 0.188302 -0.327791
C33   C     C_3   0.038264 0.996705 0.768811 0.311419
C34   C     C_3   0.963711 0.986770 0.233180 0.308177
C35   C     C_3   0.513738 0.462914 0.743887 0.287767
C36   C     C_3   0.471138 0.473353 0.239908 0.296687
C37   C     C_3   0.999793 0.999988 0.688515 -0.123584
C38   C     C_3   0.999799 0.000602 0.311022 -0.122566
C39   C     C_3   0.502069 0.499892 0.690822 -0.102432
C40   C     C_3   0.498072 0.500519 0.309315 -0.123588
H5    H     H_    0.040767 0.058893 0.830813 0.176416
H6    H     H_    0.944310 0.045833 0.153572 0.189635
H7    H     H_    0.571228 0.484711 0.862742 0.198039
H8    H     H_    0.429849 0.519539 0.138248 0.194935
H9    H     H_    0.790055 0.980780 0.199630 0.216507
H10   H     H_    0.209799 0.979780 0.799706 0.218241
H11   H     H_    0.290002 0.484688 0.197720 0.208361
H12   H     H_    0.709863 0.475236 0.797514 0.207290
C41   C     C_R   0.729005 0.988033 0.177527 0.281799
C42   C     C_R   0.270909 0.987541 0.822109 0.279438
C43   C     C_R   0.228968 0.490253 0.176320 0.285962
C44   C     C_R   0.770949 0.484923 0.820772 0.285111
C45   C     C_R   0.706538 0.998534 0.209260 -0.097410
C46   C     C_R   0.293459 0.998826 0.790745 -0.097295
C47   C     C_R   0.206525 0.498428 0.209005 -0.099477
C48   C     C_R   0.793468 0.498869 0.790750 -0.098144
C49   C     C_R   0.727439 0.008726 0.286320 0.200925
C50   C     C_R   0.272643 0.009930 0.714033 0.202256
C51   C     C_R   0.227444 0.506229 0.286927 0.199775
C52   C     C_R   0.772624 0.512693 0.715419 0.201918
C53   C     C_R   0.771397 0.008796 0.332420 -0.126857
C54   C     C_R   0.228687 0.010092 0.667902 -0.118028
C55   C     C_R   0.271400 0.506220 0.332978 -0.112247
C56   C     C_R   0.728669 0.512934 0.669374 -0.112895
C57   C     C_R   0.793476 0.998730 0.299550 0.019365
C58   C     C_R   0.206525 0.999205 0.700399 0.017811
C59   C     C_R   0.293462 0.498517 0.299211 0.023982
C60   C     C_R   0.706534 0.499368 0.700575 0.024021
C61   C     C_R   0.772405 0.988624 0.223390 -0.230969
C62   C     C_R   0.227513 0.988240 0.776234 -0.226446
C63   C     C_R   0.272370 0.490758 0.222188 -0.240544
C64   C     C_R   0.727552 0.485721 0.775041 -0.237169
C65   C     C_1   0.661948 0.999147 0.163235 0.148164
C66   C     C_1   0.338051 0.999307 0.836787 0.151381
C67   C     C_1   0.161938 0.499092 0.163101 0.148694
C68   C     C_1   0.838058 0.499316 0.836789 0.151512
C69   C     C_1   0.837965 0.999402 0.341725 0.106058
C70   C     C_1   0.162037 0.999800 0.658162 0.109376
C71   C     C_1   0.337953 0.499293 0.341433 0.102249
C72   C     C_1   0.662044 0.499873 0.658466 0.104532
C73   C     C_1   0.875202 0.999771 0.376949 -0.064050
C74   C     C_1   0.124799 0.000048 0.622900 -0.062635
C75   C     C_1   0.375194 0.499737 0.376717 -0.091056
C76   C     C_1   0.624805 0.500062 0.623248 -0.085133
C77   C     C_1   0.624669 0.999623 0.125221 -0.053752
C78   C     C_1   0.375332 0.999689 0.874794 -0.048990
C79   C     C_1   0.124662 0.499596 0.125178 -0.054025
C80   C     C_1   0.875337 0.499689 0.874798 -0.049432
O17   O     O_R   0.034440 0.939060 0.034360 -0.596083
O18   O     O_R   0.965560 0.939060 0.965640 -0.599389
O19   O     O_R   0.534440 0.439060 0.034360 -0.610658
O20   O     O_R   0.465560 0.439060 0.965640 -0.583891
C81   C     C_R   0.999938 0.919397 0.999776 0.964841
C82   C     C_R   0.499940 0.419402 0.999810 0.950177
O21   O     O_R   0.034440 0.000050 0.941370 -0.588667
O22   O     O_R   0.965560 0.000050 0.058630 -0.598633
O23   O     O_R   0.534440 0.500050 0.941370 -0.650057
O24   O     O_R   0.465560 0.500050 0.058630 -0.633448
O25   O     O_R   0.965570 0.000070 0.872530 -0.620682
O26   O     O_R   0.034430 0.000070 0.127470 -0.621599
O27   O     O_R   0.465570 0.500070 0.872530 -0.566594
O28   O     O_R   0.534430 0.500070 0.127470 -0.572720
C83   C     C_R   0.999815 0.999801 0.878098 0.935811
C84   C     C_R   0.000146 0.000256 0.121843 0.955801
C85   C     C_R   0.499920 0.499402 0.878224 0.984232
C86   C     C_R   0.500092 0.500705 0.121766 0.979252
Zn5   Zn    Zn3+2 0.045990 0.000050 0.045940 1.092093
Zn6   Zn    Zn3+2 0.954010 0.000050 0.954060 1.099536
Zn7   Zn    Zn3+2 0.545990 0.500050 0.045940 1.081928
Zn8   Zn    Zn3+2 0.454010 0.500050 0.954060 1.112205
O29   O     O_R   0.034450 0.061050 0.034440 -0.610510
O30   O     O_R   0.965550 0.061050 0.965560 -0.602619
O31   O     O_R   0.534450 0.561050 0.034440 -0.607889
O32   O     O_R   0.465550 0.561050 0.965560 -0.602134
C87   C     C_R   0.000042 0.080681 0.000038 0.890275
C88   C     C_R   0.500045 0.580676 0.000101 0.947486
O33   O     O_R   0.500030 0.939050 0.052570 -0.592448
O34   O     O_R   0.499970 0.939050 0.947430 -0.595915
O35   O     O_R   0.000030 0.439050 0.052570 -0.592184
O36   O     O_R   0.999970 0.439050 0.947430 -0.596082
C89   C     C_R   0.499932 0.919602 0.000023 0.873393
C90   C     C_R   0.999933 0.419606 0.000027 0.874544
O37   O     O_R   0.561000 0.000050 0.113470 -0.594332
O38   O     O_R   0.439000 0.000050 0.886530 -0.591398
O39   O     O_R   0.061000 0.500050 0.113470 -0.594758
O40   O     O_R   0.939000 0.500050 0.886530 -0.592673
O41   O     O_R   0.561000 0.999980 0.008430 -0.593526
O42   O     O_R   0.439000 0.999980 0.991570 -0.592036
O43   O     O_R   0.061000 0.499980 0.008430 -0.592932
O44   O     O_R   0.939000 0.499980 0.991570 -0.592642
C91   C     C_R   0.580478 0.000002 0.080577 0.868721
C92   C     C_R   0.419523 0.999992 0.919425 0.875149
C93   C     C_R   0.080476 0.500001 0.080571 0.868734
C94   C     C_R   0.919525 0.499990 0.919427 0.876967
Zn9   Zn    Zn3+2 0.500020 0.000060 0.070120 1.120077
Zn10  Zn    Zn3+2 0.499980 0.000060 0.929880 1.117207
Zn11  Zn    Zn3+2 0.000020 0.500060 0.070120 1.117348
Zn12  Zn    Zn3+2 0.999980 0.500060 0.929880 1.113265
O45   O     O_R   0.500000 0.061040 0.052440 -0.589797
O46   O     O_R   0.500000 0.061040 0.947560 -0.591194
O47   O     O_R   0.000000 0.561040 0.052440 -0.590003
O48   O     O_R   0.000000 0.561040 0.947560 -0.593441
C95   C     C_R   0.500076 0.080540 0.999993 0.872815
C96   C     C_R   0.000087 0.580536 0.000006 0.873585
C97   C     C_R   0.498478 0.228035 0.055363 0.197019
C98   C     C_R   0.505438 0.228304 0.948188 0.199220
C99   C     C_R   0.991314 0.727999 0.046277 0.198279
C100  C     C_R   0.012310 0.728296 0.957177 0.197641
C101  C     C_R   0.503077 0.206605 0.003049 -0.191978
C102  C     C_R   0.002953 0.706587 0.003360 -0.193614
C103  C     C_R   0.009919 0.772010 0.953777 0.202304
C104  C     C_R   0.988889 0.771696 0.042794 0.199580
C105  C     C_R   0.503042 0.272019 0.945461 0.192843
C106  C     C_R   0.496102 0.271747 0.052663 0.201779
C107  C     C_R   0.998252 0.793395 0.996653 -0.198361
C108  C     C_R   0.498366 0.293421 0.997692 -0.194061
C109  C     C_1   0.501935 0.162001 0.001748 0.179457
C110  C     C_1   0.001900 0.661988 0.001890 0.180126
C111  C     C_1   0.999062 0.837979 0.997921 0.180218
C112  C     C_1   0.499142 0.337996 0.998623 0.180725
C113  C     C_1   0.999664 0.875234 0.999002 -0.023903
C114  C     C_1   0.499691 0.375249 0.999354 -0.024795
C115  C     C_1   0.500949 0.124732 0.000723 -0.060646
C116  C     C_1   0.000950 0.624722 0.000759 -0.062402
C117  C     C_R   0.490847 0.772106 0.934394 -0.062246
C118  C     C_R   0.499849 0.771903 0.058016 -0.060324
C119  C     C_R   0.991173 0.272143 0.934672 -0.062841
C120  C     C_R   0.999373 0.271919 0.057617 -0.060869
C121  C     C_R   0.494652 0.793594 0.995621 0.034388
C122  C     C_R   0.994588 0.293617 0.995565 0.033399
C123  C     C_R   0.001406 0.228004 0.059237 -0.070758
C124  C     C_R   0.993220 0.228230 0.936501 -0.069902
C125  C     C_R   0.501888 0.727988 0.059624 -0.075848
C126  C     C_R   0.492908 0.728190 0.936220 -0.076919
C127  C     C_R   0.999074 0.206724 0.999357 0.011702
C128  C     C_R   0.499148 0.706700 0.999381 0.010059
C129  C     C_1   0.496822 0.838258 0.997417 0.093981
C130  C     C_1   0.996787 0.338274 0.997416 0.095006
C131  C     C_1   0.999812 0.162018 0.999968 -0.071879
C132  C     C_1   0.499852 0.662000 0.999976 -0.076709
C133  C     C_1   0.000078 0.124789 0.000149 -0.137909
C134  C     C_1   0.500092 0.624775 0.000174 -0.105376
C135  C     C_1   0.498515 0.875483 0.998834 -0.056503
C136  C     C_1   0.998500 0.375493 0.998839 -0.056252
C137  C     C_2   0.035170 0.923672 0.826577 0.542749
H13   H     H_    0.046436 0.901892 0.803217 0.103856
O49   O     O_2   0.038010 0.915058 0.884840 -0.532136
C138  C     C_2   0.986563 0.917524 0.195698 0.530671
H14   H     H_    0.981793 0.893305 0.225604 0.110447
O50   O     O_2   0.985943 0.908737 0.139663 -0.544797
C139  C     C_2   0.444621 0.436190 0.732753 0.557740
H15   H     H_    0.426688 0.420044 0.679262 0.100850
O51   O     O_2   0.440402 0.426633 0.783362 -0.524651
C140  C     C_2   0.520808 0.419688 0.230216 0.537871
H16   H     H_    0.526492 0.395772 0.270781 0.106163
O52   O     O_2   0.523616 0.411222 0.177668 -0.547130
C141  C     C_2   0.793134 0.021080 0.413147 0.528089
H17   H     H_    0.776737 0.038712 0.432054 0.130014
O53   O     O_2   0.829207 0.011308 0.459813 -0.551155
C142  C     C_2   0.207051 0.023304 0.587579 0.513323
H18   H     H_    0.223557 0.041481 0.569270 0.126397
O54   O     O_2   0.170939 0.013706 0.540571 -0.570276
C143  C     C_2   0.293152 0.515968 0.414765 0.506371
H19   H     H_    0.276783 0.532102 0.435312 0.125797
O55   O     O_2   0.329203 0.505709 0.460453 -0.574932
C144  C     C_2   0.707003 0.528986 0.590670 0.507723
H20   H     H_    0.723473 0.548878 0.574451 0.123125
O56   O     O_2   0.670909 0.519874 0.542643 -0.573632
N1    N     N_R   0.978407 0.794055 0.088203 0.251919
O57   O     O_R   0.949446 0.822324 0.058118 -0.310029
O58   O     O_R   0.997728 0.786124 0.159813 -0.294916
N2    N     N_R   0.020850 0.794689 0.909034 0.253360
O59   O     O_R   0.996265 0.823411 0.862415 -0.345395
O60   O     O_R   0.055497 0.786707 0.914837 -0.280798
N3    N     N_R   0.493075 0.294126 0.107599 0.254027
O61   O     O_R   0.465141 0.323013 0.086631 -0.308717
O62   O     O_R   0.518414 0.285791 0.178930 -0.282572
N4    N     N_R   0.507048 0.294677 0.891665 0.250323
O63   O     O_R   0.480454 0.323637 0.850282 -0.310473
O64   O     O_R   0.537482 0.286534 0.884132 -0.262092
N5    N     N_R   0.494512 0.205408 0.109215 0.249867
O65   O     O_R   0.464201 0.213673 0.117032 -0.275275
O66   O     O_R   0.521098 0.176428 0.150518 -0.320080
N6    N     N_R   0.508574 0.205947 0.893371 0.251443
O67   O     O_R   0.483462 0.214435 0.822049 -0.269357
O68   O     O_R   0.536446 0.176981 0.914464 -0.324137
N7    N     N_R   0.980329 0.705368 0.090989 0.249123
O69   O     O_R   0.945806 0.713592 0.085489 -0.282195
O70   O     O_R   0.004730 0.676435 0.137260 -0.325271
N8    N     N_R   0.022581 0.705952 0.911436 0.251288
O71   O     O_R   0.003584 0.714434 0.840075 -0.282003
O72   O     O_R   0.050845 0.676985 0.940827 -0.329559
C145  C     C_2   0.988268 0.203976 0.872480 0.403428
H21   H     H_    0.004697 0.174773 0.882999 0.075418
O73   O     O_2   0.964526 0.215334 0.807351 -0.525400
C146  C     C_2   0.004911 0.203512 0.122025 0.398588
H22   H     H_    0.021806 0.174289 0.139694 0.097820
O74   O     O_2   0.987547 0.214698 0.152380 -0.531483
C147  C     C_2   0.487583 0.703911 0.871914 0.412218
H23   H     H_    0.504026 0.674739 0.882197 0.100423
O75   O     O_2   0.463526 0.715210 0.806847 -0.528550
C148  C     C_2   0.505822 0.703502 0.122794 0.398262
H24   H     H_    0.522722 0.674277 0.140199 0.102229
O76   O     O_2   0.488806 0.714691 0.153775 -0.522696
C149  C     C_2   0.487443 0.795368 0.870695 0.513896
H25   H     H_    0.502610 0.783602 0.844321 0.097015
O77   O     O_2   0.467038 0.827295 0.846043 -0.522088
C150  C     C_2   0.505890 0.794956 0.123886 0.512608
H26   H     H_    0.527130 0.783073 0.180474 0.100207
O78   O     O_2   0.486652 0.826836 0.115624 -0.517589
C151  C     C_2   0.988202 0.295422 0.871370 0.516609
H27   H     H_    0.003694 0.283683 0.845577 0.097721
O79   O     O_2   0.967798 0.327331 0.846394 -0.521512
C152  C     C_2   0.004996 0.294965 0.123163 0.514707
H28   H     H_    0.025972 0.283067 0.179829 0.101039
O80   O     O_2   0.985700 0.326859 0.114531 -0.517313
C153  C     C_2   0.915943 0.005599 0.706650 0.543366
H29   H     H_    0.894733 0.979807 0.677531 0.073512
O81   O     O_2   0.903735 0.036691 0.721300 -0.518718
C154  C     C_2   0.078646 0.029424 0.286983 0.526941
H30   H     H_    0.106566 0.011959 0.326190 0.084486
O82   O     O_2   0.081218 0.061374 0.258798 -0.544804
C155  C     C_2   0.473545 0.578627 0.764355 0.399163
H31   H     H_    0.465886 0.602061 0.721925 0.101318
O83   O     O_2   0.470295 0.586804 0.816504 -0.575353
C156  C     C_2   0.559313 0.560307 0.271418 0.472966
H32   H     H_    0.578439 0.574877 0.326250 0.113370
O84   O     O_2   0.563778 0.570261 0.221262 -0.568511
C157  C     C_2   0.964154 0.075255 0.671042 0.530640
H33   H     H_    0.978967 0.104657 0.697267 0.064276
O85   O     O_2   0.932383 0.074893 0.607753 -0.510959
C158  C     C_2   0.013302 0.083084 0.304596 0.520186
H34   H     H_    0.989861 0.106593 0.271902 0.071359
O86   O     O_2   0.044978 0.092385 0.364751 -0.515866
C159  C     C_2   0.557992 0.562295 0.770724 0.431169
H35   H     H_    0.571301 0.582194 0.819824 0.071789
O87   O     O_2   0.568367 0.566941 0.726756 -0.532162
C160  C     C_2   0.476178 0.581065 0.267696 0.468521
H36   H     H_    0.444003 0.590873 0.231070 0.079677
O88   O     O_2   0.501716 0.604320 0.317192 -0.529967
N9    N     N_R   0.081337 0.993327 0.791335 0.204528
O89   O     O_R   0.111139 0.991167 0.862377 -0.327359
O90   O     O_R   0.090334 0.992648 0.741170 -0.419909
N10   N     N_R   0.923133 0.971699 0.213109 0.206403
O91   O     O_R   0.895313 0.960941 0.143995 -0.318557
O92   O     O_R   0.914063 0.969814 0.263137 -0.405241
N11   N     N_R   0.529137 0.423193 0.736116 0.227600
O93   O     O_R   0.509207 0.388794 0.727955 -0.316749
O94   O     O_R   0.563798 0.421940 0.739660 -0.335566
N12   N     N_R   0.439638 0.443132 0.227402 0.211045
O95   O     O_R   0.420797 0.420853 0.166338 -0.308871
O96   O     O_R   0.427444 0.440911 0.272978 -0.368364
N13   N     N_R   0.708531 0.976863 0.099323 0.229862
O97   O     O_R   0.673835 0.955855 0.064847 -0.358527
O98   O     O_R   0.726874 0.983672 0.064472 -0.314968
N14   N     N_R   0.291292 0.975447 0.899941 0.229723
O99   O     O_R   0.325865 0.954400 0.933786 -0.341816
O100  O     O_R   0.272965 0.981451 0.934955 -0.312396
N15   N     N_R   0.208469 0.481541 0.097156 0.230244
O101  O     O_R   0.173774 0.460556 0.060721 -0.355856
O102  O     O_R   0.226786 0.490593 0.063003 -0.325823
N16   N     N_R   0.791366 0.470025 0.897106 0.229955
O103  O     O_R   0.825930 0.449078 0.928531 -0.341280
O104  O     O_R   0.773079 0.473369 0.932729 -0.327185
N17   N     N_R   0.703873 0.018124 0.317894 0.196285
O105  O     O_R   0.676944 0.048335 0.290472 -0.339709
O106  O     O_R   0.708238 0.995485 0.372399 -0.350496
N18   N     N_R   0.296287 0.020150 0.682808 0.197159
O107  O     O_R   0.323402 0.050303 0.711220 -0.348561
O108  O     O_R   0.291806 0.998305 0.627609 -0.344682
N19   N     N_R   0.203899 0.513265 0.319344 0.195770
O109  O     O_R   0.176981 0.543430 0.294852 -0.346171
O110  O     O_R   0.208273 0.488548 0.371594 -0.349291
N20   N     N_R   0.796239 0.525617 0.685414 0.196788
O111  O     O_R   0.823347 0.555634 0.717147 -0.354573
O112  O     O_R   0.791735 0.506350 0.627886 -0.343997

loop_
_geom_bond_atom_site_label_1
_geom_bond_atom_site_label_2
_geom_bond_distance
_ccdc_geom_bond_type
C56   C144  1.492678 S    
Zn7   O31   1.994797 S    
C31   C35   1.538931 S    
O44   Zn11  1.993126 S    
C14   C18   1.533614 S    
C41   C61   1.394418 A    
C109  C115  1.197394 T    
C43   C63   1.394448 A    
O29   C87   1.273336 A    
C131  C133  1.195809 T    
C100  N8    1.438748 S    
C80   C94   1.418877 S    
C96   C116  1.419400 S    
C159  O87   1.219548 D    
C117  C149  1.492315 S    
C154  H30   1.084436 S    
O44   C94   1.285950 A    
C55   C59   1.414416 A    
H11   C63   1.084622 S    
C20   C86   1.434606 S    
C9    C13   1.548922 S    
C121  C129  1.436120 S    
C10   H2    1.110484 S    
O38   Zn10  1.995895 S    
C125  C148  1.494339 S    
C119  C124  1.412139 A    
N8    O72   1.301272 A    
C104  C107  1.408362 A    
O42   C92   1.285978 A    
C100  C102  1.409121 A    
C150  H26   1.084869 S    
N4    O64   1.301297 A    
C155  O83   1.219721 D    
C25   C157  1.497637 S    
N16   O103  1.301252 A    
O41   C91   1.286032 A    
O4    C4    1.273648 A    
O37   C91   1.285811 A    
C100  C103  1.406416 A    
O33   C89   1.285893 A    
N5    O65   1.301309 A    
C98   N6    1.438721 S    
C106  N3    1.439035 S    
N6    O68   1.301302 A    
C160  O88   1.220063 D    
C82   C114  1.418172 S    
O31   C88   1.273186 A    
C52   N20   1.437817 S    
N15   O101  1.301247 A    
C120  C123  1.412221 A    
C147  H23   1.085222 S    
C54   C58   1.414401 A    
C118  C150  1.492312 S    
N19   O110  1.301158 A    
C36   N12   1.458596 S    
O16   Zn4   2.022292 S    
N12   O95   1.300285 A    
O13   C5    1.265454 A    
O7    Zn4   1.993410 S    
C9    C21   1.547210 S    
O15   C7    1.265011 A    
C139  H15   1.084443 S    
C46   C50   1.412245 A    
O4    Zn2   1.994041 S    
C143  H19   1.084570 S    
O19   C82   1.273881 A    
O9    C5    1.263171 A    
C144  O56   1.220696 D    
C14   C138  1.497720 S    
C158  H34   1.084437 S    
C149  O77   1.221031 D    
O8    Zn4   1.991784 S    
C16   C20   1.534144 S    
H9    C61   1.084662 S    
C47   C67   1.432020 S    
C147  O75   1.220964 D    
C57   C69   1.429748 S    
O3    Zn2   1.992422 S    
C41   N13   1.442204 S    
C52   C56   1.411935 A    
C59   C71   1.429848 S    
C33   C37   1.525414 S    
C35   C39   1.525590 S    
C36   C40   1.526054 S    
C119  C122  1.415390 A    
C44   C64   1.394433 A    
C25   C29   1.548355 S    
O20   C82   1.272989 A    
C27   C31   1.545872 S    
C124  C145  1.494197 S    
O3    C3    1.273709 A    
C60   C72   1.429846 S    
N19   O109  1.301139 A    
H12   C64   1.084620 S    
O27   C85   1.264783 A    
C24   C28   1.535661 S    
C138  H14   1.084392 S    
C14   C34   1.528120 S    
C17   C21   1.536520 S    
C126  C128  1.411534 A    
C43   C47   1.410785 A    
O35   Zn11  1.996409 S    
Zn11  O47   1.993556 S    
C108  C112  1.431898 S    
C118  C125  1.412217 A    
N14   O100  1.301621 A    
C99   N7    1.438796 S    
O25   Zn6   2.027577 S    
C22   C154  1.497601 S    
C17   C83   1.435785 S    
C102  C110  1.432831 S    
C44   N16   1.442205 S    
C141  H17   1.084560 S    
C12   C16   1.548726 S    
C126  C147  1.494305 S    
Zn6   O30   1.993170 S    
C1    C73   1.418362 S    
C60   C64   1.394867 A    
N2    O59   1.301273 A    
C145  H21   1.085198 S    
O24   Zn8   2.022470 S    
O5    Zn3   1.993410 S    
C140  O52   1.219717 D    
O33   Zn9   1.996409 S    
C112  C114  1.196623 T    
N9    O90   1.299841 A    
C43   N15   1.442203 S    
O21   Zn5   2.022471 S    
C23   C155  1.499132 S    
C45   C65   1.432156 S    
C15   C19   1.535983 S    
N1    O57   1.301205 A    
C128  C132  1.435966 S    
O42   Zn9   1.993126 S    
O48   C96   1.284980 A    
N17   O106  1.301165 A    
C124  C127  1.411603 A    
C42   N14   1.442216 S    
C119  C151  1.492339 S    
N10   O92   1.299993 A    
C123  C127  1.411597 A    
C9    C37   1.542714 S    
C10   C14   1.549234 S    
O13   Zn3   2.024576 S    
C11   C39   1.543203 S    
C19   C85   1.435683 S    
N18   O107  1.301138 A    
C12   C40   1.543276 S    
C32   H8    1.110476 S    
N15   O102  1.301608 A    
C120  C122  1.415455 A    
O5    C1    1.273374 A    
C157  H33   1.084420 S    
C65   C77   1.197210 T    
O25   C83   1.261845 A    
C104  N1    1.438436 S    
O8    C4    1.273314 A    
C67   C79   1.197121 T    
C137  H13   1.084391 S    
N3    O62   1.301251 A    
C110  C116  1.197276 T    
C50   N18   1.437808 S    
O15   Zn4   2.024576 S    
C17   C29   1.543065 S    
C148  O76   1.220980 D    
O17   C81   1.274014 A    
C19   C31   1.544924 S    
C143  O55   1.220696 D    
C103  N2    1.438731 S    
N20   O112  1.301159 A    
N11   O94   1.300426 A    
C2    C74   1.418436 S    
C89   C135  1.417703 S    
C49   N17   1.437797 S    
O14   C6    1.266899 A    
C10   C22   1.547808 S    
C44   C48   1.410770 A    
C146  H22   1.085220 S    
C88   C134  1.416421 S    
C71   C75   1.196800 T    
C30   H6    1.110383 S    
N14   O99   1.301244 A    
C18   C84   1.435084 S    
C153  O81   1.220109 D    
C99   C104  1.405925 A    
O10   C6    1.262134 A    
C154  O82   1.220134 D    
C19   C23   1.533535 S    
C158  O86   1.220125 D    
Zn9   O45   1.993556 S    
C57   C61   1.394848 A    
O18   C81   1.273030 A    
C24   C156  1.499680 S    
C59   C63   1.394863 A    
C117  C121  1.415546 A    
C150  O78   1.221037 D    
C97   C101  1.409065 A    
C152  H28   1.084864 S    
N16   O104  1.301608 A    
C15   C139  1.499163 S    
C49   C53   1.412040 A    
O21   C83   1.266923 A    
O27   Zn8   2.027577 S    
C34   C38   1.525810 S    
O35   C90   1.285780 A    
C51   C55   1.411930 A    
C66   C78   1.197169 T    
C42   C62   1.394433 A    
N3    O61   1.301349 A    
C48   C52   1.412185 A    
C142  H18   1.084570 S    
C27   C159  1.499240 S    
N7    O69   1.301266 A    
C26   C30   1.547329 S    
Zn10  O46   1.995873 S    
H10   C62   1.084669 S    
O20   Zn8   1.994536 S    
O28   C86   1.264190 A    
N12   O96   1.299955 A    
C122  C130  1.435922 S    
C15   C35   1.529585 S    
C156  H32   1.084445 S    
C18   C22   1.534559 S    
N13   O98   1.301620 A    
C41   C45   1.410804 A    
C87   C133  1.416715 S    
C118  C121  1.415515 A    
Zn12  O48   1.995873 S    
C5    C37   1.435023 S    
O26   C84   1.262738 A    
C7    C39   1.435956 S    
C101  C109  1.433028 S    
C8    C40   1.435928 S    
C11   C23   1.548399 S    
C149  H25   1.084866 S    
C127  C131  1.436152 S    
C12   C24   1.550189 S    
O34   C89   1.285892 A    
O30   C87   1.273216 A    
C58   C62   1.394858 A    
O12   Zn2   2.025417 S    
O40   Zn12  1.995895 S    
C99   C102  1.408996 A    
C25   C37   1.534631 S    
C98   C105  1.406364 A    
C28   C160  1.498315 S    
O1    C1    1.273525 A    
C90   C136  1.417484 S    
C28   C40   1.535294 S    
C16   C140  1.498346 S    
C53   C57   1.414421 A    
C23   C27   1.537742 S    
O19   Zn7   1.992917 S    
C50   C54   1.411987 A    
C32   C36   1.537332 S    
C125  C128  1.411550 A    
C159  H35   1.084465 S    
N8    O71   1.301280 A    
C20   C32   1.543838 S    
C155  H31   1.084393 S    
C45   C49   1.412279 A    
N4    O63   1.301368 A    
C129  C135  1.196710 T    
C27   C39   1.534054 S    
O36   C90   1.285892 A    
C138  O50   1.219564 D    
C68   C80   1.197109 T    
C55   C143  1.492698 S    
N5    O66   1.301277 A    
C11   C15   1.550242 S    
O39   Zn11  1.995893 S    
C72   C76   1.196796 T    
N6    O67   1.301272 A    
C4    C76   1.418464 S    
C29   C33   1.540204 S    
O40   C94   1.285790 A    
O46   C95   1.284998 A    
O23   C85   1.263889 A    
O6    C2    1.273267 A    
C106  C108  1.408687 A    
O22   C84   1.265609 A    
O43   Zn12  1.993128 S    
C13   C17   1.534048 S    
C111  C113  1.196795 T    
C79   C93   1.418895 S    
C81   C113  1.418536 S    
C18   C30   1.542861 S    
C47   C51   1.412163 A    
N2    O60   1.301239 A    
O2    Zn1   1.994041 S    
O10   Zn1   2.025417 S    
O43   C93   1.285926 A    
C144  H20   1.084572 S    
C77   C91   1.419045 S    
C78   C92   1.418980 S    
C141  O53   1.220728 D    
N9    O89   1.300205 A    
C42   C46   1.410811 A    
C9    H1    1.110493 S    
C51   N19   1.437805 S    
O38   C92   1.285815 A    
C97   N5    1.438693 S    
O39   C93   1.285843 A    
C120  C152  1.492317 S    
C98   C101  1.409051 A    
C117  C126  1.412228 A    
C20   C24   1.534681 S    
N11   O93   1.300160 A    
N17   O105  1.301141 A    
C123  C146  1.494245 S    
O37   Zn9   1.995893 S    
O7    C3    1.273261 A    
C151  O79   1.221035 D    
N18   O108  1.301165 A    
Zn5   O29   1.994797 S    
C139  O51   1.219648 D    
N7    O70   1.301270 A    
C34   N10   1.458067 S    
C13   C137  1.498263 S    
C58   C70   1.429743 S    
C56   C60   1.414392 A    
O28   Zn7   2.027585 S    
C46   C66   1.432093 S    
C21   C25   1.535251 S    
O11   C7    1.264699 A    
C105  N4    1.439024 S    
O12   C8    1.263282 A    
C130  C136  1.196581 T    
C48   C68   1.431998 S    
O1    Zn1   1.992422 S    
O9    Zn1   2.023139 S    
C54   C142  1.492801 S    
C107  C111  1.432209 S    
C69   C73   1.196720 T    
C21   C153  1.497944 S    
O16   C8    1.266345 A    
C146  O74   1.220994 D    
O11   Zn2   2.023139 S    
C103  C107  1.408582 A    
C153  H29   1.084420 S    
O26   Zn5   2.027585 S    
C145  O73   1.220983 D    
O45   C95   1.284706 A    
C6    C38   1.435702 S    
O6    Zn3   1.991784 S    
C105  C108  1.408779 A    
C95   C115  1.419608 S    
C33   N9    1.457709 S    
N1    O58   1.301243 A    
O32   C88   1.273218 A    
C151  H27   1.084872 S    
C132  C134  1.195647 T    
O47   C96   1.284612 A    
C3    C75   1.418470 S    
C26   C38   1.536567 S    
C152  O80   1.221039 D    
O2    C2    1.273624 A    
C97   C106  1.406210 A    
C29   H5    1.110369 S    
N10   O91   1.300220 A    
C30   C34   1.540275 S    
C160  H36   1.084428 S    
C13   C33   1.528410 S    
O17   Zn5   1.992917 S    
O36   Zn12  1.994100 S    
O22   Zn6   2.022470 S    
O18   Zn6   1.994536 S    
O14   Zn3   2.022292 S    
O34   Zn10  1.994100 S    
C16   C36   1.529461 S    
C142  O54   1.220705 D    
Zn8   O32   1.993170 S    
C31   H7    1.110474 S    
C22   C26   1.535510 S    
O41   Zn10  1.993128 S    
C10   C38   1.542965 S    
C157  O85   1.220166 D    
C35   N11   1.458427 S    
C140  H16   1.084387 S    
C53   C141  1.492886 S    
C137  O49   1.219724 D    
C11   H3    1.110625 S    
C70   C74   1.196721 T    
C156  O84   1.219571 D    
C12   H4    1.110576 S    
C26   C158  1.497922 S    
N13   O97   1.301240 A    
C148  H24   1.085274 S    
N20   O111  1.301135 A    
O23   Zn7   2.022471 S    
O24   C86   1.264012 A    
C28   C32   1.547698 S    
