data_mof_unit_56344.cif
_audit_creation_date              2012-12-10T17:48:55-0500
_audit_creation_method            fapswitch 2.2
_symmetry_space_group_name_H-M    P1
_symmetry_Int_Tables_number       1
_space_group_crystal_system       triclinic
_cell_length_a                    10.75255
_cell_length_b                    14.847006
_cell_length_c                    14.921592
_cell_angle_alpha                 63.676023
_cell_angle_beta                  106.543888
_cell_angle_gamma                 102.41026
_cell_volume                      2035.79554321

loop_
_atom_site_label
_atom_site_type_symbol
_atom_type_description
_atom_site_fract_x
_atom_site_fract_y
_atom_site_fract_z
_atom_type_partial_charge
C1    C     C_R   0.478292 0.119818 0.312101 0.869045
C2    C     C_R   0.527850 0.356009 0.077819 0.058566
C3    C     C_R   0.482903 0.318985 0.999935 0.104334
C4    C     C_R   0.260358 0.000023 0.499787 0.805707
C5    C     C_R   0.574295 0.460030 0.052631 0.031988
C6    C     C_R   0.547001 0.528980 0.948041 0.070524
C7    C     C_R   0.506446 0.489826 0.872256 -0.189320
C8    C     C_R   0.478858 0.386780 0.898112 -0.164486
C9    C     C_R   0.646605 0.498613 0.126789 -0.035029
C10   C     C_R   0.661726 0.602042 0.101134 -0.229516
C11   C     C_R   0.615155 0.669573 0.001445 0.096025
C12   C     C_3   0.877427 0.999975 0.497914 0.041735
C13   C     C_R   0.562139 0.634537 0.923081 0.092395
C14   C     C_R   0.622518 0.772317 0.979405 -0.188210
C15   C     C_R   0.582912 0.842648 0.879370 0.174282
C16   C     C_R   0.520143 0.880028 0.688355 0.821880
C17   C     C_R   0.522566 0.706278 0.822782 -0.240362
C18   C     C_R   0.757500 0.305367 0.627111 -0.304925
C19   C     C_R   0.703141 0.212319 0.624212 0.152581
C20   C     C_R   0.508684 0.284317 0.512926 0.275616
C21   C     C_R   0.550792 0.373613 0.531414 -0.053817
C22   C     C_R   0.684497 0.388619 0.574767 0.075003
C23   C     C_3   0.970533 0.017351 0.590876 -0.415855
C24   C     C_R   0.470131 0.452613 0.500004 0.086955
C25   C     C_R   0.529081 0.550473 0.492278 0.072392
C26   C     C_R   0.665862 0.567695 0.509674 -0.229501
C27   C     C_R   0.742866 0.487423 0.559336 0.008400
C28   C     C_R   0.739877 0.999254 0.500789 0.809635
C29   C     C_R   0.332845 0.436274 0.481343 -0.173453
C30   C     C_R   0.257086 0.517168 0.433356 -0.152709
C31   C     C_R   0.314943 0.614480 0.420963 0.129350
C32   C     C_R   0.449056 0.629116 0.462779 -0.039784
C33   C     C_R   0.238683 0.695385 0.375823 -0.287650
C34   C     C_3   0.911501 0.085864 0.397107 -0.015341
C35   C     C_R   0.292964 0.787287 0.381559 0.058002
C36   C     C_R   0.492203 0.716979 0.483293 0.270385
C37   C     C_3   0.041179 0.900625 0.496685 -0.366254
C38   C     C_3   0.901738 0.896926 0.505735 -0.344712
C39   C     C_3   0.112684 0.010707 0.594386 -0.422627
C40   C     C_3   0.059715 0.090946 0.400530 0.002096
C41   C     C_3   0.121524 0.000827 0.497190 0.047764
C42   C     C_1   0.721709 0.437260 0.225329 0.248339
C43   C     C_1   0.882562 0.509989 0.586901 0.246704
C44   C     C_1   0.777365 0.127059 0.684772 0.342318
C45   C     C_R   0.474377 0.187356 0.203725 -0.078104
C46   C     C_R   0.540284 0.810308 0.798474 -0.117599
C47   C     C_R   0.439000 0.215437 0.025761 0.169019
C48   C     C_R   0.437890 0.150216 0.127611 -0.149108
C49   C     C_R   0.513336 0.290060 0.177236 -0.197291
Cu1   Cu    Cu3+1 0.465900 0.918260 0.475680 0.985708
Cu2   Cu    Cu3+1 0.534100 0.081740 0.524320 1.002102
H1    H     H_    0.087396 0.834540 0.561625 0.181020
H2    H     H_    0.038184 0.893917 0.424696 0.206858
H3    H     H_    0.497400 0.536742 0.791719 0.168297
H4    H     H_    0.658053 0.798034 0.040666 0.166803
H5    H     H_    0.233169 0.849073 0.348438 0.151064
H6    H     H_    0.152113 0.502571 0.411624 0.157723
H7    H     H_    0.856823 0.312530 0.669271 0.164207
H8    H     H_    0.832106 0.875396 0.445617 0.215167
H9    H     H_    0.713793 0.643972 0.487050 0.164229
H10   H     H_    0.282695 0.360917 0.502523 0.166378
H11   H     H_    0.136758 0.686578 0.339573 0.153447
H12   H     H_    0.894175 0.159139 0.392769 0.134641
H13   H     H_    0.888388 0.836978 0.581345 0.200350
H14   H     H_    0.150443 0.944372 0.664114 0.191776
H15   H     H_    0.943505 0.959867 0.663452 0.206556
H16   H     H_    0.107320 0.161597 0.409249 0.148860
H17   H     H_    0.173537 0.079439 0.600497 0.204948
H18   H     H_    0.962480 0.093314 0.585070 0.195432
H19   H     H_    0.448510 0.361781 0.836531 0.181767
H20   H     H_    0.475558 0.682580 0.761791 0.182451
H21   H     H_    0.712204 0.630331 0.159221 0.150764
H22   H     H_    0.406134 0.070783 0.146781 0.186874
H23   H     H_    0.526954 0.318632 0.234543 0.189844
I1    I     I_    0.579600 0.991301 0.864188 -0.281488
I2    I     I_    0.366867 0.151209 0.916313 -0.318351
I3    I     I_    0.646351 0.704924 0.615589 -0.434251
I4    I     I_    0.354426 0.294785 0.381096 -0.378049
I5    I     I_    0.108211 0.108940 0.260845 -0.304472
I6    I     I_    0.776267 0.073420 0.262445 -0.310271
N1    N     N_R   0.585360 0.204570 0.560800 -0.207390
N2    N     N_R   0.414550 0.795430 0.439160 -0.189443
N3    N     N_1   0.782050 0.388469 0.304130 -0.281093
N4    N     N_1   0.994346 0.528193 0.608805 -0.277886
N5    N     N_1   0.837428 0.058750 0.734928 -0.288755
O1    O     O_R   0.455060 0.022100 0.338110 -0.571340
O2    O     O_R   0.512640 0.160150 0.379180 -0.556633
O3    O     O_R   0.288900 0.930980 0.479450 -0.593457
O4    O     O_R   0.346480 0.069030 0.520520 -0.564275
O5    O     O_R   0.487360 0.839850 0.620820 -0.562193
O6    O     O_R   0.544940 0.977900 0.661890 -0.555327
O7    O     O_R   0.653520 0.930970 0.479480 -0.551215
O8    O     O_R   0.711100 0.069020 0.520550 -0.596762

loop_
_geom_bond_atom_site_label_1
_geom_bond_atom_site_label_2
_ccdc_geom_bond_type
C1    O2    A    
C15   I1    S    
C16   O5    A    
C39   H17   S    
C23   H18   S    
C7    C8    A    
C39   C41   S    
C12   C23   S    
C26   C27   A    
C29   C30   A    
C12   C28   S    
C34   C40   S    
C32   C36   A    
C23   H15   S    
C47   I2    S    
C36   I3    S    
C5    C6    A    
C11   C14   A    
C4    C41   S    
C30   H6    S    
C18   C19   A    
C24   C29   A    
C34   I6    S    
C18   H7    S    
C47   C48   A    
C36   N2    A    
C33   H11   S    
C40   H16   S    
C31   C33   A    
C9    C10   A    
Cu2   N1    S    
Cu1   O3    S    
Cu2   O6    S    
C25   C32   A    
C14   H4    S    
C49   H23   S    
C20   N1    A    
C12   C38   S    
C43   N4    T    
C39   H14   S    
C35   N2    A    
Cu1   O5    S    
C38   H13   S    
C29   H10   S    
C17   C46   A    
C3    C8    A    
Cu2   O2    S    
C37   H1    S    
C25   C26   A    
C28   O8    A    
C5    C9    A    
C37   C38   S    
C2    C49   A    
C31   C32   A    
C45   C49   A    
Cu1   Cu2   S    
C9    C42   S    
C40   I5    S    
C28   O7    A    
C24   C25   A    
Cu2   O8    S    
Cu1   O7    S    
C40   C41   S    
C17   H20   S    
C22   C27   A    
C16   C46   S    
C2    C5    A    
C12   C34   S    
C44   N5    T    
C19   C44   S    
Cu1   N2    S    
C4    O4    A    
C45   C48   A    
C1    O1    A    
C35   H5    S    
C18   C22   A    
C48   H22   S    
C42   N3    T    
C6    C7    A    
C4    O3    A    
C20   I4    S    
C8    H19   S    
C15   C46   A    
C13   C17   A    
C2    C3    A    
C37   H2    S    
C19   N1    A    
Cu2   O4    S    
C6    C13   A    
C11   C13   A    
C1    C45   S    
C30   C31   A    
C23   C39   S    
C3    C47   A    
C34   H12   S    
C33   C35   A    
C37   C41   S    
C10   C11   A    
Cu1   O1    S    
C38   H8    S    
C27   C43   S    
C20   C21   A    
C16   O6    A    
C21   C24   A    
C14   C15   A    
C7    H3    S    
C21   C22   A    
C26   H9    S    
C10   H21   S    
