data_mof_unit_8951.cif
_audit_creation_date              2012-12-10T19:00:14-0500
_audit_creation_method            fapswitch 2.2
_symmetry_space_group_name_H-M    P1
_symmetry_Int_Tables_number       1
_space_group_crystal_system       triclinic
_cell_length_a                    9.591158
_cell_length_b                    10.865445
_cell_length_c                    13.409644
_cell_angle_alpha                 91.790502
_cell_angle_beta                  73.595399
_cell_angle_gamma                 91.07103
_cell_volume                      1339.83470183

loop_
_atom_site_label
_atom_site_type_symbol
_atom_type_description
_atom_site_fract_x
_atom_site_fract_y
_atom_site_fract_z
_atom_type_partial_charge
C1    C     C_R   0.499757 0.737367 0.503763 0.801617
C2    C     C_R   0.445439 0.450623 0.971610 0.051008
C3    C     C_R   0.490509 0.434235 0.862579 -0.006904
C4    C     C_R   0.551011 0.478810 0.024732 -0.072612
C5    C     C_R   0.700489 0.473177 0.969496 -0.111270
C6    C     C_R   0.742211 0.420037 0.868433 0.281274
C7    C     C_R   0.636039 0.398994 0.814610 0.313285
C8    C     C_R   0.512024 0.515082 0.130707 0.407460
C9    C     C_R   0.764933 0.516801 0.129101 -0.277783
C10   C     C_R   0.384543 0.445559 0.807446 -0.091520
C11   C     C_R   0.368517 0.932717 0.524503 0.114037
C12   C     C_R   0.424203 0.482001 0.697537 0.841529
C13   C     C_R   0.496642 0.870280 0.516771 -0.139892
C14   C     C_R   0.619854 0.938379 0.523300 -0.196940
C15   C     C_R   0.618609 0.066959 0.521932 -0.174845
C16   C     C_R   0.494662 0.128734 0.513119 -0.090527
C17   C     C_R   0.367325 0.059712 0.522011 -0.015642
C18   C     C_3   0.263289 0.053866 0.456655 0.141898
C19   C     C_3   0.263987 0.914535 0.461518 0.142891
C20   C     C_R   0.958831 0.457821 0.414917 0.179789
C21   C     C_R   0.894432 0.553755 0.578990 -0.080796
C22   C     C_R   0.042116 0.555820 0.579099 0.488746
C23   C     C_R   0.498474 0.262105 0.501911 0.845823
C24   C     C_R   0.106077 0.457206 0.415080 0.175277
C25   C     C_3   0.122393 0.329155 0.371403 0.205873
C26   C     C_3   0.966079 0.331952 0.367332 -0.546550
C27   C     C_R   0.576587 0.506809 0.300183 0.842767
C28   C     C_R   0.804801 0.511258 0.020819 0.471021
C29   C     C_R   0.618067 0.512178 0.185667 -0.198897
C30   C     C_R   0.238019 0.425961 0.860632 -0.130227
C31   C     C_R   0.197097 0.408546 0.967335 -0.090698
C32   C     C_R   0.297512 0.428853 0.023254 -0.099957
Cu1   Cu    Cu3+1 0.359330 0.500020 0.500010 0.992318
Cu2   Cu    Cu3+1 0.640670 0.499980 0.499990 0.963303
H1    H     H_    0.717016 0.116929 0.522635 0.166332
H2    H     H_    0.155826 0.093612 0.497231 0.144939
H3    H     H_    0.309726 0.863807 0.386089 0.133388
H4    H     H_    0.813705 0.596285 0.643422 0.173462
H5    H     H_    0.954039 0.332915 0.287265 0.209478
H6    H     H_    0.155918 0.422649 0.819500 0.228081
H7    H     H_    0.258573 0.420801 0.106030 0.196788
H8    H     H_    0.086195 0.384397 0.007986 0.189249
H9    H     H_    0.719167 0.892863 0.523783 0.173369
N1    N     N_R   0.852320 0.499070 0.499340 -0.225739
N2    N     N_R   0.148230 0.499110 0.499340 -0.274864
O1    O     O_R   0.381190 0.680360 0.500000 -0.587119
O2    O     O_R   0.618780 0.680320 0.499990 -0.583702
O3    O     O_R   0.323230 0.500000 0.650990 -0.587880
O4    O     O_R   0.560820 0.499960 0.650980 -0.555643
O5    O     O_R   0.381220 0.319680 0.500010 -0.570387
O6    O     O_R   0.618810 0.319640 0.500000 -0.575377
O7    O     O_R   0.439180 0.500040 0.349020 -0.555786
O8    O     O_R   0.676770 0.500000 0.349010 -0.582405
H10   H     H_    0.848357 0.531547 0.168530 0.190107
O9    O     O_3   0.323923 0.096674 0.355310 -0.737811
H11   H     H_    0.421022 0.059031 0.325710 0.329683
O10   O     O_3   0.131280 0.866861 0.521803 -0.718001
H12   H     H_    0.068601 0.857699 0.474439 0.323197
O11   O     O_3   0.073354 0.615282 0.662125 -0.706911
H13   H     H_    0.167237 0.658053 0.635447 0.387071
O12   O     O_3   0.222917 0.322108 0.273099 -0.728178
H14   H     H_    0.211180 0.238544 0.244418 0.363552
H15   H     H_    0.142868 0.265267 0.427346 0.162660
O13   O     O_3   0.883367 0.380052 0.828476 -0.743935
H16   H     H_    0.881607 0.298690 0.793474 0.329736
H17   H     H_    0.895300 0.264468 0.419412 0.183803
O14   O     O_3   0.942700 0.550123 0.968361 -0.718549
H18   H     H_    0.941807 0.577495 0.898723 0.376771
O15   O     O_3   0.386279 0.581462 0.170075 -0.723988
H19   H     H_    0.322841 0.536689 0.228798 0.367586
O16   O     O_3   0.666598 0.329965 0.722773 -0.716665
H20   H     H_    0.770003 0.341665 0.684024 0.328828

loop_
_geom_bond_atom_site_label_1
_geom_bond_atom_site_label_2
_ccdc_geom_bond_type
C2    C4    A    
C32   H7    S    
C27   O8    A    
C6    C7    A    
C9    H10   S    
C31   H8    S    
C27   C29   S    
C5    C28   A    
Cu1   N2    S    
C4    C8    A    
C10   C30   A    
C23   O6    A    
C31   C32   A    
C9    C29   A    
C12   O3    A    
O13   H16   S    
C22   N2    A    
O9    H11   S    
C17   C18   S    
Cu2   O6    S    
C30   H6    S    
O11   H13   S    
C3    C10   A    
C25   O12   S    
C21   C22   A    
C19   O10   S    
Cu1   O7    S    
Cu1   O1    S    
C11   C13   A    
C11   C19   S    
O10   H12   S    
C30   C31   A    
C20   C26   S    
C18   O9    S    
Cu1   O5    S    
C5    C6    A    
C8    C29   A    
C10   C12   S    
C15   H1    S    
C20   N1    A    
Cu1   Cu2   S    
C12   O4    A    
C16   C23   S    
C2    C3    A    
O15   H19   S    
C7    O16   S    
O12   H14   S    
C26   H5    S    
C1    O1    A    
C1    C13   S    
C24   N2    A    
O14   H18   S    
C21   N1    A    
C16   C17   A    
C20   C24   A    
O16   H20   S    
C28   O14   S    
Cu2   N1    S    
C24   C25   S    
C27   O7    A    
Cu2   O8    S    
C2    C32   A    
C18   C19   S    
C25   H15   S    
C6    O13   S    
C22   O11   S    
Cu1   O3    S    
C8    O15   S    
C14   C15   A    
C11   C17   A    
C23   O5    A    
Cu2   O2    S    
C19   H3    S    
C3    C7    A    
C25   C26   S    
C13   C14   A    
C4    C5    A    
C18   H2    S    
C1    O2    A    
C21   H4    S    
C15   C16   A    
C9    C28   A    
C14   H9    S    
Cu2   O4    S    
C26   H17   S    
