data_mof_unit_59887.cif
_audit_creation_date              2012-12-10T17:17:29-0500
_audit_creation_method            fapswitch 2.2
_symmetry_space_group_name_H-M    P1
_symmetry_Int_Tables_number       1
_space_group_crystal_system       triclinic
_cell_length_a                    10.222998
_cell_length_b                    10.794853
_cell_length_c                    12.580424
_cell_angle_alpha                 90.94237
_cell_angle_beta                  109.3427
_cell_angle_gamma                 95.507687
_cell_volume                      1302.18903499

loop_
_atom_site_label
_atom_site_type_symbol
_atom_type_description
_atom_site_fract_x
_atom_site_fract_y
_atom_site_fract_z
_atom_type_partial_charge
C1    C     C_R   0.053770 0.732582 0.496555 0.923245
C2    C     C_R   0.435098 0.543916 0.988697 -0.064952
C3    C     C_R   0.365733 0.556106 0.872739 -0.165962
C4    C     C_R   0.576909 0.519728 0.022430 0.050270
C5    C     C_R   0.638915 0.490479 0.940981 -0.078434
C6    C     C_R   0.573838 0.517131 0.829919 0.621692
C7    C     C_R   0.445814 0.563484 0.799989 -0.187840
C8    C     C_R   0.661210 0.528734 0.134122 -0.225581
C9    C     C_R   0.842882 0.435191 0.087480 0.593354
C10   C     C_R   0.218556 0.555710 0.832344 -0.245986
C11   C     C_2   0.091415 0.865491 0.506283 -0.354684
C12   C     C_R   0.137792 0.523755 0.712225 0.931602
C13   C     C_2   0.019422 0.936099 0.549351 -0.130237
C14   C     C_2   0.929233 0.136315 0.529628 -0.075058
C15   C     C_2   0.036176 0.068833 0.542492 -0.134602
C16   C     C_2   0.427033 0.523195 0.491109 0.752193
C17   C     C_2   0.567283 0.490540 0.489651 0.008014
C18   C     C_R   0.950571 0.267747 0.510877 0.884130
C19   C     C_R   0.865414 0.487360 0.287539 0.919018
C20   C     C_R   0.769387 0.444116 0.973642 -0.179865
C21   C     C_R   0.790822 0.483220 0.167677 -0.232679
C22   C     C_R   0.148523 0.576093 0.909339 0.506444
C23   C     C_R   0.219857 0.577736 0.025507 -0.006133
C24   C     C_R   0.358194 0.550663 0.064201 0.544424
H1    H     H_    0.938587 0.895612 0.580767 0.204855
H2    H     H_    0.173135 0.905639 0.475714 0.169579
H3    H     H_    0.570216 0.408218 0.440247 0.121863
H4    H     H_    0.814585 0.415667 0.911661 0.243364
H5    H     H_    0.630267 0.577546 0.195681 0.245064
H6    H     H_    0.410087 0.603154 0.718939 0.238792
H7    H     H_    0.135884 0.110341 0.539099 0.160799
N1    N     N_2   0.313640 0.446500 0.454900 -0.132710
N2    N     N_2   0.686360 0.553430 0.545150 -0.053070
O1    O     O_R   0.936910 0.692950 0.509080 -0.645291
O2    O     O_R   0.138320 0.658600 0.480130 -0.556293
O3    O     O_R   0.002900 0.525670 0.675280 -0.537564
O4    O     O_R   0.204310 0.491320 0.646330 -0.629252
O5    O     O_R   0.861680 0.341400 0.519870 -0.613704
O6    O     O_R   0.063090 0.307050 0.490920 -0.631995
O7    O     O_R   0.795690 0.508680 0.353670 -0.628472
O8    O     O_R   0.997100 0.474330 0.324720 -0.548141
Zn1   Zn    Zn3+2 0.865520 0.522940 0.519330 1.000524
Zn2   Zn    Zn3+2 0.134480 0.477060 0.480670 1.021217
F1    F     F_    0.965451 0.384117 0.118616 -0.641094
N3    N     N_3   0.797014 0.081239 0.532833 -0.453223
H8    H     H_    0.720665 0.097589 0.456787 0.198405
H9    H     H_    0.775369 0.127369 0.597815 0.211750
F2    F     F_    0.416880 0.638118 0.531110 -0.669155
N4    N     N_3   0.683028 0.668334 0.595018 -0.269545
H10   H     H_    0.768185 0.679699 0.669802 0.257885
H11   H     H_    0.701836 0.736386 0.542201 0.193772
N5    N     N_3   0.325884 0.328125 0.416673 -0.455364
H12   H     H_    0.304740 0.265412 0.472711 0.193309
H13   H     H_    0.246394 0.309319 0.339048 0.254645
F3    F     F_    0.636739 0.503594 0.751842 -0.677516
F4    F     F_    0.010068 0.589582 0.871983 -0.657241
F5    F     F_    0.410484 0.523838 0.174341 -0.677673
N6    N     N_3   0.151287 0.598590 0.106200 -0.317477
H14   H     H_    0.050848 0.622993 0.066263 0.233463
H15   H     H_    0.206054 0.676219 0.158235 0.193118

loop_
_geom_bond_atom_site_label_1
_geom_bond_atom_site_label_2
_ccdc_geom_bond_type
O4    Zn2   S    
C23   N6    S    
C2    C4    A    
C23   C24   A    
C15   H7    S    
C6    C7    A    
C16   N1    D    
O2    Zn2   S    
C14   C18   S    
C9    C20   A    
O3    Zn1   S    
C22   F4    S    
O1    Zn1   S    
C4    C8    A    
C6    F3    S    
C18   O6    A    
C9    C21   A    
C16   F2    S    
O7    Zn1   S    
C8    C21   A    
C18   O5    A    
C7    H6    S    
N3    H8    S    
C10   C22   A    
C11   C13   D    
C13   H1    S    
C16   C17   S    
C17   N2    D    
N2    Zn1   S    
C10   C12   S    
C19   C21   S    
N1    Zn2   S    
N5    H13   S    
C1    O1    A    
C2    C3    A    
C14   N3    S    
C3    C7    A    
C13   C15   S    
C2    C24   A    
C5    C6    A    
C5    C20   A    
C12   O3    A    
C19   O7    A    
C8    H5    S    
N6    H15   S    
C17   H3    S    
O5    Zn1   S    
N5    H12   S    
C1    O2    A    
N4    H10   S    
N3    H9    S    
C12   O4    A    
C3    C10   A    
C14   C15   D    
C24   F5    S    
C9    F1    S    
O6    Zn2   S    
C20   H4    S    
C11   H2    S    
N6    H14   S    
C22   C23   A    
N2    N4    S    
N1    N5    S    
O8    Zn2   S    
C19   O8    A    
C4    C5    A    
N4    H11   S    
C1    C11   S    
