data_mof_unit_56532.cif
_audit_creation_date              2012-12-10T17:38:10-0500
_audit_creation_method            fapswitch 2.2
_symmetry_space_group_name_H-M    P1
_symmetry_Int_Tables_number       1
_space_group_crystal_system       triclinic
_cell_length_a                    12.072401
_cell_length_b                    12.92777
_cell_length_c                    19.126815
_cell_angle_alpha                 91.617868
_cell_angle_beta                  85.169831
_cell_angle_gamma                 94.775839
_cell_volume                      2963.50163473

loop_
_atom_site_label
_atom_site_type_symbol
_atom_type_description
_atom_site_fract_x
_atom_site_fract_y
_atom_site_fract_z
_atom_type_partial_charge
C1    C     C_R   0.523127 0.700423 0.493858 0.866193
C2    C     C_R   0.556602 0.133757 0.489001 -0.313008
C3    C     C_R   0.445306 0.971657 0.493965 0.156440
C4    C     C_R   0.549711 0.027388 0.484028 0.123685
C5    C     C_R   0.958376 0.433420 0.419071 0.402390
C6    C     C_R   0.041491 0.558179 0.586048 0.378583
C7    C     C_R   0.840992 0.429991 0.430595 0.134214
C8    C     C_R   0.159783 0.568234 0.571012 0.147608
C9    C     C_R   0.856892 0.528453 0.536543 0.561618
C10   C     C_R   0.141881 0.458383 0.469841 0.543952
C11   C     C_R   0.974937 0.521181 0.531714 -0.267568
C12   C     C_R   0.476476 0.299285 0.502091 0.859490
C13   C     C_R   0.026097 0.473016 0.472062 -0.269503
C14   C     C_R   0.498792 0.499336 0.634257 0.865807
C15   C     C_R   0.501304 0.501693 0.365536 0.867132
C16   C     C_R   0.412757 0.442819 0.751139 0.167608
C17   C     C_R   0.574256 0.594034 0.256439 0.150232
C18   C     C_R   0.405548 0.455622 0.824419 0.199605
C19   C     C_R   0.568617 0.609790 0.184292 0.168082
C20   C     C_R   0.479815 0.530465 0.855599 -0.015203
C21   C     C_R   0.494293 0.544053 0.146997 0.011288
C22   C     C_R   0.561699 0.588441 0.813641 -0.208716
C23   C     C_R   0.460533 0.186775 0.502035 -0.099175
C24   C     C_R   0.426801 0.464462 0.180923 -0.209014
C25   C     C_R   0.569586 0.574462 0.741575 -0.217319
C26   C     C_R   0.432645 0.449130 0.251683 -0.279145
C27   C     C_R   0.495345 0.503011 0.710126 -0.133901
C28   C     C_R   0.504996 0.513669 0.289893 -0.078818
C29   C     C_R   0.489511 0.552842 0.071816 0.329964
C30   C     C_R   0.481836 0.543107 0.931445 0.297487
C31   C     C_3   0.223999 0.378164 0.724007 -0.703654
C32   C     C_3   0.761403 0.630298 0.292889 -0.802119
C33   C     C_3   0.026264 0.489880 0.311376 0.053507
C34   C     C_R   0.536889 0.812517 0.483209 -0.153556
C35   C     C_3   0.063537 0.455067 0.237079 -0.818009
C36   C     C_3   0.005163 0.640696 0.695748 0.146865
C37   C     C_3   0.907740 0.641066 0.751682 -0.800690
C38   C     C_3   0.374293 0.298416 0.891522 -0.740579
C39   C     C_3   0.744467 0.676210 0.122397 -0.728470
C40   C     C_3   0.205697 0.167457 0.599219 -0.754954
C41   C     C_3   0.838688 0.872278 0.412245 -0.883787
C42   C     C_3   0.224757 0.349548 0.384774 0.228298
C43   C     C_3   0.180246 0.249409 0.348747 -0.845727
C44   C     C_3   0.829639 0.695237 0.566400 0.137169
C45   C     C_R   0.646223 0.976686 0.467541 -0.227443
C46   C     C_3   0.758262 0.766745 0.612017 -0.813048
C47   C     C_3   0.245758 0.729017 0.620549 -0.798826
C48   C     C_3   0.785242 0.267523 0.371686 -0.721725
C49   C     C_R   0.348159 0.022965 0.507260 -0.277257
C50   C     C_R   0.640698 0.868232 0.463563 0.226535
C51   C     C_R   0.354782 0.131020 0.512495 0.190502
C52   C     C_R   0.439640 0.865157 0.492705 -0.306469
H1    H     H_    0.619916 0.645102 0.836784 0.163922
H2    H     H_    0.176651 0.306790 0.744788 0.243968
H3    H     H_    0.197994 0.391894 0.670946 0.242742
H4    H     H_    0.202267 0.444880 0.759019 0.227906
H5    H     H_    0.641666 0.737839 0.290408 0.213495
H6    H     H_    0.820748 0.697147 0.276449 0.226198
H7    H     H_    0.775553 0.563995 0.255760 0.241004
H8    H     H_    0.780021 0.607810 0.345872 0.234759
H9    H     H_    0.093133 0.544569 0.331381 0.128203
H10   H     H_    0.950319 0.531912 0.308786 0.128912
H11   H     H_    0.997879 0.400370 0.216088 0.253895
H12   H     H_    0.370893 0.412523 0.152179 0.160884
H13   H     H_    0.078322 0.523517 0.202737 0.213524
H14   H     H_    0.142043 0.415969 0.236545 0.248206
H15   H     H_    0.008430 0.712391 0.664749 0.124165
H16   H     H_    0.080774 0.641087 0.724662 0.133632
H17   H     H_    0.827587 0.627442 0.727435 0.285838
H18   H     H_    0.912836 0.578307 0.789496 0.250584
H19   H     H_    0.909965 0.716849 0.780553 0.190154
H20   H     H_    0.273907 0.423449 0.900728 0.236581
H21   H     H_    0.306116 0.246363 0.917367 0.232936
H22   H     H_    0.435080 0.322800 0.930499 0.236587
H23   H     H_    0.631839 0.621620 0.710062 0.180454
H24   H     H_    0.416285 0.254394 0.847619 0.249316
H25   H     H_    0.625349 0.766125 0.174401 0.214262
H26   H     H_    0.806199 0.720628 0.153832 0.222171
H27   H     H_    0.757987 0.703530 0.067635 0.249195
H28   H     H_    0.759335 0.592421 0.122392 0.242665
H29   H     H_    0.197800 0.164178 0.492421 0.252562
H30   H     H_    0.138909 0.221144 0.610118 0.252052
H31   H     H_    0.268988 0.183602 0.637726 0.245776
H32   H     H_    0.168119 0.086500 0.605638 0.215042
H33   H     H_    0.715746 0.750094 0.407110 0.260101
H34   H     H_    0.381800 0.385512 0.276116 0.132303
H35   H     H_    0.901349 0.816690 0.394863 0.232745
H36   H     H_    0.872375 0.921102 0.455518 0.251140
H37   H     H_    0.825805 0.920683 0.366994 0.254824
H38   H     H_    0.313923 0.340324 0.389176 0.159530
H39   H     H_    0.217964 0.417235 0.351340 0.137067
H40   H     H_    0.204157 0.252478 0.291466 0.205669
H41   H     H_    0.216737 0.181684 0.369534 0.213335
H42   H     H_    0.088255 0.236803 0.357562 0.303593
H43   H     H_    0.811989 0.702402 0.511229 0.168591
H44   H     H_    0.918537 0.722748 0.569558 0.097542
H45   H     H_    0.638236 0.175049 0.482325 0.183839
H46   H     H_    0.782653 0.769749 0.666634 0.228032
H47   H     H_    0.770568 0.846570 0.591235 0.219801
H48   H     H_    0.668713 0.739468 0.612022 0.253717
H49   H     H_    0.228456 0.582505 0.668078 0.228385
H50   H     H_    0.209632 0.761782 0.670750 0.200833
H51   H     H_    0.206252 0.762103 0.576671 0.213260
H52   H     H_    0.336236 0.753380 0.616621 0.264393
H53   H     H_    0.775029 0.414979 0.334561 0.229172
H54   H     H_    0.853120 0.254241 0.330309 0.250313
H55   H     H_    0.706291 0.228322 0.354803 0.222043
H56   H     H_    0.358254 0.823704 0.500609 0.178524
H57   H     H_    0.804678 0.232283 0.421096 0.223113
H58   H     H_    0.724445 0.022698 0.456382 0.149767
H59   H     H_    0.267535 0.979309 0.514834 0.136636
H60   H     H_    0.373361 0.331610 0.672917 0.216992
N1    N     N_R   0.581151 0.555501 0.959986 -0.178054
N2    N     N_2   0.632120 0.694532 0.150035 -0.304618
N3    N     N_2   0.255679 0.182127 0.528427 -0.249683
N4    N     N_2   0.734964 0.815259 0.436764 -0.312993
N5    N     N_2   0.230475 0.616693 0.620026 -0.242871
N6    N     N_2   0.772839 0.377559 0.381542 -0.230784
N7    N     N_R   0.390017 0.542431 0.043405 -0.188909
N8    N     N_R   0.584865 0.559861 0.029084 -0.156786
N9    N     N_R   0.386329 0.538461 0.974208 -0.192848
N10   N     N_R   0.207800 0.519350 0.512860 -0.170419
N11   N     N_R   0.792200 0.480650 0.487140 -0.189725
N12   N     N_2   0.342238 0.363928 0.719605 -0.299772
N13   N     N_2   0.647704 0.659438 0.295787 -0.307934
N14   N     N_2   0.328108 0.387892 0.865195 -0.295080
O1    O     O_R   0.421690 0.658830 0.503430 -0.599091
O2    O     O_3   0.992782 0.548827 0.654558 -0.573835
O3    O     O_3   0.171470 0.358521 0.452868 -0.593282
O4    O     O_3   0.807515 0.591206 0.587820 -0.559527
O5    O     O_R   0.578310 0.341170 0.496570 -0.602194
O6    O     O_R   0.609320 0.646410 0.495180 -0.618520
O7    O     O_R   0.390680 0.353590 0.504820 -0.578758
O8    O     O_R   0.406160 0.506220 0.605990 -0.596310
O9    O     O_R   0.593840 0.493780 0.394010 -0.590622
O10   O     O_R   0.593780 0.493810 0.597740 -0.556686
O11   O     O_R   0.406220 0.506190 0.402260 -0.661641
O12   O     O_3   0.005041 0.402116 0.354380 -0.606534
Zn1   Zn    Zn3+2 0.374720 0.508290 0.505510 0.969676
Zn2   Zn    Zn3+2 0.625280 0.491710 0.494490 0.984380

loop_
_geom_bond_atom_site_label_1
_geom_bond_atom_site_label_2
_ccdc_geom_bond_type
C41   H37   S    
C46   H47   S    
C12   O5    A    
C37   H17   S    
C40   H32   S    
C7    N6    S    
C32   H6    S    
O10   Zn2   S    
C1    O6    A    
C17   N13   S    
C3    C49   A    
C36   H15   S    
C5    O12   S    
C20   C30   S    
C9    O4    S    
C29   N7    A    
C12   C23   S    
C6    C8    A    
C36   C37   S    
C19   C21   A    
C24   C26   A    
N10   Zn1   S    
H60   N12   S    
H5    N13   S    
C33   C35   S    
C48   H55   S    
C15   O9    A    
C35   H13   S    
C44   O4    S    
C43   H42   S    
C18   C20   A    
C42   H39   S    
O5    Zn2   S    
C17   C19   A    
C48   H54   S    
C2    H45   S    
C33   H10   S    
C49   C51   A    
C22   C25   A    
C1    C34   S    
C31   H4    S    
C5    C13   A    
C49   H59   S    
C16   C27   A    
C48   H57   S    
C46   H46   S    
C24   H12   S    
C47   H50   S    
C37   H18   S    
C40   H31   S    
C36   O2    S    
O1    Zn1   S    
C38   N14   S    
C44   C46   S    
C8    N5    S    
C22   H1    S    
C4    C45   A    
N7    N9    A    
O9    Zn2   S    
C41   H35   S    
C29   N8    A    
C34   C50   A    
C47   H51   S    
C39   H26   S    
C40   H30   S    
C6    C11   A    
C5    C7    A    
C45   H58   S    
C38   H24   S    
C14   O8    A    
C19   N2    S    
C21   C29   S    
N11   Zn2   S    
C51   N3    S    
H20   N14   S    
C42   H38   S    
C39   H27   S    
C32   N13   S    
C2    C4    A    
C44   H44   S    
N1    N8    A    
O11   Zn1   S    
C23   C51   A    
C30   N9    A    
C33   O12   S    
C26   H34   S    
C39   N2    S    
H29   N3    S    
C9    C11   A    
C31   H3    S    
C16   C18   A    
C20   C22   A    
O7    Zn1   S    
C12   O7    A    
C37   H19   S    
C14   C27   S    
H53   N6    S    
O6    Zn2   S    
C42   C43   S    
C32   H8    S    
C41   N4    S    
H25   N2    S    
O8    Zn1   S    
C38   H22   S    
C41   H36   S    
C46   H48   S    
C47   H52   S    
C17   C28   A    
C26   C28   A    
H33   N4    S    
C1    O1    A    
C7    N11   A    
C10   N10   A    
C10   C13   A    
C31   N12   S    
C48   N6    S    
C3    C52   A    
C36   H16   S    
C25   C27   A    
C34   C52   A    
C43   H40   S    
C35   H14   S    
C43   H41   S    
H49   N5    S    
C39   H28   S    
C16   N12   S    
C10   O3    S    
C6    O2    S    
C44   H43   S    
C18   N14   S    
C11   C13   A    
C8    N10   A    
C15   C28   S    
C14   O10   A    
C45   C50   A    
C9    N11   A    
C42   O3    S    
C50   N4    S    
C31   H2    S    
C40   N3    S    
C47   N5    S    
C52   H56   S    
C33   H9    S    
C21   C24   A    
C2    C23   A    
C35   H11   S    
C32   H7    S    
C25   H23   S    
C30   N1    A    
C3    C4    A    
C15   O11   A    
C38   H21   S    
