data_mof_unit_55896.cif
_audit_creation_date              2012-12-11T14:25:53-0500
_audit_creation_method            fapswitch 2.2
_symmetry_space_group_name_H-M    P1
_symmetry_Int_Tables_number       1
_space_group_crystal_system       triclinic
_cell_length_a                    6.986719
_cell_length_b                    14.732051
_cell_length_c                    16.217353
_cell_angle_alpha                 90.71976
_cell_angle_beta                  90.265229
_cell_angle_gamma                 89.439613
_cell_volume                      1669.00258175

loop_
_atom_site_label
_atom_site_type_symbol
_atom_type_description
_atom_site_fract_x
_atom_site_fract_y
_atom_site_fract_z
_atom_type_partial_charge
O1    O     O_R   0.494490 0.416160 0.413410 -0.536445
O2    O     O_R   0.823830 0.407240 0.585990 -0.513417
O3    O     O_R   0.994160 0.583840 0.586590 -0.542434
C1    C     C_R   0.656356 0.385566 0.613444 0.748261
O4    O     O_R   0.824200 0.405280 0.414020 -0.531707
O5    O     O_R   0.994530 0.581860 0.413390 -0.529830
C2    C     C_R   0.656255 0.385154 0.384059 0.775092
O6    O     O_R   0.494110 0.418140 0.586610 -0.542350
O7    O     O_3   0.660810 0.557940 0.500000 -0.386278
V1    V     V_3+5 0.935650 0.489250 0.500000 1.484952
O8    O     O_R   0.324250 0.592760 0.414010 -0.546218
C3    C     C_R   0.154749 0.615344 0.386955 0.720828
O9    O     O_R   0.323880 0.594720 0.585980 -0.550454
C4    C     C_R   0.154914 0.616323 0.614759 0.673902
V2    V     V_3+5 0.435660 0.510750 0.500000 1.428369
O10   O     O_3   0.160630 0.442060 0.500000 -0.362526
C5    C     C_3   0.022780 0.650079 0.756858 -0.326421
H1    H     H_    0.873652 0.636697 0.735918 0.155988
H2    H     H_    0.084153 0.584637 0.778453 0.137122
C6    C     C_3   0.018355 0.719411 0.829500 -0.429046
H3    H     H_    0.090614 0.688283 0.883708 0.138213
H4    H     H_    0.870240 0.731383 0.850455 0.149284
H5    H     H_    0.896088 0.762015 0.636309 0.147244
H6    H     H_    0.919487 0.887402 0.725330 0.103127
C7    C     C_3   0.047421 0.774948 0.654224 -0.337755
C8    C     C_3   0.346020 0.709472 0.718595 -0.338758
C9    C     C_3   0.143683 0.686063 0.684419 0.066108
H7    H     H_    0.435773 0.736493 0.668103 0.162537
H8    H     H_    0.418343 0.646729 0.741005 0.097945
C10   C     C_3   0.123611 0.808610 0.807084 0.073890
C11   C     C_3   0.053252 0.849065 0.722833 -0.307597
C12   C     C_3   0.333430 0.780022 0.790629 0.370152
H9    H     H_    0.389181 0.746903 0.847849 0.024781
H10   H     H_    0.122112 0.799669 0.598473 0.123924
H11   H     H_    0.151034 0.903343 0.702493 0.175879
C13   C     C_2   0.988466 0.714418 0.284528 -0.080763
C14   C     C_2   0.149207 0.686364 0.323255 -0.272571
H12   H     H_    0.851445 0.686789 0.302374 0.133295
H13   H     H_    0.283982 0.718728 0.310171 0.160533
C15   C     C_2   0.986389 0.788513 0.222388 -0.228855
C16   C     C_2   0.128756 0.803126 0.167938 0.317807
H14   H     H_    0.860111 0.832058 0.221408 0.080870
C17   C     C_2   0.768846 0.214422 0.786780 -0.346480
C18   C     C_2   0.604223 0.179466 0.815492 0.272538
H15   H     H_    0.903246 0.185481 0.808045 0.115269
C19   C     C_2   0.782330 0.295152 0.731223 0.499448
C20   C     C_2   0.647305 0.311330 0.672989 -0.324019
H16   H     H_    0.525622 0.267665 0.665305 0.140250
C21   C     C_2   0.777213 0.217731 0.202847 -0.186981
C22   C     C_2   0.612726 0.183460 0.172645 -0.336635
H17   H     H_    0.911569 0.191558 0.178316 0.172898
H18   H     H_    0.476105 0.211453 0.192462 0.175726
C23   C     C_2   0.788675 0.295940 0.262520 0.013947
C24   C     C_2   0.645936 0.315441 0.317089 -0.358934
H19   H     H_    0.516179 0.275669 0.315612 0.156797
O11   O     O_R   0.770850 0.076180 0.907410 -0.558817
O12   O     O_R   0.440600 0.088970 0.079950 -0.539186
O13   O     O_R   0.270430 0.912340 0.080550 -0.540948
C25   C     C_R   0.608745 0.111652 0.107805 0.759262
O14   O     O_R   0.441120 0.087010 0.907980 -0.523159
O15   O     O_R   0.270950 0.910370 0.907350 -0.520288
C26   C     C_R   0.607668 0.108305 0.879702 0.674326
O16   O     O_R   0.770320 0.078150 0.080620 -0.535319
O17   O     O_3   0.604200 0.936340 0.994000 -0.390128
V3    V     V_3+5 0.329300 0.004970 0.993950 1.431558
O18   O     O_R   0.941240 0.899420 0.907920 -0.561355
C27   C     C_R   0.110399 0.878296 0.878163 0.671408
O19   O     O_R   0.940720 0.901380 0.079890 -0.552808
C28   C     C_R   0.111367 0.877928 0.106611 0.636702
V4    V     V_3+5 0.829310 0.983370 0.993880 1.356567
O20   O     O_3   0.104280 0.052120 0.993920 -0.363957
O21   O     O_3   0.432030 0.859508 0.769096 -0.572639
C29   C     C_3   0.615397 0.857438 0.801607 -0.228364
H20   H     H_    0.617743 0.841329 0.868198 0.167710
H21   H     H_    0.675030 0.926367 0.795518 0.155783
H22   H     H_    0.695897 0.805660 0.765980 0.139818
O22   O     O_3   0.274274 0.738304 0.160277 -0.546119
C30   C     C_3   0.456573 0.777479 0.170942 -0.219646
H23   H     H_    0.456171 0.837523 0.213531 0.098924
H24   H     H_    0.517596 0.795195 0.110237 0.171563
H25   H     H_    0.553551 0.725852 0.198323 0.149815
O23   O     O_3   0.429592 0.219380 0.794960 -0.549177
C31   C     C_3   0.315876 0.156581 0.750172 -0.256573
H26   H     H_    0.229177 0.115000 0.792256 0.160492
H27   H     H_    0.401073 0.111707 0.707963 0.111121
H28   H     H_    0.213681 0.195228 0.711192 0.175138
O24   O     O_3   0.944687 0.349411 0.732624 -0.549522
C32   C     C_3   0.002554 0.369445 0.814278 -0.217526
H29   H     H_    0.077778 0.310643 0.842309 0.175198
H30   H     H_    0.880027 0.392352 0.853292 0.126250
H31   H     H_    0.106689 0.425660 0.812815 0.152807
C33   C     C_2   0.963426 0.352359 0.257478 0.781128
O25   O     O_2   0.119706 0.316062 0.246862 -0.586570
O26   O     O_R   0.948289 0.447062 0.260818 -0.655845
H32   H     H_    0.076664 0.477687 0.254670 0.291874

loop_
_geom_bond_atom_site_label_1
_geom_bond_atom_site_label_2
_ccdc_geom_bond_type
C7    C11   S    
C10   C12   S    
O24   C32   S    
C8    C12   S    
C29   H20   S    
C1    O6    A    
C12   O21   S    
C6    C10   S    
O22   C30   S    
C8    C9    S    
C22   C25   S    
C13   C14   D    
C18   O23   S    
O5    C3    A    
C10   C11   S    
C30   H24   S    
O12   C25   A    
V2    O10   S    
C5    C6    S    
O14   C26   A    
C3    C14   S    
C19   C20   D    
O8    V2    S    
C20   H16   S    
O19   C28   A    
C21   H17   S    
C22   H18   S    
C32   H31   S    
V4    O20   S    
O1    V2    S    
O17   V4    S    
C4    C9    S    
O7    V1    S    
C10   C27   S    
C7    H10   S    
C15   H14   S    
O18   C27   A    
O9    C4    A    
C29   H21   S    
C5    C9    S    
C13   C15   S    
O12   V3    S    
O4    C2    A    
C30   H23   S    
C18   C26   S    
C23   C24   D    
O2    C1    A    
C17   C18   D    
O15   C27   A    
O13   V3    S    
C31   H26   S    
O16   V4    S    
C23   C33   S    
C33   O26   S    
C5    H1    S    
C6    H3    S    
C17   H15   S    
O3    C4    A    
C15   C16   D    
C31   H27   S    
C32   H30   S    
O14   V3    S    
C21   C22   D    
O6    V2    S    
O11   V4    S    
O9    V2    S    
C29   H22   S    
C11   H11   S    
O2    V1    S    
C16   C28   S    
C19   O24   S    
C24   H19   S    
O1    C2    A    
C25   O16   A    
C6    H4    S    
O21   C29   S    
O5    V1    S    
O8    C3    A    
O13   C28   A    
C7    C9    S    
C8    H7    S    
O17   V3    S    
C13   H12   S    
O7    V2    S    
H6    C11   S    
O4    V1    S    
C14   H13   S    
O3    V1    S    
V3    O20   S    
C12   H9    S    
C16   O22   S    
C30   H25   S    
O18   V4    S    
C21   C23   S    
C33   O25   D    
C5    H2    S    
O11   C26   A    
H5    C7    S    
O26   H32   S    
C17   C19   S    
O15   V3    S    
C31   H28   S    
C32   H29   S    
C8    H8    S    
O19   V4    S    
O23   C31   S    
V1    O10   S    
C2    C24   S    
C1    C20   S    
