data_mof_unit_8277.cif
_audit_creation_date              2012-12-11T15:39:08-0500
_audit_creation_method            fapswitch 2.2
_symmetry_space_group_name_H-M    P1
_symmetry_Int_Tables_number       1
_space_group_crystal_system       triclinic
_cell_length_a                    14.349177
_cell_length_b                    14.790963
_cell_length_c                    33.190347
_cell_angle_alpha                 97.573696
_cell_angle_beta                  90.36419
_cell_angle_gamma                 118.914609
_cell_volume                      6092.36762057

loop_
_atom_site_label
_atom_site_type_symbol
_atom_type_description
_atom_site_fract_x
_atom_site_fract_y
_atom_site_fract_z
_atom_type_partial_charge
C1    C     C_R   0.616942 0.910279 0.437029 0.544047
C2    C     C_R   0.742649 0.425191 0.187918 0.031897
C3    C     C_R   0.757059 0.868769 0.638994 -0.119281
C4    C     C_R   0.672335 0.784853 0.654114 0.033199
C5    C     C_R   0.636841 0.858897 0.584681 0.018851
C6    C     C_R   0.052098 0.781288 0.063796 0.544356
C7    C     C_R   0.744000 0.486888 0.066240 0.546185
C8    C     C_R   0.742971 0.789215 0.066414 0.553227
C9    C     C_R   0.021447 0.732019 0.947350 0.532107
C10   C     C_R   0.712317 0.437951 0.949199 0.533028
C11   C     C_R   0.743493 0.716476 0.945931 0.567243
C12   C     C_R   0.830060 0.440771 0.165351 -0.119281
C13   C     C_R   0.827911 0.453647 0.124542 -0.125518
C14   C     C_R   0.781797 0.357057 0.246789 -0.114671
C15   C     C_R   0.774670 0.344500 0.287718 -0.111919
C16   C     C_R   0.733751 0.396505 0.314262 0.031182
C17   C     C_R   0.705929 0.465861 0.299745 -0.115428
C18   C     C_R   0.712525 0.477932 0.258796 -0.113409
C19   C     C_R   0.747458 0.421193 0.231841 0.030176
C20   C     C_R   0.607317 0.346514 0.368652 -0.118211
C21   C     C_R   0.594089 0.205676 0.456667 0.544536
C22   C     C_R   0.572750 0.299477 0.403312 -0.125191
C23   C     C_R   0.740961 0.300769 0.413185 -0.126329
C24   C     C_R   0.775618 0.348103 0.378578 -0.121542
C25   C     C_R   0.707468 0.367666 0.355171 0.032896
C26   C     C_R   0.637631 0.272436 0.424921 0.022864
C27   C     C_R   0.244654 0.878102 0.393427 0.020172
C28   C     C_R   0.232495 0.959392 0.380841 -0.127719
C29   C     C_R   0.208420 0.957023 0.339743 -0.114931
C30   C     C_R   0.195550 0.873231 0.310844 0.040447
C31   C     C_R   0.200540 0.788863 0.323376 -0.112849
C32   C     C_R   0.295590 0.892809 0.434403 0.541272
C33   C     C_R   0.224714 0.791044 0.364445 -0.127899
C34   C     C_R   0.195298 0.807568 0.163278 -0.112523
C35   C     C_R   0.167481 0.786208 0.121402 -0.125603
C36   C     C_R   0.089848 0.900581 0.129656 -0.128540
C37   C     C_R   0.117252 0.921367 0.171652 -0.114496
C38   C     C_R   0.166522 0.871849 0.188621 0.039681
C39   C     C_1   0.177392 0.877212 0.232022 -0.030137
C40   C     C_1   0.184834 0.876674 0.268118 -0.029992
C41   C     C_R   0.110271 0.828859 0.104430 0.020198
C42   C     C_R   0.637607 0.878539 0.395545 0.020348
C43   C     C_R   0.613911 0.904747 0.551560 0.542224
C44   C     C_R   0.552921 0.799855 0.368505 -0.130212
C45   C     C_R   0.565272 0.787506 0.326811 -0.117337
C46   C     C_R   0.662383 0.852955 0.311892 0.038656
C47   C     C_R   0.749318 0.926112 0.338836 -0.114316
C48   C     C_R   0.737187 0.938772 0.380504 -0.125798
C49   C     C_R   0.778798 0.919819 0.174758 -0.115349
C50   C     C_R   0.793792 0.906899 0.133310 -0.128944
C51   C     C_R   0.618786 0.752231 0.121624 -0.125602
C52   C     C_R   0.603908 0.765517 0.162987 -0.114978
C53   C     C_R   0.685404 0.847039 0.189742 0.039940
C54   C     C_R   0.590086 0.200071 0.570789 0.563806
C55   C     C_1   0.677020 0.850035 0.232782 -0.033164
C56   C     C_1   0.670481 0.850760 0.268861 -0.033496
C57   C     C_R   0.715718 0.820272 0.106696 0.021818
C58   C     C_R   0.624962 0.252007 0.613621 0.057694
C59   C     C_R   0.572697 0.300943 0.635439 0.094508
C60   C     C_R   0.590809 0.326356 0.678048 -0.106667
C61   C     C_R   0.660433 0.304019 0.698820 0.020965
C62   C     C_R   0.718388 0.263489 0.677165 -0.128041
C63   C     C_R   0.701370 0.238247 0.634882 -0.161839
C64   C     C_R   0.763531 0.348440 0.844769 -0.116008
C65   C     C_R   0.288885 0.886709 0.548445 0.543042
C66   C     C_R   0.772599 0.372905 0.887167 -0.129340
C67   C     C_R   0.593873 0.351397 0.884837 -0.126074
C68   C     C_R   0.585059 0.326925 0.842447 -0.113673
C69   C     C_R   0.671337 0.329266 0.822367 0.041841
C70   C     C_1   0.668466 0.320426 0.778856 -0.030563
C71   C     C_1   0.665864 0.314310 0.742383 -0.030682
C72   C     C_R   0.689735 0.379492 0.907477 0.021771
C73   C     C_R   0.064030 0.751100 0.907526 0.021784
C74   C     C_R   0.101860 0.849662 0.895571 -0.143043
C75   C     C_R   0.117360 0.861100 0.854755 -0.127991
C76   C     C_R   0.738044 0.450622 0.105816 0.020793
C77   C     C_R   0.095302 0.774099 0.825519 0.031213
C78   C     C_R   0.064200 0.677154 0.838037 -0.117824
C79   C     C_R   0.049340 0.665886 0.878764 -0.120264
C80   C     C_R   0.143209 0.730977 0.756552 -0.113097
C81   C     C_R   0.147372 0.737998 0.715242 -0.111057
C82   C     C_R   0.108548 0.796803 0.698417 0.032889
C83   C     C_R   0.063721 0.847117 0.723478 -0.109560
C84   C     C_R   0.059845 0.840326 0.764962 -0.109999
C85   C     C_R   0.100227 0.782684 0.781840 0.032918
C86   C     C_R   0.174575 0.917652 0.647204 -0.121312
C87   C     C_R   0.648022 0.427889 0.127824 -0.124035
C88   C     C_R   0.220109 0.940066 0.610393 -0.129517
C89   C     C_R   0.163452 0.756426 0.589375 -0.127462
C90   C     C_R   0.117174 0.733954 0.626005 -0.121466
C91   C     C_R   0.127856 0.815221 0.656071 0.032172
C92   C     C_R   0.219953 0.860328 0.582262 0.021948
C93   C     C_R   0.728160 0.701551 0.901111 0.016595
C94   C     C_R   0.629423 0.635516 0.878583 -0.124430
C95   C     C_R   0.620351 0.634453 0.836262 -0.115956
C96   C     C_R   0.710278 0.698056 0.816372 0.032518
C97   C     C_R   0.809786 0.755890 0.838692 -0.114669
C98   C     C_R   0.650517 0.415661 0.168565 -0.120009
C99   C     C_R   0.818184 0.758658 0.880436 -0.123088
C100  C     C_R   0.753720 0.819234 0.765655 -0.115263
C101  C     C_R   0.746510 0.840234 0.726549 -0.115332
C102  C     C_R   0.686115 0.758832 0.694622 0.033495
C103  C     C_R   0.633354 0.655172 0.702811 -0.111555
C104  C     C_R   0.640492 0.634016 0.742350 -0.111121
C105  C     C_R   0.700926 0.716197 0.774093 0.033113
C106  C     C_R   0.571324 0.734177 0.632572 -0.119218
C107  C     C_R   0.553855 0.770578 0.598144 -0.125844
C108  C     C_R   0.739319 0.905931 0.604796 -0.129570
Cr1   Cr    Cr6+3 0.424820 0.846020 0.489780 1.008679
Cr2   Cr    Cr6+3 0.657880 0.078580 0.505700 1.006855
Cr3   Cr    Cr6+3 0.417280 0.075360 0.504550 1.023936
Cr4   Cr    Cr6+3 0.903360 0.812540 0.006510 1.004208
Cr5   Cr    Cr6+3 0.914630 0.587050 0.006280 1.004643
Cr6   Cr    Cr6+3 0.673560 0.582680 0.008540 1.009419
H1    H     H_    0.577418 0.424556 0.114210 0.129197
H2    H     H_    0.492884 0.278875 0.411730 0.126992
H3    H     H_    0.901679 0.447809 0.179772 0.104187
H4    H     H_    0.793293 0.282094 0.429623 0.123863
H5    H     H_    0.184228 0.730715 0.102752 0.124036
H6    H     H_    0.233700 0.769095 0.176155 0.107124
H7    H     H_    0.190309 0.723439 0.301173 0.106415
H8    H     H_    0.233832 0.727451 0.373051 0.123441
H9    H     H_    0.247498 0.027658 0.402337 0.124290
H10   H     H_    0.094598 0.971224 0.191071 0.105507
H11   H     H_    0.044983 0.933866 0.117572 0.124068
H12   H     H_    0.898575 0.471256 0.108357 0.128137
H13   H     H_    0.204318 0.022508 0.330325 0.105600
H14   H     H_    0.869468 0.960181 0.122763 0.120482
H15   H     H_    0.842202 0.983300 0.195373 0.103728
H16   H     H_    0.824954 0.976674 0.327465 0.106158
H17   H     H_    0.803913 0.999826 0.400569 0.126227
H18   H     H_    0.475154 0.752566 0.379098 0.125592
H19   H     H_    0.531196 0.709111 0.174391 0.104090
H20   H     H_    0.557165 0.684951 0.101826 0.121336
H21   H     H_    0.497698 0.730377 0.306063 0.104705
H22   H     H_    0.847535 0.394298 0.903632 0.123592
H23   H     H_    0.853850 0.365289 0.369110 0.102328
H24   H     H_    0.830525 0.349927 0.829378 0.103344
H25   H     H_    0.773038 0.246674 0.693102 0.113744
H26   H     H_    0.743159 0.201378 0.619202 0.134516
H27   H     H_    0.513182 0.311665 0.825238 0.103956
H28   H     H_    0.528725 0.356000 0.899464 0.126523
H29   H     H_    0.547309 0.359636 0.694958 0.096652
H30   H     H_    0.113768 0.916370 0.917369 0.116578
H31   H     H_    0.018897 0.588713 0.887128 0.124365
H32   H     H_    0.079351 0.654043 0.631972 0.106338
H33   H     H_    0.795235 0.289377 0.297988 0.104493
H34   H     H_    0.185162 0.700925 0.696787 0.103808
H35   H     H_    0.176236 0.687333 0.768918 0.101866
H36   H     H_    0.143543 0.937110 0.845862 0.104526
H37   H     H_    0.033313 0.892849 0.711090 0.099207
H38   H     H_    0.025442 0.880234 0.783758 0.090383
H39   H     H_    0.184105 0.981715 0.669988 0.102186
H40   H     H_    0.262551 0.020797 0.605439 0.130499
H41   H     H_    0.045815 0.608651 0.816051 0.103092
H42   H     H_    0.160328 0.693323 0.567688 0.125454
H43   H     H_    0.559053 0.589100 0.893763 0.122216
H44   H     H_    0.808809 0.312557 0.226419 0.103868
H45   H     H_    0.895228 0.809115 0.896945 0.138011
H46   H     H_    0.836458 0.908004 0.654455 0.100369
H47   H     H_    0.785408 0.921038 0.721710 0.099361
H48   H     H_    0.798899 0.884478 0.789690 0.101928
H49   H     H_    0.542602 0.588646 0.819590 0.101658
H50   H     H_    0.586482 0.590711 0.678729 0.094528
H51   H     H_    0.599626 0.553896 0.748073 0.099431
H52   H     H_    0.504221 0.670105 0.643587 0.101356
H53   H     H_    0.473885 0.732336 0.583231 0.129632
H54   H     H_    0.880718 0.803538 0.824134 0.106483
H55   H     H_    0.581252 0.401113 0.185283 0.105773
H56   H     H_    0.805101 0.973143 0.594800 0.124041
H57   H     H_    0.675707 0.507962 0.319766 0.106207
H58   H     H_    0.687902 0.529678 0.247917 0.109595
H59   H     H_    0.552691 0.359822 0.350938 0.103481
O1    O     O_R   0.318160 0.824460 0.443680 -0.521528
O2    O     O_R   0.645130 0.163230 0.552140 -0.516418
O3    O     O_R   0.498360 0.178430 0.555780 -0.472930
O4    O     O_R   0.328690 0.978040 0.538950 -0.502433
O5    O     O_3   0.499990 0.999990 0.500010 -0.237730
O6    O     O_R   0.828710 0.851830 0.052170 -0.515302
O7    O     O_R   0.005980 0.823990 0.047210 -0.500983
O8    O     O_R   0.031900 0.688850 0.050170 -0.514704
O9    O     O_R   0.830940 0.518420 0.048680 -0.498234
O10   O     O_R   0.668160 0.499860 0.053480 -0.517106
O11   O     O_R   0.689170 0.693840 0.050110 -0.495021
O12   O     O_R   0.525040 0.857250 0.449830 -0.502247
O13   O     O_R   0.803860 0.812940 0.962540 -0.510833
O14   O     O_R   0.982950 0.787950 0.964120 -0.527488
O15   O     O_R   0.007050 0.649970 0.960540 -0.516685
O16   O     O_R   0.807910 0.482370 0.965590 -0.504619
O17   O     O_R   0.643310 0.460980 0.963840 -0.526162
O18   O     O_R   0.666140 0.657800 0.967020 -0.499358
O19   O     O_3   0.830520 0.660760 0.007110 -0.260999
O20   O     O_R   0.684760 0.998800 0.456360 -0.517740
O21   O     O_R   0.647540 0.166310 0.470260 -0.502079
O22   O     O_R   0.500960 0.181750 0.467450 -0.518504
O23   O     O_R   0.331100 0.981120 0.457080 -0.502240
O24   O     O_R   0.315560 0.821140 0.532010 -0.520509
O25   O     O_R   0.522630 0.854180 0.531710 -0.500772
O26   O     O_R   0.682160 0.995480 0.544690 -0.520398
N1    N     N_3   0.499095 0.322120 0.614765 -0.607646
H60   H     H_    0.424888 0.282773 0.626612 0.220712
H61   H     H_    0.525698 0.402304 0.621493 0.218275

loop_
_geom_bond_atom_site_label_1
_geom_bond_atom_site_label_2
_ccdc_geom_bond_type
C65   C92   S    
C21   C26   S    
C101  C102  A    
Cr6   O17   S    
C99   H45   S    
C11   O13   A    
C73   C74   A    
Cr1   O24   S    
C95   C96   A    
C32   O23   A    
C9    O15   A    
C2    C12   A    
C23   H4    S    
C81   C82   A    
Cr1   O25   S    
C28   H9    S    
C79   H31   S    
C64   H24   S    
C77   C78   A    
C27   C33   A    
C100  C105  A    
C80   C85   A    
C9    C73   S    
C14   H44   S    
C83   C84   A    
C106  H52   S    
C36   C37   A    
C86   H39   S    
C34   C35   A    
C108  H56   S    
C86   C91   A    
C60   H29   S    
Cr4   O13   S    
C38   C39   S    
C51   H20   S    
C86   C88   A    
C78   H41   S    
C20   C25   A    
Cr2   O5    S    
C75   H36   S    
C15   C16   A    
C58   C63   A    
C18   C19   A    
C63   H26   S    
C23   C26   A    
C54   O3    A    
C104  H51   S    
C98   H55   S    
C35   H5    S    
Cr1   O5    S    
C66   C72   A    
C88   C92   A    
C68   C69   A    
C6    C41   S    
C4    C102  S    
Cr2   O21   S    
Cr3   O5    S    
C23   C24   A    
C31   C33   A    
C48   H17   S    
C70   C71   T    
C51   C57   A    
C3    C108  A    
C62   H25   S    
C29   C30   A    
C93   C99   A    
C87   H1    S    
C61   C62   A    
Cr3   O23   S    
Cr4   O7    S    
C87   C98   A    
C8    O11   A    
C22   H2    S    
C5    C43   S    
C77   C85   S    
C59   C60   A    
C3    H46   S    
C52   H19   S    
C36   C41   A    
C102  C103  A    
C42   C44   A    
Cr4   O14   S    
C104  C105  A    
C97   C99   A    
C83   H37   S    
C53   C55   S    
C34   H6    S    
C80   H35   S    
C107  H53   S    
C45   H21   S    
C10   O16   A    
Cr6   O19   S    
C74   C75   A    
C6    O8    A    
C67   C68   A    
C47   C48   A    
C67   C72   A    
C24   C25   A    
C31   H7    S    
C39   C40   T    
Cr1   O1    S    
C16   C17   A    
C89   H42   S    
C47   H16   S    
Cr1   O12   S    
C58   C59   A    
Cr2   O2    S    
Cr5   O15   S    
C4    C106  A    
C21   O22   A    
C82   C91   S    
Cr3   O3    S    
C60   C61   A    
C88   H40   S    
C54   O2    A    
C1    O20   A    
C37   C38   A    
C95   H49   S    
C8    C57   S    
Cr4   O19   S    
C37   H10   S    
C20   H59   S    
C13   C76   A    
C59   N1    S    
C81   H34   S    
C96   C97   A    
C49   H15   S    
C62   C63   A    
C54   C58   S    
C17   C18   A    
C73   C79   A    
C30   C40   S    
C68   H27   S    
C93   C94   A    
C42   C48   A    
C64   C69   A    
C84   C85   A    
C89   C92   A    
C75   C77   A    
C76   C87   A    
C10   O17   A    
Cr4   O6    S    
C65   O24   A    
C13   H12   S    
C84   H38   S    
C20   C22   A    
C49   C50   A    
C94   H43   S    
C1    O12   A    
C29   H13   S    
C22   C26   A    
C33   H8    S    
C21   O21   A    
C66   H22   S    
Cr5   O8    S    
C50   H14   S    
C3    C4    A    
Cr6   O11   S    
Cr5   O9    S    
C103  C104  A    
C52   C53   A    
C96   C105  S    
C5    C107  A    
Cr2   O20   S    
C16   C25   S    
Cr5   O19   S    
C74   H30   S    
C46   C47   A    
C28   C29   A    
Cr6   O18   S    
C7    O9    A    
C6    O7    A    
Cr2   O26   S    
C34   C38   A    
C50   C57   A    
C14   C19   A    
C44   C45   A    
C80   C81   A    
C9    O14   A    
C100  H48   S    
C17   H57   S    
C103  H50   S    
C7    C76   S    
C32   O1    A    
C18   H58   S    
C24   H23   S    
C44   H18   S    
C97   H54   S    
Cr5   O16   S    
C7    O10   A    
C101  H47   S    
C51   C52   A    
C90   H32   S    
C15   H33   S    
C78   C79   A    
C8    O6    A    
C11   C93   S    
C90   C91   A    
C30   C31   A    
Cr3   O22   S    
C65   O4    A    
N1    H60   S    
C49   C53   A    
C100  C101  A    
C43   O25   A    
C11   O18   A    
C69   C70   S    
C35   C41   A    
C27   C32   S    
C55   C56   T    
C61   C71   S    
C12   H3    S    
C45   C46   A    
C1    C42   S    
C36   H11   S    
C12   C13   A    
C2    C98   A    
N1    H61   S    
C82   C83   A    
C106  C107  A    
C46   C56   S    
C27   C28   A    
Cr3   O4    S    
C14   C15   A    
C43   O26   A    
C89   C90   A    
C67   H28   S    
C94   C95   A    
Cr6   O10   S    
C2    C19   S    
C64   C66   A    
C5    C108  A    
C10   C72   S    
