data_mof_unit_50920.cif
_audit_creation_date              2012-12-10T17:03:00-0500
_audit_creation_method            fapswitch 2.2
_symmetry_space_group_name_H-M    P1
_symmetry_Int_Tables_number       1
_space_group_crystal_system       triclinic
_cell_length_a                    9.92695
_cell_length_b                    11.023509
_cell_length_c                    13.464557
_cell_angle_alpha                 97.632607
_cell_angle_beta                  82.616528
_cell_angle_gamma                 111.00473
_cell_volume                      1358.10827565

loop_
_atom_site_label
_atom_site_type_symbol
_atom_type_description
_atom_site_fract_x
_atom_site_fract_y
_atom_site_fract_z
_atom_type_partial_charge
C1    C     C_R   0.557020 0.745530 0.506895 0.901064
C2    C     C_R   0.433204 0.492394 0.974841 0.047913
C3    C     C_R   0.471794 0.542248 0.878638 -0.043712
C4    C     C_R   0.521975 0.557324 0.053750 0.067775
C5    C     C_R   0.611552 0.689075 0.047806 0.100425
C6    C     C_R   0.619638 0.747670 0.961138 -0.250834
C7    C     C_R   0.587110 0.665939 0.872593 0.308549
C8    C     C_R   0.526757 0.495036 0.136679 -0.219245
C9    C     C_R   0.705420 0.692932 0.205667 -0.189821
C10   C     C_R   0.385985 0.470758 0.797481 -0.067672
C11   C     C_2   0.588932 0.885319 0.510861 -0.324789
C12   C     C_R   0.426945 0.494171 0.690886 0.850893
C13   C     C_2   0.484870 0.930380 0.498055 -0.128215
C14   C     C_2   0.411301 0.114659 0.488833 -0.341199
C15   C     C_2   0.515310 0.069616 0.501814 -0.149970
C16   C     C_2   0.916504 0.476954 0.501013 -0.149782
C17   C     C_2   0.073922 0.506822 0.516725 0.396859
C18   C     C_R   0.443248 0.254475 0.492602 0.836777
C19   C     C_R   0.575560 0.515824 0.311253 0.759522
C20   C     C_R   0.702030 0.756453 0.123928 -0.143157
C21   C     C_R   0.616314 0.562739 0.212690 -0.021803
C22   C     C_R   0.261944 0.361357 0.816546 -0.117609
C23   C     C_R   0.223531 0.317744 0.911541 -0.124817
C24   C     C_R   0.309087 0.380655 0.989611 -0.155715
Cu1   Cu    Cu3+1 0.362000 0.479240 0.482530 1.005284
Cu2   Cu    Cu3+1 0.638000 0.520760 0.517470 1.037246
H1    H     H_    0.769540 0.747929 0.266749 0.136012
H2    H     H_    0.375905 0.864305 0.484627 0.186168
H3    H     H_    0.302549 0.048251 0.475407 0.148059
H4    H     H_    0.858606 0.385085 0.460019 0.127546
H5    H     H_    0.109158 0.392068 0.393337 0.153800
H6    H     H_    0.691992 0.847883 0.956484 0.179186
H7    H     H_    0.771080 0.857561 0.119670 0.138930
H8    H     H_    0.459964 0.394358 0.144863 0.125388
H9    H     H_    0.272559 0.344027 0.062521 0.129303
H10   H     H_    0.127580 0.233025 0.924416 0.153336
H11   H     H_    0.624257 0.135710 0.515260 0.184665
N1    N     N_2   0.845330 0.551960 0.543750 -0.176195
N2    N     N_2   0.154690 0.448120 0.456210 -0.344081
O1    O     O_R   0.426290 0.668220 0.490680 -0.546233
O2    O     O_R   0.659360 0.703290 0.520190 -0.561327
O3    O     O_R   0.326580 0.473880 0.629020 -0.508990
O4    O     O_R   0.559660 0.508940 0.658530 -0.492024
O5    O     O_R   0.340640 0.296710 0.479810 -0.584951
O6    O     O_R   0.573710 0.331780 0.509320 -0.580108
O7    O     O_R   0.440340 0.491060 0.341470 -0.582726
O8    O     O_R   0.673420 0.526120 0.370980 -0.601028
H12   H     H_    0.697677 0.951677 0.524339 0.153280
S1    S     S_3+6 0.124258 0.600187 0.637904 0.063435
O9    O     O_2   0.077772 0.503589 0.715509 -0.242780
O10   O     O_2   0.280693 0.679764 0.645954 -0.299171
O11   O     O_3   0.041655 0.709042 0.676121 -0.433860
H13   H     H_    0.099480 0.787988 0.641656 0.331895
H14   H     H_    0.905368 0.649403 0.548662 0.250096
H15   H     H_    0.196013 0.306085 0.756387 0.162476
S2    S     S_3+6 0.748916 0.685577 0.793711 0.050879
O12   O     O_2   0.745170 0.747891 0.702254 -0.260119
O13   O     O_2   0.878276 0.773577 0.847181 -0.260265
O14   O     O_3   0.770174 0.540168 0.762110 -0.434096
H16   H     H_    0.775052 0.509034 0.826808 0.349529

loop_
_geom_bond_atom_site_label_1
_geom_bond_atom_site_label_2
_ccdc_geom_bond_type
Cu1   O3    S    
C6    H6    S    
C23   C24   A    
C13   H2    S    
C6    C7    A    
C18   O5    A    
C14   C18   S    
C9    C20   A    
C2    C4    A    
N1    H14   S    
S2    O14   S    
C4    C8    A    
S1    O11   S    
S1    O10   D    
C8    C21   A    
C19   O7    A    
O14   H16   S    
C3    C10   A    
C8    H8    S    
O11   H13   S    
C10   C22   A    
C11   C13   D    
C9    C21   A    
C11   H12   S    
C22   H15   S    
C10   C12   S    
C7    S2    S    
C20   H7    S    
Cu2   O8    S    
Cu1   O5    S    
C1    O2    A    
C19   C21   S    
S2    O13   D    
Cu2   O4    S    
C2    C3    A    
C12   O4    A    
C3    C7    A    
C13   C15   S    
Cu1   O1    S    
C2    C24   A    
C5    C6    A    
S1    O9    D    
C19   O8    A    
C24   H9    S    
C16   C17   S    
C14   H3    S    
C16   H4    S    
C18   O6    A    
S2    O12   D    
C9    H1    S    
C15   H11   S    
C23   H10   S    
C17   N2    D    
C17   S1    S    
C5    C20   A    
C14   C15   D    
Cu2   N1    S    
C12   O3    A    
C1    O1    A    
C16   N1    D    
Cu1   Cu2   S    
C22   C23   A    
Cu1   O7    S    
Cu1   N2    S    
Cu2   O2    S    
H5    N2    S    
C4    C5    A    
Cu2   O6    S    
C1    C11   S    
