data_mof_unit_37127.cif
_audit_creation_date              2012-12-11T17:30:00-0500
_audit_creation_method            fapswitch 2.2
_symmetry_space_group_name_H-M    P1
_symmetry_Int_Tables_number       1
_space_group_crystal_system       triclinic
_cell_length_a                    18.804672
_cell_length_b                    18.92277
_cell_length_c                    20.384181
_cell_angle_alpha                 107.382424
_cell_angle_beta                  106.19903
_cell_angle_gamma                 111.132712
_cell_volume                      5815.63523148

loop_
_atom_site_label
_atom_site_type_symbol
_atom_type_description
_atom_site_fract_x
_atom_site_fract_y
_atom_site_fract_z
_atom_type_partial_charge
C1    C     C_R   0.087638 0.087561 0.354469 -0.144295
C2    C     C_R   0.245119 0.069884 0.545381 -0.122666
C3    C     C_R   0.153084 0.222360 0.710494 -0.138862
C4    C     C_R   0.761031 0.926109 0.504754 -0.153893
C5    C     C_R   0.995878 0.763407 0.426881 -0.162410
C6    C     C_R   0.229794 0.272591 0.713046 0.050624
C7    C     C_R   0.943311 0.708478 0.444887 0.142621
C8    C     C_R   0.252982 0.997559 0.536117 0.069084
C9    C     C_R   0.020188 0.978480 0.725479 0.038451
C10   C     C_R   0.976301 0.596616 0.397020 -0.210900
C11   C     C_R   0.916995 0.617765 0.412997 -0.088971
C12   C     C_R   0.756556 0.994915 0.548526 0.084274
C13   C     C_R   0.839477 0.553588 0.400826 0.403758
C14   C     C_R   0.834391 0.475057 0.394205 -0.033835
C15   C     C_R   0.900084 0.458479 0.386404 -0.020658
C16   C     C_R   0.838954 0.817529 0.281149 -0.106582
C17   C     C_R   0.966701 0.516457 0.379529 -0.056032
C18   C     C_R   0.768234 0.414165 0.398875 -0.114262
C19   C     C_R   0.771999 0.343686 0.404194 -0.221155
C20   C     C_R   0.843124 0.333459 0.407361 0.112214
C21   C     C_R   0.902976 0.387052 0.391099 0.037953
C22   C     C_R   0.969482 0.372878 0.384752 0.067045
C23   C     C_R   0.756862 0.794805 0.273912 0.023164
C24   C     C_R   0.027694 0.423760 0.366375 -0.346113
C25   C     C_R   0.027315 0.496066 0.363750 0.488985
C26   C     C_R   0.858228 0.274071 0.429605 0.106403
C27   C     C_R   0.931667 0.267163 0.430856 0.000470
C28   C     C_R   0.949957 0.197273 0.521870 -0.155176
C29   C     C_R   0.981754 0.312338 0.402611 -0.225826
C30   C     C_R   0.406236 0.069770 0.623387 -0.228327
C31   C     C_R   0.329661 0.994406 0.574835 0.094710
C32   C     C_R   0.329343 0.916535 0.555238 -0.219912
C33   C     C_R   0.405301 0.914476 0.569988 0.120415
C34   C     C_R   0.964806 0.221083 0.466503 0.085333
C35   C     C_R   0.482026 0.991139 0.607734 0.026981
C36   C     C_R   0.482699 0.068757 0.638812 0.133617
C37   C     C_R   0.404730 0.837381 0.539963 -0.276788
C38   C     C_R   0.477956 0.835930 0.537980 0.142883
C39   C     C_R   0.553168 0.913175 0.568458 0.098408
C40   C     C_R   0.760919 0.811491 0.346433 -0.019607
C41   C     C_R   0.556245 0.990730 0.607365 -0.034546
C42   C     C_R   0.631276 0.068497 0.639183 0.099756
C43   C     C_R   0.634044 0.145435 0.679294 0.172922
C44   C     C_R   0.559041 0.144811 0.677859 -0.306682
C45   C     C_R   0.230485 0.228277 0.645859 -0.145309
C46   C     C_R   0.623038 0.915153 0.555835 -0.235186
C47   C     C_R   0.692978 0.992550 0.577895 0.096685
C48   C     C_R   0.698882 0.068341 0.623580 -0.249327
C49   C     C_R   0.290052 0.362134 0.766929 0.142148
C50   C     C_R   0.268391 0.409933 0.817009 -0.185658
C51   C     C_R   0.328052 0.492463 0.871597 -0.158890
C52   C     C_R   0.025558 0.200009 0.454771 -0.122266
C53   C     C_R   0.410764 0.528478 0.877047 0.223798
C54   C     C_R   0.430020 0.483137 0.823371 -0.175850
C55   C     C_R   0.370618 0.400452 0.769124 -0.179539
C56   C     C_R   0.920023 0.755326 0.492725 -0.069626
C57   C     C_R   0.616485 0.728152 0.069666 -0.160179
C58   C     C_R   0.688503 0.766446 0.138008 -0.179547
C59   C     C_R   0.535554 0.686403 0.066366 0.221144
C60   C     C_R   0.681017 0.763867 0.204007 0.136962
C61   C     C_R   0.600069 0.729406 0.201944 -0.153176
C62   C     C_R   0.528091 0.691668 0.133680 -0.172888
C63   C     C_R   0.106841 0.027650 0.235376 0.135947
C64   C     C_R   0.830395 0.066197 0.568825 -0.148842
C65   C     C_R   0.109272 0.957567 0.189023 -0.181356
C66   C     C_R   0.139059 0.961701 0.134261 -0.159575
C67   C     C_R   0.175396 0.928840 0.480748 -0.122377
C68   C     C_R   0.166667 0.036284 0.124822 0.220818
C69   C     C_R   0.171628 0.108263 0.175783 -0.165230
C70   C     C_R   0.141390 0.104041 0.230319 -0.175914
C71   C     C_R   0.168103 0.041047 0.925688 -0.157800
C72   C     C_R   0.134569 0.043929 0.857073 -0.182588
C73   C     C_R   0.129912 0.966189 0.932686 0.221465
C74   C     C_R   0.062766 0.972357 0.794494 0.141542
C75   C     C_R   0.030712 0.895583 0.799398 -0.173651
C76   C     C_R   0.018212 0.947635 0.290006 -0.139038
C77   C     C_R   0.064704 0.892623 0.867959 -0.176357
C78   C     C_R   0.033416 0.052633 0.718426 -0.122708
C79   C     C_R   0.067379 0.021159 0.287907 0.052689
C80   C     C_3   0.804820 0.265863 0.524872 -0.937373
C81   C     C_3   0.446055 0.726172 0.419619 -0.840710
C82   C     C_3   0.769246 0.239455 0.788778 -0.909168
C83   C     C_R   0.964408 0.911506 0.653473 -0.123442
H1    H     H_    0.136708 0.152279 0.377811 0.094877
H2    H     H_    0.715878 0.422754 0.403767 0.211309
H3    H     H_    0.721161 0.860332 0.488757 0.110045
H4    H     H_    0.720219 0.299241 0.408669 0.160035
H5    H     H_    0.037148 0.307966 0.401681 0.130705
H6    H     H_    0.076844 0.409963 0.358857 0.183992
H7    H     H_    0.407449 0.130155 0.643064 0.117758
H8    H     H_    0.270574 0.857438 0.521837 0.149159
H9    H     H_    0.346007 0.778279 0.512554 0.181732
H10   H     H_    0.620165 0.856473 0.523973 0.148014
H11   H     H_    0.859714 0.813789 0.236550 0.096855
H12   H     H_    0.872481 0.730820 0.511671 0.159439
H13   H     H_    0.753404 0.128155 0.642453 0.143657
H14   H     H_    0.559752 0.204255 0.703922 0.136930
H15   H     H_    0.749729 0.795289 0.138072 0.118067
H16   H     H_    0.624344 0.726996 0.018777 0.127451
H17   H     H_    0.493399 0.509847 0.827111 0.123912
H18   H     H_    0.389440 0.365579 0.731349 0.114458
H19   H     H_    0.591589 0.727202 0.251742 0.126051
H20   H     H_    0.310570 0.526308 0.911597 0.129276
H21   H     H_    0.466298 0.660092 0.132013 0.131664
H22   H     H_    0.908200 0.203862 0.546771 0.128415
H23   H     H_    0.157812 0.862682 0.459395 0.116663
H24   H     H_    0.206235 0.383462 0.815596 0.116918
H25   H     H_    0.163216 0.103177 0.854306 0.120505
H26   H     H_    0.220213 0.098594 0.974348 0.131582
H27   H     H_    0.192580 0.165955 0.169131 0.132265
H28   H     H_    0.141081 0.159384 0.265641 0.121467
H29   H     H_    0.976269 0.838885 0.751984 0.121663
H30   H     H_    0.136006 0.905258 0.096720 0.130173
H31   H     H_    0.034971 0.834578 0.872463 0.125347
H32   H     H_    0.086145 0.898631 0.193232 0.122748
H33   H     H_    0.709853 0.803685 0.362859 0.088471
H34   H     H_    0.074045 0.116675 0.762831 0.097963
H35   H     H_    0.050669 0.205925 0.414127 0.097672
H36   H     H_    0.855089 0.129430 0.612059 0.094262
H37   H     H_    0.001595 0.883987 0.253362 0.095324
H38   H     H_    0.272961 0.253950 0.622569 0.092681
H39   H     H_    0.674864 0.466540 0.270660 0.342243
H40   H     H_    0.794060 0.163439 0.437516 0.174773
H41   H     H_    0.769476 0.218349 0.541278 0.247500
H42   H     H_    0.775990 0.307477 0.524169 0.261601
H43   H     H_    0.871439 0.305565 0.569155 0.248775
H44   H     H_    0.201953 0.627042 0.460236 0.328184
H45   H     H_    0.942813 0.845050 0.637195 0.097137
H46   H     H_    0.440163 0.711134 0.514496 0.181481
H47   H     H_    0.379340 0.711762 0.391390 0.274996
H48   H     H_    0.450027 0.667408 0.396184 0.256865
H49   H     H_    0.486894 0.773890 0.406532 0.240726
H50   H     H_    0.701459 0.275504 0.719544 0.173295
H51   H     H_    0.741450 0.244854 0.830349 0.257779
H52   H     H_    0.828561 0.299514 0.811581 0.251006
H53   H     H_    0.785336 0.187506 0.782070 0.257204
H54   H     H_    0.292677 0.134559 0.583984 0.095376
H55   H     H_    0.125370 0.241732 0.747503 0.089779
H56   H     H_    0.014826 0.746493 0.381594 0.130718
H57   H     H_    0.034454 0.645292 0.404603 0.208006
N1    N     N_R   0.052570 0.055840 0.395080 -0.040445
N2    N     N_2   0.462856 0.626432 0.996752 -0.101212
N3    N     N_2   0.174216 0.037500 0.057876 -0.099748
N4    N     N_R   0.834730 0.954500 0.499860 -0.046148
N5    N     N_2   0.142493 0.965800 0.004384 -0.102557
N6    N     N_R   0.890190 0.849120 0.355200 -0.042152
N7    N     N_R   0.997110 0.161210 0.539740 -0.041258
N8    N     N_R   0.841940 0.845190 0.395070 -0.036969
N9    N     N_R   0.045360 0.165140 0.499870 -0.041655
N10   N     N_R   0.877490 0.041590 0.539730 -0.041988
N11   N     N_R   0.009810 0.968740 0.355210 -0.041700
N12   N     N_R   0.954640 0.834860 0.500130 -0.056160
N13   N     N_R   0.158060 0.154810 0.604930 -0.038115
N14   N     N_2   0.800504 0.223039 0.450462 -0.111925
N15   N     N_2   0.473939 0.756818 0.501191 -0.117969
N16   N     N_2   0.710417 0.224093 0.716255 -0.118261
N17   N     N_R   0.122510 0.958410 0.460270 -0.042895
N18   N     N_R   0.990190 0.031260 0.644790 -0.041171
N19   N     N_R   0.947430 0.944160 0.604920 -0.041104
N20   N     N_R   0.165270 0.045500 0.500140 -0.042238
N21   N     N_R   0.109810 0.150880 0.644800 -0.038580
N22   N     N_R   0.002890 0.838790 0.460260 -0.049297
N23   N     N_2   0.479528 0.602130 0.941863 -0.101884
Ni1   Ni    Ni4+2 0.104370 0.104380 0.500010 0.211090
Ni2   Ni    Ni4+2 0.895630 0.895620 0.499990 0.252469
Ni3   Ni    Ni4+2 0.006290 0.904630 0.408560 0.226027
Ni4   Ni    Ni4+2 0.993710 0.095370 0.591440 0.208581
O1    O     O_2   0.736345 0.586997 0.457658 -0.293254
O2    O     O_2   0.756758 0.637815 0.363379 -0.302829
O3    O     O_3   0.661836 0.477960 0.315340 -0.509234
O4    O     O_2   0.147036 0.514069 0.311447 -0.280378
O5    O     O_2   0.065228 0.586480 0.287328 -0.258681
O6    O     O_3   0.179684 0.648210 0.424850 -0.561850
S1    S     S_3+6 0.748314 0.567383 0.385726 -0.059817
S2    S     S_3+6 0.105569 0.560709 0.343928 -0.045845

loop_
_geom_bond_atom_site_label_1
_geom_bond_atom_site_label_2
_ccdc_geom_bond_type
H44   O6    S    
C56   H12   S    
C66   C68   A    
C63   C65   A    
C66   H30   S    
C27   C29   A    
H50   N16   S    
C41   C42   A    
C14   C18   A    
C35   C36   A    
C58   H15   S    
C76   C79   A    
C83   H45   S    
C30   H7    S    
C3    C6    A    
C40   H33   S    
C24   H6    S    
N12   Ni2   S    
C57   C58   A    
C39   C41   A    
C63   C79   S    
C53   C54   A    
C1    H1    S    
O1    S1    D    
C26   C27   A    
C76   H37   S    
C64   H36   S    
C80   H43   S    
C38   N15   S    
C22   C29   A    
C3    H55   S    
C19   H4    S    
O3    S1    S    
C30   C31   A    
C12   C64   A    
C57   C59   A    
C32   H8    S    
C4    H3    S    
C80   H42   S    
C10   C17   A    
C51   H20   S    
C23   C40   A    
C57   H16   S    
N1    Ni1   S    
C68   N3    S    
C16   N6    A    
C18   C19   A    
C44   H14   S    
C82   H52   S    
C29   H5    S    
N4    N10   A    
N22   Ni3   S    
C78   N18   A    
C72   H25   S    
C59   N2    S    
C52   N9    A    
H39   O3    S    
H46   N15   S    
O2    S1    D    
C4    C12   A    
C62   H21   S    
C61   C62   A    
O5    S2    D    
C82   N16   S    
N6    Ni3   S    
C28   C34   A    
C13   C14   A    
N8    Ni2   S    
C65   H32   S    
C54   H17   S    
C13   S1    S    
C10   H57   S    
C7    C56   A    
C12   C47   S    
C36   C44   A    
N18   Ni4   S    
C5    H56   S    
N6    N8    A    
O6    S2    S    
C27   C34   S    
C23   C60   S    
C18   H2    S    
C74   C75   A    
C40   N8    A    
C6    C45   A    
C78   H34   S    
C1    N1    A    
C24   C25   A    
C72   C74   A    
C10   C11   A    
N2    N23   D    
C71   C73   A    
C53   N23   S    
C81   H49   S    
N13   Ni1   S    
C76   N11   A    
C45   H38   S    
C49   C55   A    
O4    S2    D    
C33   C37   A    
N19   Ni2   S    
C73   N5    S    
C60   C61   A    
C51   C53   A    
N18   N19   A    
C82   H51   S    
C7    C11   S    
C43   C44   A    
C37   C38   A    
C69   H27   S    
C25   S2    S    
C47   C48   A    
C63   C70   A    
C28   H22   S    
C50   C51   A    
C75   H29   S    
C67   N17   A    
N9    Ni1   S    
C42   C48   A    
C80   N14   S    
C75   C77   A    
N21   Ni4   S    
N7    Ni4   S    
C9    C83   A    
C39   C46   A    
C49   C50   A    
C16   C23   A    
C50   H24   S    
C1    C79   A    
C22   C24   A    
C26   N14   S    
C45   N13   A    
C42   C43   A    
C43   N16   S    
N20   Ni1   S    
N1    N11   A    
C5    C7    A    
C80   H41   S    
N3    N5    D    
C54   C55   A    
C59   C62   A    
C48   H13   S    
C37   H9    S    
N7    N9    A    
C8    C31   S    
C16   H11   S    
C68   C69   A    
C31   C32   A    
C2    C8    A    
N17   Ni3   S    
C4    N4    A    
C67   H23   S    
C15   C17   A    
N17   N20   A    
C2    H54   S    
N11   Ni3   S    
C55   H18   S    
C34   C52   A    
C81   N15   S    
C30   C36   A    
N4    Ni2   S    
C17   C25   A    
C5    N22   A    
C19   C20   A    
C61   H19   S    
C71   C72   A    
C32   C33   A    
C11   C13   A    
C81   H47   S    
C38   C39   A    
C46   H10   S    
C20   C26   A    
N13   N21   A    
N10   Ni4   S    
C71   H26   S    
C33   C35   A    
C9    C78   A    
C6    C49   S    
C82   H53   S    
C69   C70   A    
C35   C41   A    
C46   C47   A    
C81   H48   S    
C70   H28   S    
C3    N21   A    
C15   C21   A    
C83   N19   A    
C20   C21   A    
C8    C67   A    
C2    N20   A    
C65   C66   A    
C9    C74   S    
C64   N10   A    
C73   C77   A    
C14   C15   A    
C56   N12   A    
C21   C22   A    
C58   C60   A    
N12   N22   A    
C77   H31   S    
C28   N7    A    
H40   N14   S    
C52   H35   S    
