data_mof_unit_59854.cif
_audit_creation_date              2013-03-05T16:11:21-0500
_audit_creation_method            fapswitch 2.2
_symmetry_space_group_name_H-M    P1
_symmetry_Int_Tables_number       1
_space_group_crystal_system       triclinic
_cell_length_a                    10.713707
_cell_length_b                    9.906684
_cell_length_c                    10.65162
_cell_angle_alpha                 89.775703
_cell_angle_beta                  91.510411
_cell_angle_gamma                 89.910471
_cell_volume                      1130.13126025

loop_
_atom_site_label
_atom_site_type_symbol
_atom_site_description
_atom_site_fract_x
_atom_site_fract_y
_atom_site_fract_z
_atom_type_partial_charge
O1    O     O_R   0.316750 0.614620 0.499990 -0.595314
O2    O     O_R   0.316750 0.385380 0.499990 -0.587553
C1    C     C_R   0.260172 0.499986 0.504860 0.896148
O3    O     O_R   0.499970 0.614670 0.314790 -0.575698
O4    O     O_R   0.499970 0.385330 0.314790 -0.605411
C2    C     C_R   0.498756 0.500040 0.257506 0.867589
Zn1   Zn    Zn3+2 0.499980 0.653120 0.500000 0.992305
Zn2   Zn    Zn3+2 0.499980 0.346880 0.500000 0.987002
O5    O     O_R   0.683220 0.614710 0.500010 -0.630732
O6    O     O_R   0.683220 0.385290 0.500010 -0.628538
O7    O     O_R   0.500010 0.614660 0.685200 -0.632383
O8    O     O_R   0.500010 0.385340 0.685200 -0.635000
C3    C     C_R   0.739945 0.499902 0.503074 0.855618
C4    C     C_R   0.499537 0.499564 0.742066 0.813229
C5    C     C_3   0.394978 0.594746 0.067184 -0.328948
C6    C     C_3   0.473771 0.354947 0.070399 -0.332898
H1    H     H_    0.416839 0.700649 0.093429 0.238943
H2    H     H_    0.542846 0.281574 0.110836 0.208185
H3    H     H_    0.302596 0.567737 0.105540 0.191629
H4    H     H_    0.378572 0.322979 0.096946 0.233437
C7    C     C_3   0.389315 0.586637 0.923515 -0.429670
C8    C     C_3   0.481649 0.352723 0.928229 -0.396307
H5    H     H_    0.298571 0.542165 0.891612 0.168237
H6    H     H_    0.394874 0.306848 0.887409 0.188830
H7    H     H_    0.394077 0.690562 0.883766 0.197656
H8    H     H_    0.561820 0.288166 0.901327 0.185340
H9    H     H_    0.648916 0.650672 0.113469 0.188354
H10   H     H_    0.701835 0.478684 0.108565 0.173463
H11   H     H_    0.636459 0.661830 0.899597 0.182823
H12   H     H_    0.704006 0.495908 0.894341 0.159059
C9    C     C_3   0.626816 0.548921 0.074934 -0.405938
C10   C     C_3   0.498629 0.499666 0.120607 0.092809
C11   C     C_3   0.498804 0.498611 0.878180 0.170202
C12   C     C_3   0.624437 0.555293 0.930622 -0.391800
C13   C     C_R   0.064479 0.377159 0.524866 -0.132813
C14   C     C_R   0.063917 0.622636 0.516299 -0.149318
H13   H     H_    0.112982 0.281541 0.532482 0.203235
H14   H     H_    0.112070 0.718123 0.517134 0.214025
C15   C     C_R   0.936496 0.376998 0.522002 -0.188723
C16   C     C_R   0.936102 0.622860 0.513501 -0.184679
H15   H     H_    0.888179 0.281109 0.525681 0.167104
H16   H     H_    0.887650 0.718958 0.510305 0.170961
C17   C     C_R   0.872586 0.499829 0.512331 -0.034340
C18   C     C_R   0.127890 0.499855 0.515822 -0.056208
C19   C     C_R   0.584208 0.071236 0.572567 -0.160508
C20   C     C_R   0.586263 0.927820 0.570061 -0.158476
H17   H     H_    0.651753 0.124780 0.630839 0.157219
H18   H     H_    0.655596 0.873563 0.626143 0.157764
N1    N     N_R   0.499970 0.857200 0.499970 -0.151490
N2    N     N_R   0.499970 0.142800 0.499970 -0.156099
C21   C     C_R   0.411034 0.929396 0.432823 0.295312
C22   C     C_R   0.417113 0.072227 0.425643 0.302772
N3    N     N_R   0.304922 0.863719 0.376306 0.232790
O9    O     O_R   0.318806 0.784580 0.281211 -0.388647
O10   O     O_R   0.193804 0.909930 0.397711 -0.398630
N4    N     N_R   0.345717 0.139297 0.328792 0.235302
O11   O     O_R   0.237957 0.190984 0.354406 -0.370418
O12   O     O_R   0.365957 0.105996 0.213123 -0.420804

loop_
_geom_bond_atom_site_label_1
_geom_bond_atom_site_label_2
_geom_bond_distance
_ccdc_geom_bond_type
O4    Zn2   2.007756 S    
C13   C15   1.370718 A    
N1    C21   1.374383 A    
C5    H1    1.110555 S    
O2    C1    1.288076 A    
C6    C10   1.553083 S    
C2    C10   1.458185 S    
C9    C10   1.548014 S    
C5    C7    1.532335 S    
C3    C17   1.421900 S    
Zn2   O8    2.010594 S    
C16   C17   1.396796 A    
C4    C11   1.450059 S    
C14   H14   1.078159 S    
C11   C12   1.550560 S    
C9    C12   1.537752 S    
C19   C20   1.421278 A    
C5    C10   1.550305 S    
C15   H15   1.083603 S    
N3    O9    1.294830 A    
Zn1   O7    2.007665 S    
C13   C18   1.397645 A    
C20   N1    1.367954 A    
C19   N2    1.368211 A    
O3    Zn1   2.010685 S    
C16   H16   1.083621 S    
C6    H4    1.111764 S    
C13   H13   1.081453 S    
N4    O12   1.300337 A    
C5    H3    1.113292 S    
C20   H18   1.081839 S    
N3    O10   1.300865 A    
C7    H5    1.113483 S    
C15   C17   1.397448 A    
O4    C2    1.287623 A    
Zn2   O6    2.000297 S    
O7    C4    1.289103 A    
C8    H6    1.114204 S    
C1    C18   1.425096 S    
C14   C18   1.395315 A    
O3    C2    1.291168 A    
C7    C11   1.549065 S    
H12   C12   1.113439 S    
H9    C9    1.113323 S    
C21   C22   1.418437 A    
Zn2   N2    2.021758 S    
C14   C16   1.368910 A    
O5    C3    1.288606 A    
N4    O11   1.298213 A    
Zn1   N1    2.021755 S    
C6    H2    1.113836 S    
C8    H8    1.114265 S    
C19   H17   1.081861 S    
N2    C22   1.368516 A    
Zn1   O5    1.999130 S    
C8    C11   1.551365 S    
C7    H7    1.113442 S    
C6    C8    1.519152 S    
C21   N3    1.430896 S    
O1    Zn1   2.000364 S    
H11   C12   1.113397 S    
H10   C9    1.113358 S    
O2    Zn2   1.999193 S    
C22   N4    1.429078 S    
O8    C4    1.285653 A    
O1    C1    1.289636 A    
O6    C3    1.288798 A    
