data_mof_unit_49008.cif
_audit_creation_date              2013-03-05T16:35:53-0500
_audit_creation_method            fapswitch 2.2
_symmetry_space_group_name_H-M    P1
_symmetry_Int_Tables_number       1
_space_group_crystal_system       triclinic
_cell_length_a                    23.489102
_cell_length_b                    9.086194
_cell_length_c                    7.787571
_cell_angle_alpha                 90.343466
_cell_angle_beta                  89.832745
_cell_angle_gamma                 89.958914
_cell_volume                      1662.0369218

loop_
_atom_site_label
_atom_site_type_symbol
_atom_site_description
_atom_site_fract_x
_atom_site_fract_y
_atom_site_fract_z
_atom_type_partial_charge
O1    O     O_R   0.500000 0.288390 0.642760 -0.580716
O2    O     O_R   0.500000 0.711610 0.357240 -0.582829
O3    O     O_R   0.500000 0.711610 0.642760 -0.575541
O4    O     O_R   0.500000 0.288390 0.357240 -0.575185
H1    H     H_    0.950398 0.394867 0.094836 0.194410
H2    H     H_    0.049542 0.635193 0.922141 0.197360
H3    H     H_    0.946026 0.627060 0.920874 0.197206
H4    H     H_    0.053972 0.391759 0.099638 0.188100
C1    C     C_R   0.499866 0.220031 0.499685 0.828199
C2    C     C_R   0.500135 0.779969 0.500315 0.826428
O5    O     O_R   0.417880 0.500000 0.642820 -0.579064
O6    O     O_R   0.582120 0.500000 0.357180 -0.578448
O7    O     O_R   0.582120 0.500000 0.642820 -0.577364
O8    O     O_R   0.417880 0.500000 0.357180 -0.576867
C3    C     C_R   0.209236 0.513205 0.516824 0.116869
C4    C     C_R   0.790776 0.506541 0.503430 0.118923
C5    C     C_R   0.390912 0.501351 0.500340 0.863247
C6    C     C_R   0.609063 0.500098 0.499768 0.867092
Cu1   Cu    Cu3+1 0.500000 0.500000 0.669080 1.000484
Cu2   Cu    Cu3+1 0.500000 0.500000 0.330920 1.000334
C7    C     C_R   0.299226 0.635625 0.456174 -0.014053
C8    C     C_R   0.702110 0.368827 0.523894 -0.003207
C9    C     C_R   0.298029 0.378049 0.551035 0.005158
C10   C     C_R   0.700480 0.635631 0.473645 -0.002665
C11   C     C_R   0.328519 0.505383 0.502125 -0.159102
C12   C     C_R   0.671419 0.501201 0.499514 -0.155827
C13   C     C_R   0.879766 0.540246 0.655179 0.600426
C14   C     C_R   0.120567 0.471385 0.367908 0.641138
C15   C     C_R   0.881209 0.478147 0.356702 0.588664
C16   C     C_R   0.118953 0.557344 0.658647 0.522335
N1    N     N_R   0.851924 0.508798 0.505087 -0.411966
N2    N     N_R   0.148187 0.514292 0.514454 -0.415990
C17   C     C_R   0.940890 0.472655 0.357257 -0.032097
C18   C     C_R   0.059270 0.556767 0.659866 -0.018689
C19   C     C_R   0.939347 0.549223 0.657821 -0.030379
C20   C     C_R   0.060884 0.470199 0.362574 -0.038448
C21   C     C_R   0.970083 0.511737 0.508384 -0.008591
C22   C     C_R   0.030137 0.512914 0.510262 -0.008433
C23   C     C_R   0.971926 0.429072 0.211152 -0.182131
C24   C     C_R   0.028149 0.599074 0.806340 -0.180234
C25   C     C_R   0.968786 0.594145 0.805760 -0.181746
C26   C     C_R   0.031326 0.426897 0.214110 -0.175315
C27   C     C_1   0.499959 0.065382 0.499564 -0.176179
C28   C     C_1   0.500055 0.934616 0.500429 -0.175962
C29   C     C_R   0.239398 0.638836 0.464858 0.466549
C30   C     C_R   0.761990 0.371760 0.517207 0.457645
C31   C     C_R   0.238149 0.384095 0.563442 0.469026
C32   C     C_R   0.760372 0.638874 0.487051 0.467258
N3    N     N_1   0.500000 0.500000 0.076820 -0.043794
N4    N     N_1   0.500000 0.500000 0.923180 -0.043901
O9    O     O_2   0.849972 0.561130 0.801586 -0.528593
O10   O     O_2   0.150831 0.430234 0.228062 -0.527500
O11   O     O_2   0.852686 0.453482 0.209238 -0.528449
O12   O     O_2   0.147614 0.601075 0.799967 -0.551903
O13   O     O_3   0.210068 0.760108 0.404413 -0.559081
C33   C     C_3   0.199411 0.859551 0.540901 -0.234161
H5    H     H_    0.199147 0.972661 0.488300 0.223750
H6    H     H_    0.231924 0.857047 0.645016 0.145275
H7    H     H_    0.156615 0.838966 0.595998 0.191302
O14   O     O_3   0.793181 0.243528 0.535373 -0.577899
C34   C     C_3   0.798539 0.171754 0.374226 -0.249728
H8    H     H_    0.782522 0.235263 0.261888 0.180203
H9    H     H_    0.775155 0.065999 0.377587 0.189354
H10   H     H_    0.844182 0.146543 0.351120 0.199311
O15   O     O_3   0.206957 0.259412 0.602284 -0.592640
C35   C     C_3   0.203538 0.245046 0.782368 -0.285600
H11   H     H_    0.175585 0.330924 0.839139 0.229156
H12   H     H_    0.246088 0.248299 0.844819 0.176078
H13   H     H_    0.184217 0.136738 0.811997 0.183652
O16   O     O_3   0.790413 0.769515 0.475499 -0.580682
C36   C     C_3   0.786459 0.846555 0.633584 -0.269552
H14   H     H_    0.786061 0.773793 0.747966 0.198618
H15   H     H_    0.747888 0.916974 0.637010 0.171534
H16   H     H_    0.823992 0.919893 0.645543 0.212174
C37   C     C_3   0.330010 0.772583 0.396125 -0.736218
H17   H     H_    0.320801 0.865621 0.484815 0.216101
H18   H     H_    0.376827 0.760437 0.390496 0.209244
H19   H     H_    0.315237 0.801936 0.265412 0.258472
C38   C     C_3   0.672608 0.223056 0.553862 -0.768507
H20   H     H_    0.679221 0.149640 0.441289 0.217165
H21   H     H_    0.690471 0.169830 0.669864 0.246775
H22   H     H_    0.626128 0.233496 0.574421 0.211153
C39   C     C_3   0.329437 0.235034 0.582283 -0.798817
H23   H     H_    0.300436 0.140484 0.602681 0.251325
H24   H     H_    0.356389 0.207516 0.469139 0.218228
H25   H     H_    0.356955 0.246341 0.697234 0.231380
C40   C     C_3   0.667539 0.773784 0.430586 -0.803037
H26   H     H_    0.695595 0.865978 0.392318 0.248061
H27   H     H_    0.639074 0.752571 0.319673 0.238175
H28   H     H_    0.641474 0.808679 0.542846 0.213753

loop_
_geom_bond_atom_site_label_1
_geom_bond_atom_site_label_2
_geom_bond_distance
_ccdc_geom_bond_type
C35   H12   1.113130 S    
O13   C33   1.412607 S    
C20   C26   1.404713 A    
Cu1   Cu2   2.633446 S    
C6    C12   1.464726 S    
C3    C31   1.405229 A    
C40   H26   1.107915 S    
C4    C32   1.404709 A    
C3    N2    1.434175 S    
C4    N1    1.436572 S    
C16   O12   1.349732 S    
O5    Cu1   1.940331 S    
C17   C23   1.404350 A    
C9    C39   1.515107 S    
O7    C6    1.279634 A    
C18   C24   1.404549 A    
C32   O16   1.384621 S    
C19   C21   1.407670 A    
C21   C22   1.410778 A    
H4    C26   1.083126 S    
C8    C38   1.514291 S    
C35   H13   1.109240 S    
C15   C17   1.402723 A    
C33   H5    1.108668 S    
C34   H9    1.107568 S    
O2    Cu2   1.932402 S    
O3    Cu1   1.934845 S    
O16   C36   1.415325 S    
C39   H24   1.110665 S    
C9    C11   1.414735 A    
C35   H11   1.108550 S    
O8    C5    1.280647 A    
C37   H19   1.110369 S    
C13   O9    1.348430 S    
C23   C26   1.395645 A    
C7    C29   1.406990 A    
C1    C27   1.405169 S    
O1    Cu1   1.932403 S    
C16   C18   1.401911 A    
C13   N1    1.369761 A    
C10   C32   1.411288 A    
O8    Cu2   1.939144 S    
C14   N2    1.369187 A    
O1    C1    1.272391 A    
C4    C30   1.403860 A    
C36   H15   1.108931 S    
O7    Cu1   1.939142 S    
C13   C19   1.402155 A    
C2    C28   1.405149 S    
C17   C21   1.407643 A    
O14   C34   1.416036 S    
C34   H10   1.110081 S    
C37   H17   1.109197 S    
Cu2   N3    1.978821 S    
C38   H22   1.106906 S    
C39   H23   1.108679 S    
O6    Cu2   1.940329 S    
C37   H18   1.105859 S    
C29   O13   1.384713 S    
C24   C25   1.395150 A    
C8    C30   1.407600 A    
O15   C35   1.411318 S    
C40   H27   1.109876 S    
C27   C28   1.188225 T    
H2    C24   1.082962 S    
C3    C29   1.404918 A    
O2    C2    1.272395 A    
C38   H21   1.110492 S    
H1    C23   1.082739 S    
C7    C11   1.416785 A    
O5    C5    1.279386 A    
C30   O14   1.384099 S    
C18   C22   1.408504 A    
C10   C12   1.414872 A    
C36   H16   1.109295 S    
C7    C37   1.515405 S    
C33   H7    1.108286 S    
C5    C11   1.466006 S    
C9    C31   1.410560 A    
C20   C22   1.408705 A    
C36   H14   1.112500 S    
C15   N1    1.370136 A    
O3    C2    1.274593 A    
C16   N2    1.369437 A    
C14   O10   1.349602 S    
Cu1   N4    1.978821 S    
C15   O11   1.348896 S    
C33   H6    1.115781 S    
H3    C25   1.082891 S    
C34   H8    1.116943 S    
C19   C25   1.404094 A    
C10   C40   1.513956 S    
C38   H20   1.108918 S    
O4    Cu2   1.934846 S    
C39   H25   1.109993 S    
C14   C20   1.402684 A    
N3    N4    1.196483 T    
C8    C12   1.415882 A    
C40   H28   1.110376 S    
O6    C6    1.279699 A    
O4    C1    1.274593 A    
C31   O15   1.384111 S    
