data_mof_unit_33116.cif
_audit_creation_date              2012-12-11T17:44:02-0500
_audit_creation_method            fapswitch 2.2
_symmetry_space_group_name_H-M    P1
_symmetry_Int_Tables_number       1
_space_group_crystal_system       triclinic
_cell_length_a                    20.496575
_cell_length_b                    22.622016
_cell_length_c                    6.943514
_cell_angle_alpha                 89.999984
_cell_angle_beta                  86.083706
_cell_angle_gamma                 90.0
_cell_volume                      3212.00792463

loop_
_atom_site_label
_atom_site_type_symbol
_atom_type_description
_atom_site_fract_x
_atom_site_fract_y
_atom_site_fract_z
_atom_type_partial_charge
O1    O     O_R   0.751270 0.447300 0.600030 -0.549399
O2    O     O_R   0.248730 0.947300 0.399970 -0.549398
O3    O     O_R   0.613530 0.440160 0.952150 -0.528093
O4    O     O_R   0.386470 0.940160 0.047850 -0.528093
O5    O     O_R   0.613050 0.552700 0.122560 -0.506392
O6    O     O_R   0.386950 0.052700 0.877440 -0.506393
C1    C     C_R   0.591748 0.425683 0.789235 0.807255
C2    C     C_R   0.408252 0.925683 0.210765 0.807256
O7    O     O_R   0.750780 0.440350 0.929820 -0.556520
O8    O     O_R   0.249220 0.940350 0.070180 -0.556520
O9    O     O_R   0.751280 0.552900 0.100070 -0.533327
O10   O     O_R   0.248720 0.052900 0.899930 -0.533327
C3    C     C_R   0.773077 0.425314 0.756870 0.706081
C4    C     C_R   0.226922 0.925314 0.243130 0.706079
O11   O     O_R   0.613040 0.447100 0.622520 -0.546024
O12   O     O_R   0.386960 0.947100 0.377480 -0.546024
O13   O     O_3   0.682160 0.536920 0.777780 -0.348519
O14   O     O_3   0.317840 0.036920 0.222220 -0.348519
V1    V     V_3+5 0.682160 0.493150 0.052630 1.530801
V2    V     V_3+5 0.317840 0.993150 0.947370 1.530800
O15   O     O_R   0.750790 0.559840 0.429870 -0.504518
O16   O     O_R   0.249210 0.059840 0.570130 -0.504518
C5    C     C_R   0.776776 0.570861 0.257827 0.770234
C6    C     C_R   0.223224 0.070861 0.742173 0.770233
O17   O     O_R   0.613540 0.559650 0.452200 -0.553983
O18   O     O_R   0.386460 0.059650 0.547800 -0.553983
C7    C     C_R   0.592739 0.575576 0.287979 0.816623
C8    C     C_R   0.407261 0.075576 0.712021 0.816622
V3    V     V_3+5 0.682160 0.506850 0.552630 1.527254
V4    V     V_3+5 0.317840 0.006850 0.447370 1.527253
O19   O     O_3   0.682150 0.463080 0.277610 -0.391177
O20   O     O_3   0.317850 0.963080 0.722390 -0.391177
C9    C     C_R   0.556078 0.850609 0.992095 0.570725
C10   C     C_R   0.443923 0.350609 0.007908 0.570725
H1    H     H_    0.631757 0.761218 0.894159 0.181768
H2    H     H_    0.368244 0.261217 0.105846 0.181767
C11   C     C_R   0.461639 0.882427 0.192792 -0.293032
C12   C     C_R   0.538361 0.382427 0.807208 -0.293032
C13   C     C_R   0.480966 0.600923 0.404038 -0.219156
C14   C     C_R   0.519033 0.100923 0.595959 -0.219156
C15   C     C_R   0.427293 0.638156 0.427887 -0.158698
C16   C     C_R   0.572707 0.138156 0.572110 -0.158697
C17   C     C_R   0.429818 0.695393 0.354661 0.615345
C18   C     C_R   0.570181 0.195393 0.645336 0.615346
C19   C     C_R   0.487802 0.717343 0.256410 -0.032296
C20   C     C_R   0.512198 0.217343 0.743589 -0.032296
C21   C     C_R   0.541604 0.677074 0.217778 -0.098432
C22   C     C_R   0.458397 0.177074 0.782222 -0.098433
C23   C     C_R   0.494758 0.777839 0.195021 0.040271
C24   C     C_R   0.505242 0.277839 0.804979 0.040271
C25   C     C_R   0.547211 0.792557 0.059763 -0.160318
C26   C     C_R   0.452790 0.292556 0.940239 -0.160318
C27   C     C_R   0.593217 0.750188 0.001509 -0.175650
C28   C     C_R   0.406784 0.250188 0.998494 -0.175650
C29   C     C_R   0.596841 0.697221 0.102505 0.390846
C30   C     C_R   0.403159 0.197221 0.897497 0.390847
C31   C     C_R   0.452845 0.824569 0.263987 -0.240621
C32   C     C_R   0.547155 0.324569 0.736012 -0.240621
C33   C     C_R   0.513879 0.894989 0.058625 0.558026
C34   C     C_R   0.486121 0.394989 0.941377 0.558026
C35   C     C_R   0.538061 0.618750 0.297775 -0.095379
C36   C     C_R   0.461939 0.118750 0.702225 -0.095378
H3    H     H_    0.413148 0.817720 0.371354 0.220527
H4    H     H_    0.586851 0.317720 0.628644 0.220527
H5    H     H_    0.477386 0.556963 0.466075 0.169886
H6    H     H_    0.522613 0.056963 0.533922 0.169885
H7    H     H_    0.382782 0.622218 0.503510 0.158368
H8    H     H_    0.617217 0.122218 0.496484 0.158368
C37   C     C_R   0.175029 0.878735 0.260969 -0.088573
C38   C     C_R   0.824971 0.378735 0.739031 -0.088574
C39   C     C_R   0.156255 0.848082 0.096906 -0.272607
C40   C     C_R   0.843745 0.348082 0.903094 -0.272605
C41   C     C_R   0.109888 0.802038 0.112255 0.425743
C42   C     C_R   0.890112 0.302038 0.887745 0.425743
C43   C     C_R   0.077651 0.788488 0.294989 0.302606
C44   C     C_R   0.922349 0.288488 0.705011 0.302605
C45   C     C_R   0.096730 0.819276 0.457329 -0.258509
C46   C     C_R   0.903270 0.319276 0.542671 -0.258509
C47   C     C_R   0.144844 0.863324 0.441632 -0.196065
C48   C     C_R   0.855156 0.363324 0.558368 -0.196063
C49   C     C_R   0.912384 0.678035 0.393701 0.335816
C50   C     C_R   0.087616 0.178036 0.606299 0.335815
C51   C     C_R   0.858723 0.638410 0.408722 0.463037
C52   C     C_R   0.141277 0.138410 0.591278 0.463037
C53   C     C_R   0.947858 0.686136 0.212180 0.251638
C54   C     C_R   0.052142 0.186137 0.787821 0.251636
N1    N     N_2   0.026584 0.745341 0.325969 -0.234553
N2    N     N_2   0.973416 0.245341 0.674031 -0.234554
N3    N     N_2   0.001112 0.727089 0.178628 -0.240174
N4    N     N_2   0.998889 0.227090 0.821372 -0.240175
C55   C     C_R   0.836499 0.609695 0.243996 -0.226659
C56   C     C_R   0.163501 0.109696 0.756004 -0.226660
H9    H     H_    0.073566 0.809260 0.598120 0.195591
H10   H     H_    0.926434 0.309260 0.401880 0.195591
H11   H     H_    0.157954 0.885633 0.571471 0.146261
H12   H     H_    0.842046 0.385633 0.428529 0.146261
C57   C     C_R   0.873048 0.617291 0.067319 -0.274475
C58   C     C_R   0.126953 0.117292 0.932681 -0.274474
C59   C     C_R   0.927503 0.654899 0.052296 -0.247711
C60   C     C_R   0.072498 0.154900 0.947704 -0.247710
H13   H     H_    0.859023 0.594643 0.939214 0.229915
H14   H     H_    0.140978 0.094644 0.060786 0.229916
H15   H     H_    0.954156 0.660075 0.913332 0.208275
H16   H     H_    0.045845 0.160077 0.086669 0.208276
H17   H     H_    0.178599 0.858850 0.955401 0.141765
H18   H     H_    0.821401 0.358850 0.044600 0.141766
F1    F     F_    0.522431 0.950466 0.986016 -0.652494
F2    F     F_    0.477570 0.450465 0.013987 -0.652494
O21   O     O_3   0.933553 0.704457 0.558743 -0.547308
C61   C     C_3   0.887826 0.746926 0.634381 0.127786
H19   H     H_    0.890911 0.747774 0.793007 0.152829
H20   H     H_    0.836028 0.736140 0.610220 0.134812
C62   C     C_3   0.905352 0.808671 0.556332 -0.350156
H21   H     H_    0.953813 0.821844 0.604459 0.219221
H22   H     H_    0.908415 0.808245 0.396106 0.214900
C63   C     C_3   0.854605 0.854394 0.627857 -0.792198
H23   H     H_    0.805554 0.842295 0.581377 0.245042
H24   H     H_    0.868285 0.898362 0.566570 0.242616
H25   H     H_    0.852440 0.857487 0.787708 0.238191
O22   O     O_3   0.066447 0.204458 0.441257 -0.547308
C64   C     C_3   0.112175 0.246927 0.365621 0.127784
H26   H     H_    0.109091 0.247775 0.206995 0.152830
H27   H     H_    0.163972 0.236141 0.389784 0.134811
C65   C     C_3   0.094649 0.308672 0.443671 -0.350154
H28   H     H_    0.046187 0.321845 0.395544 0.219221
H29   H     H_    0.091585 0.308246 0.603897 0.214901
C66   C     C_3   0.145395 0.354396 0.372148 -0.792200
H30   H     H_    0.194446 0.342296 0.418627 0.245042
H31   H     H_    0.131715 0.398363 0.433436 0.242616
H32   H     H_    0.147560 0.357489 0.212297 0.238190
O23   O     O_3   0.095072 0.772787 0.945920 -0.571004
C67   C     C_3   0.131985 0.719927 0.926181 0.094833
H33   H     H_    0.103272 0.688206 0.843755 0.165435
H34   H     H_    0.139823 0.698189 0.067183 0.121987
C68   C     C_3   0.197718 0.730946 0.812614 -0.350610
H35   H     H_    0.189375 0.754079 0.675376 0.221013
H36   H     H_    0.229103 0.759304 0.898435 0.200928
C69   C     C_3   0.233803 0.673130 0.766515 -0.740294
H37   H     H_    0.243359 0.649438 0.901870 0.234884
H38   H     H_    0.281334 0.682710 0.686178 0.264853
H39   H     H_    0.204481 0.644380 0.675661 0.227538
O24   O     O_3   0.904929 0.272787 0.054080 -0.571004
C70   C     C_3   0.868018 0.219926 0.073818 0.094832
H40   H     H_    0.896731 0.188206 0.156244 0.165436
H41   H     H_    0.860180 0.198188 0.932815 0.121987
C71   C     C_3   0.802284 0.230943 0.187384 -0.350609
H42   H     H_    0.810626 0.254076 0.324624 0.221013
H43   H     H_    0.770898 0.259300 0.101563 0.200928
C72   C     C_3   0.766201 0.173127 0.233480 -0.740296
H44   H     H_    0.756646 0.149434 0.098124 0.234884
H45   H     H_    0.718669 0.182705 0.313816 0.264850
H46   H     H_    0.795524 0.144377 0.324333 0.227538
F3    F     F_    0.606303 0.864691 0.862168 -0.655965
F4    F     F_    0.393699 0.364690 0.137837 -0.655965
F5    F     F_    0.373221 0.726534 0.368748 -0.721605
F6    F     F_    0.626779 0.226534 0.631247 -0.721603
O25   O     O_3   0.656867 0.669218 0.102702 -0.573287
C73   C     C_3   0.700411 0.705435 0.202201 0.062791
H47   H     H_    0.723588 0.677730 0.309607 0.131787
H48   H     H_    0.675933 0.741689 0.289961 0.125546
C74   C     C_3   0.753858 0.731772 0.061668 -0.298720
H49   H     H_    0.784625 0.695925 0.996538 0.224818
H50   H     H_    0.733082 0.755345 0.940822 0.203299
C75   C     C_3   0.795830 0.775595 0.164693 -0.828122
H51   H     H_    0.766321 0.814739 0.212739 0.254708
H52   H     H_    0.837505 0.790633 0.066991 0.226963
H53   H     H_    0.815139 0.754324 0.291833 0.214774
O26   O     O_3   0.343134 0.169218 0.897300 -0.573287
C76   C     C_3   0.299590 0.205435 0.797801 0.062792
H54   H     H_    0.276411 0.177730 0.690396 0.131788
H55   H     H_    0.324068 0.241689 0.710039 0.125546
C77   C     C_3   0.246143 0.231772 0.938335 -0.298719
H56   H     H_    0.215376 0.195926 0.003467 0.224819
H57   H     H_    0.266920 0.255347 0.059178 0.203300
C78   C     C_3   0.204171 0.275596 0.835309 -0.828122
H58   H     H_    0.233681 0.314737 0.787251 0.254707
H59   H     H_    0.162499 0.290637 0.933015 0.226964
H60   H     H_    0.184858 0.254323 0.708177 0.214774
F7    F     F_    0.828590 0.628414 0.586035 -0.703587
F8    F     F_    0.171411 0.128414 0.413965 -0.703587

loop_
_geom_bond_atom_site_label_1
_geom_bond_atom_site_label_2
_ccdc_geom_bond_type
C70   C71   S    
C59   H15   S    
C41   O23   S    
O25   C73   S    
C61   H20   S    
H1    C27   S    
O13   V3    S    
C76   H54   S    
N2    N4    D    
C10   C34   A    
C50   O22   S    
O4    C2    A    
V1    O19   S    
C74   H49   S    
C14   C36   A    
C68   H35   S    
C13   C15   A    
C77   H56   S    
O9    V1    S    
C42   C44   A    
O16   C6    A    
C65   H29   S    
C75   H51   S    
C44   C46   A    
C62   H21   S    
O3    C1    A    
C72   H45   S    
C46   C48   A    
C3    C38   S    
O12   V4    S    
C70   H40   S    
C60   H16   S    
C23   C31   A    
C63   H23   S    
C52   F8    S    
O10   C6    A    
C19   C21   A    
C45   H9    S    
C37   C39   A    
O7    C3    A    
C61   H19   S    
C64   C65   S    
C10   C26   A    
C7    C35   S    
C73   C74   S    
C74   H50   S    
C9    C33   A    
O5    C7    A    
C68   H36   S    
O7    V1    S    
O6    C8    A    
C77   H57   S    
C67   H33   S    
C23   C25   A    
C24   C26   A    
O3    V1    S    
O14   V4    S    
C48   H12   S    
C54   C60   A    
C44   N2    S    
C34   F2    S    
C77   C78   S    
C62   C63   S    
C45   C47   A    
C42   O24   S    
C2    O12   A    
C14   H6    S    
C73   H48   S    
C76   H55   S    
C30   O26   S    
C16   C18   A    
C17   F5    S    
C6    C56   S    
C49   C51   A    
C26   C28   A    
O11   V3    S    
C78   H60   S    
C71   H43   S    
C27   C29   A    
O15   C5    A    
O17   V3    S    
C13   C35   A    
C28   C30   A    
C56   C58   A    
C24   C32   A    
C15   H7    S    
C78   H59   S    
C54   N4    S    
C72   H46   S    
O8    V2    S    
C39   C41   A    
C53   N3    S    
C1    O11   A    
C18   C20   A    
C32   H4    S    
C50   C54   A    
C38   C48   A    
C33   F1    S    
C25   C27   A    
C18   F6    S    
C66   H31   S    
C47   H11   S    
C53   C59   A    
C71   C72   S    
C17   C19   A    
C22   C36   A    
C78   H58   S    
C19   C23   A    
O10   V2    S    
O1    V3    S    
C12   C32   A    
C55   C57   A    
C43   C45   A    
C61   C62   S    
C64   H26   S    
C11   C33   A    
C68   C69   S    
C69   H38   S    
C65   C66   S    
C12   C34   A    
C40   C42   A    
O26   C76   S    
C40   H18   S    
O18   V4    S    
C10   F4    S    
C50   C52   A    
C39   H17   S    
O8    C4    A    
C73   H47   S    
C4    C37   S    
C5    C55   S    
C37   C47   A    
O1    C3    A    
C2    C11   S    
C41   C43   A    
C66   H30   S    
C74   C75   S    
C51   C55   A    
O22   C64   S    
C21   C29   A    
C71   H42   S    
V2    O20   S    
C43   N1    S    
C70   H41   S    
C20   C24   A    
C57   C59   A    
O16   V4    S    
O18   C8    A    
C75   H53   S    
C15   C17   A    
C31   H3    S    
C49   O21   S    
C14   C16   A    
C69   H39   S    
C21   C35   A    
C11   C31   A    
O5    V1    S    
C22   C30   A    
C9    C25   A    
O6    V2    S    
C13   H5    S    
C58   C60   A    
C63   H25   S    
C51   F7    S    
O2    V4    S    
C75   H52   S    
C9    F3    S    
C66   H32   S    
V3    O19   S    
C58   H14   S    
C72   H44   S    
V4    O20   S    
O15   V3    S    
C46   H10   S    
C67   C68   S    
O9    C5    A    
O13   V1    S    
C1    C12   S    
C63   H24   S    
O14   V2    S    
C16   H8    S    
O2    C4    A    
C57   H13   S    
C64   H27   S    
H2    C28   S    
C69   H37   S    
O4    V2    S    
C20   C22   A    
C29   O25   S    
C67   H34   S    
N1    N3    D    
O24   C70   S    
C38   C40   A    
C76   C77   S    
C52   C56   A    
O21   C61   S    
C49   C53   A    
O23   C67   S    
C65   H28   S    
C62   H22   S    
O17   C7    A    
C8    C36   S    
