data_mof_unit_21025.cif
_audit_creation_date              2012-10-26T21:00:45-0400
_audit_creation_method            fapswitch 2.2
_symmetry_space_group_name_H-M    P1
_symmetry_Int_Tables_number       1
_space_group_crystal_system       triclinic
_cell_length_a                    10.826986
_cell_length_b                    9.562103
_cell_length_c                    10.854224
_cell_angle_alpha                 89.993799
_cell_angle_beta                  93.141981
_cell_angle_gamma                 89.999581
_cell_volume                      1122.03508727

loop_
_atom_site_label
_atom_site_type_symbol
_atom_type_description
_atom_site_fract_x
_atom_site_fract_y
_atom_site_fract_z
_atom_type_partial_charge
C1    C     C_R   0.262226 0.500090 0.500782 0.566479
C2    C     C_R   0.490797 0.500961 0.737131 0.560989
C3    C     C_R   0.556618 0.762815 0.117533 -0.085668
C4    C     C_R   0.442694 0.762638 0.882307 -0.085694
C5    C     C_R   0.531247 0.889029 0.057208 -0.055217
C6    C     C_R   0.467802 0.888933 0.942566 -0.055292
C7    C     C_R   0.480560 0.633676 0.936962 0.024427
C8    C     C_R   0.519005 0.633736 0.062957 0.024479
C9    C     C_R   0.517141 0.505000 0.128625 -0.008744
C10   C     C_R   0.482703 0.504948 0.871347 -0.008788
C11   C     C_R   0.505841 0.378736 0.063688 -0.127345
C12   C     C_R   0.737774 0.500088 0.499215 0.566483
C13   C     C_R   0.494184 0.378716 0.936328 -0.127180
C14   C     C_R   0.063898 0.373454 0.501406 -0.108226
C15   C     C_R   0.936149 0.373447 0.499361 -0.108720
C16   C     C_R   0.871677 0.500394 0.499094 0.010353
C17   C     C_R   0.128325 0.500400 0.500911 0.010557
C18   C     C_R   0.936059 0.627556 0.499362 -0.124222
C19   C     C_R   0.063900 0.627557 0.499900 -0.124255
C20   C     C_R   0.419749 0.070800 0.420172 0.317505
C21   C     C_R   0.580238 0.070777 0.579837 0.317543
C22   C     C_R   0.422117 0.923143 0.421938 0.023182
C23   C     C_R   0.577882 0.923122 0.578061 0.023368
C24   C     C_R   0.509154 0.500979 0.262857 0.560968
Cu1   Cu    Cu3+1 0.500000 0.640660 0.500000 0.949902
Cu2   Cu    Cu3+1 0.500000 0.359340 0.500000 1.109741
H1    H     H_    0.608936 0.768410 0.204978 0.145987
H2    H     H_    0.493249 0.279076 0.888806 0.179131
H3    H     H_    0.557899 0.987016 0.101011 0.144840
H4    H     H_    0.440969 0.986839 0.898703 0.144773
H5    H     H_    0.212208 0.311151 0.221527 0.358312
H6    H     H_    0.788535 0.311152 0.777575 0.358235
H7    H     H_    0.390408 0.768059 0.794830 0.145952
H8    H     H_    0.111890 0.274178 0.503360 0.197085
H9    H     H_    0.888196 0.274157 0.498044 0.197279
H10   H     H_    0.887976 0.726936 0.499040 0.160184
H11   H     H_    0.111948 0.726937 0.499613 0.160272
H12   H     H_    0.360087 0.863463 0.360452 0.184923
H13   H     H_    0.639871 0.863429 0.639592 0.185015
H14   H     H_    0.506931 0.279100 0.111244 0.178681
N1    N     N_R   0.500000 0.852070 0.500000 -0.322568
N2    N     N_R   0.500000 0.147940 0.500000 -0.278657
O1    O     O_R   0.319640 0.618740 0.499990 -0.521060
O2    O     O_2   0.181750 0.077607 0.349711 -0.322402
O3    O     O_3   0.283618 0.304926 0.282376 -0.491168
O4    O     O_2   0.671199 0.067008 0.811826 -0.335548
O5    O     O_2   0.817999 0.076951 0.651248 -0.322951
O6    O     O_3   0.716476 0.304890 0.717511 -0.491270
O7    O     O_R   0.680360 0.618740 0.500010 -0.520914
O8    O     O_R   0.319620 0.381170 0.499990 -0.451676
O9    O     O_R   0.680380 0.381170 0.500010 -0.451883
O10   O     O_R   0.500000 0.618810 0.319650 -0.523562
O11   O     O_R   0.500000 0.618810 0.680350 -0.523485
O12   O     O_R   0.499970 0.381240 0.319640 -0.447731
O13   O     O_R   0.500030 0.381240 0.680360 -0.447608
O14   O     O_2   0.327828 0.066538 0.188519 -0.335987
S1    S     S_3+6 0.303021 0.133733 0.309897 0.000645
S2    S     S_3+6 0.696693 0.133675 0.690398 0.000530

loop_
_geom_bond_atom_site_label_1
_geom_bond_atom_site_label_2
_ccdc_geom_bond_type
C14   H8    S    
C7    C10   A    
C20   N2    A    
C13   H2    S    
O6    S2    S    
C11   C13   A    
C1    O8    A    
C1    C17   S    
C23   N1    A    
C24   O10   A    
O2    S1    D    
C9    C11   A    
Cu2   O13   S    
Cu1   O1    S    
C3    H1    S    
C12   O7    A    
Cu1   Cu2   S    
Cu1   O10   S    
C21   S2    S    
C9    C24   S    
Cu2   O9    S    
O4    S2    D    
O5    S2    D    
H6    O6    S    
C14   C17   A    
O3    S1    S    
C11   H14   S    
C4    C7    A    
C23   H13   S    
Cu2   O12   S    
C4    C6    A    
C17   C19   A    
C20   C22   A    
C3    C8    A    
C5    H3    S    
C2    O13   A    
Cu2   O8    S    
C21   C23   A    
C5    C6    A    
Cu1   O7    S    
C22   N1    A    
C15   C16   A    
C24   O12   A    
C21   N2    A    
C2    C10   S    
C7    C8    A    
C12   O9    A    
O14   S1    D    
Cu2   N2    S    
C16   C18   A    
C18   C19   A    
H5    O3    S    
Cu1   N1    S    
C15   H9    S    
C14   C15   A    
C19   H11   S    
C6    H4    S    
C20   S1    S    
C4    H7    S    
C18   H10   S    
C1    O1    A    
C12   C16   S    
C2    O11   A    
Cu1   O11   S    
C8    C9    A    
C3    C5    A    
C10   C13   A    
C22   H12   S    
