data_mof_unit_16932.cif
_audit_creation_date              2012-12-10T18:16:19-0500
_audit_creation_method            fapswitch 2.2
_symmetry_space_group_name_H-M    P1
_symmetry_Int_Tables_number       1
_space_group_crystal_system       triclinic
_cell_length_a                    18.268895
_cell_length_b                    18.34361
_cell_length_c                    18.396195
_cell_angle_alpha                 120.04973
_cell_angle_beta                  59.961685
_cell_angle_gamma                 120.074582
_cell_volume                      4353.87265326

loop_
_atom_site_label
_atom_site_type_symbol
_atom_type_description
_atom_site_fract_x
_atom_site_fract_y
_atom_site_fract_z
_atom_type_partial_charge
C1    C     C_R   0.390355 0.110208 0.611483 0.544694
C2    C     C_R   0.983040 0.978108 0.924016 -0.081847
C3    C     C_R   0.944867 0.946622 0.054127 0.061690
C4    C     C_R   0.055333 0.053479 0.945907 0.026245
C5    C     C_R   0.927302 0.924370 0.977701 0.040553
C6    C     C_R   0.073141 0.075664 0.022192 0.017005
C7    C     C_R   0.028407 0.475171 0.907362 -0.113537
C8    C     C_R   0.971067 0.524340 0.092683 -0.103311
C9    C     C_R   0.974896 0.528658 0.960916 -0.108458
C10   C     C_R   0.024616 0.470881 0.039123 -0.109917
C11   C     C_R   0.946054 0.553550 0.053819 0.033957
C12   C     C_R   0.609617 0.889776 0.388545 0.545677
C13   C     C_R   0.053568 0.446096 0.946217 0.033461
C14   C     C_R   0.002693 0.088127 0.552156 -0.149551
C15   C     C_R   0.997680 0.911984 0.447500 -0.159033
C16   C     C_R   0.109816 0.390082 0.890089 0.507729
C17   C     C_R   0.890076 0.609819 0.109922 0.514451
C18   C     C_R   0.946923 0.035620 0.500256 0.234075
C19   C     C_R   0.053449 0.964496 0.499408 0.235698
C20   C     C_R   0.945061 0.946989 0.447414 0.045664
C21   C     C_R   0.055214 0.053083 0.552337 0.052337
C22   C     C_R   0.524878 0.075414 0.571494 0.203555
C23   C     C_R   0.150218 0.231983 0.114044 0.231171
C24   C     C_R   0.474759 0.924261 0.428827 0.215012
C25   C     C_R   0.577685 0.020953 0.513878 -0.143401
C26   C     C_R   0.422185 0.978972 0.486233 -0.141704
C27   C     C_R   0.552982 0.945414 0.443648 -0.003720
C28   C     C_R   0.446872 0.054471 0.556481 -0.006874
C29   C     C_R   0.407817 0.460864 0.513858 0.157649
C30   C     C_R   0.592742 0.519924 0.467713 0.121002
C31   C     C_R   0.458622 0.531320 0.480259 0.189866
C32   C     C_R   0.539993 0.486580 0.538202 0.152031
C33   C     C_R   0.553341 0.553391 0.446321 -0.089336
C34   C     C_R   0.852766 0.766301 0.886792 0.267515
C35   C     C_R   0.446400 0.446222 0.553687 -0.078395
C36   C     C_R   0.422090 0.516221 0.022697 0.185887
C37   C     C_R   0.577534 0.483233 0.977697 0.178128
C38   C     C_R   0.474577 0.568871 0.078844 0.183972
C39   C     C_R   0.525020 0.430509 0.921548 0.169432
C40   C     C_R   0.390249 0.389925 0.889894 0.608956
C41   C     C_R   0.609732 0.610012 0.110126 0.593507
C42   C     C_R   0.553327 0.553682 0.054143 0.041816
C43   C     C_R   0.446520 0.446020 0.946013 0.048537
C44   C     C_R   0.110712 0.109773 0.609125 0.546027
C45   C     C_R   0.232314 0.299414 0.127228 0.221377
C46   C     C_R   0.889376 0.890241 0.390798 0.534115
C47   C     C_R   0.390211 0.390160 0.609876 0.555517
C48   C     C_R   0.609702 0.609688 0.390120 0.543407
C49   C     C_R   0.110037 0.109815 0.889928 0.488922
C50   C     C_R   0.890013 0.890210 0.110073 0.501295
C51   C     C_R   0.316759 0.207012 0.994988 -0.146177
C52   C     C_R   0.685018 0.790805 0.000046 -0.154884
C53   C     C_R   0.237444 0.139233 0.983549 -0.133696
C54   C     C_R   0.763514 0.859613 0.012526 -0.149007
C55   C     C_R   0.154090 0.150338 0.042020 -0.014170
C56   C     C_R   0.771576 0.697518 0.872665 0.254525
C57   C     C_R   0.847394 0.848747 0.956825 -0.015192
C58   C     C_R   0.314253 0.286151 0.066245 -0.132849
C59   C     C_R   0.688979 0.710715 0.930642 -0.109579
C60   C     C_R   0.017229 0.021990 0.075999 -0.061397
H1    H     H_    0.377219 0.337389 0.073758 0.146204
H2    H     H_    0.968857 0.962204 0.866115 0.150339
H3    H     H_    0.050080 0.456801 0.835733 0.176676
H4    H     H_    0.949321 0.542653 0.164316 0.189972
H5    H     H_    0.956323 0.550523 0.929537 0.187002
H6    H     H_    0.043184 0.449006 0.070497 0.180504
H7    H     H_    0.003897 0.156113 0.593715 0.153775
H8    H     H_    0.996502 0.844010 0.405911 0.150999
H9    H     H_    0.902374 0.131703 0.542399 0.350883
H10   H     H_    0.098179 0.868501 0.457111 0.340890
H11   H     H_    0.597170 0.101513 0.701885 0.340963
H12   H     H_    0.626629 0.658648 0.922294 0.172887
H13   H     H_    0.307957 0.817697 0.360634 0.360167
H14   H     H_    0.352919 0.271212 0.413123 0.325313
H15   H     H_    0.661409 0.418565 0.281521 0.326758
H16   H     H_    0.273053 0.614361 0.573527 0.388595
H17   H     H_    0.671953 0.646172 0.622169 0.341107
H18   H     H_    0.359065 0.598846 0.070915 0.349782
H19   H     H_    0.639516 0.400141 0.930915 0.348340
H20   H     H_    0.384814 0.618509 0.181998 0.395781
H21   H     H_    0.614271 0.379305 0.819230 0.383549
H22   H     H_    0.984876 0.212174 0.090343 0.349278
H23   H     H_    0.637562 0.036125 0.524830 0.188007
H24   H     H_    0.094060 0.815384 0.824762 0.373872
H25   H     H_    0.343625 0.409790 0.247534 0.364457
H26   H     H_    0.665986 0.481880 0.729410 0.413818
H27   H     H_    0.362440 0.964034 0.475227 0.174629
H28   H     H_    0.380623 0.197962 0.948667 0.179420
H29   H     H_    0.620671 0.799720 0.044171 0.185004
H30   H     H_    0.240899 0.077746 0.927884 0.144528
H31   H     H_    0.758993 0.921728 0.066808 0.156493
H32   H     H_    0.031541 0.037702 0.133749 0.152045
O1    O     O_3   0.249960 0.250040 0.750040 -0.499895
O2    O     O_R   0.865890 0.634160 0.194850 -0.517429
O3    O     O_R   0.305100 0.073510 0.634200 -0.538818
O4    O     O_R   0.694900 0.926490 0.365800 -0.532194
O5    O     O_R   0.134110 0.365830 0.926590 -0.534884
O6    O     O_R   0.865890 0.634170 0.073410 -0.527770
O7    O     O_R   0.426490 0.365840 0.805130 -0.453272
O8    O     O_R   0.573510 0.634160 0.194870 -0.459250
O9    O     O_R   0.134150 0.194970 0.634230 -0.526003
O10   O     O_R   0.865850 0.805030 0.365770 -0.552198
O11   O     O_R   0.426480 0.365860 0.634240 -0.481890
O12   O     O_3   0.750040 0.749960 0.249960 -0.506477
O13   O     O_R   0.573520 0.634140 0.365760 -0.478736
O14   O     O_R   0.134190 0.073490 0.805100 -0.529053
O15   O     O_R   0.865810 0.926510 0.194900 -0.528396
O16   O     O_R   0.305020 0.365860 0.634250 -0.467489
O17   O     O_R   0.694980 0.634140 0.365750 -0.469121
O18   O     O_R   0.134160 0.194930 0.926560 -0.550441
O19   O     O_R   0.865840 0.805070 0.073440 -0.519906
O20   O     O_3   0.892693 0.068843 0.501841 -0.629780
O21   O     O_3   0.107741 0.931315 0.497782 -0.639855
O22   O     O_2   0.598153 0.251233 0.644577 -0.155705
O23   O     O_R   0.305030 0.365830 0.926580 -0.500126
O24   O     O_2   0.474983 0.169988 0.746228 -0.289460
O25   O     O_3   0.631174 0.153411 0.680659 -0.487516
O26   O     O_2   0.523913 0.830496 0.254261 -0.243580
O27   O     O_2   0.403253 0.747715 0.355360 -0.187877
O28   O     O_3   0.366865 0.844689 0.320717 -0.498987
O29   O     O_2   0.226715 0.404173 0.570420 -0.151843
O30   O     O_2   0.304175 0.391383 0.413260 -0.215883
O31   O     O_3   0.297459 0.278934 0.463762 -0.500896
O32   O     O_2   0.773155 0.589137 0.423534 -0.172536
O33   O     O_2   0.704259 0.432135 0.413165 -0.171106
O34   O     O_R   0.694970 0.634170 0.073420 -0.502322
O35   O     O_3   0.714383 0.472166 0.291609 -0.498746
O36   O     O_2   0.456379 0.694177 0.522929 -0.278176
O37   O     O_2   0.391048 0.570693 0.408340 -0.163519
O38   O     O_3   0.301013 0.580101 0.573695 -0.443167
O39   O     O_2   0.529891 0.532109 0.706474 -0.273405
O40   O     O_2   0.609114 0.426679 0.588930 -0.150499
O41   O     O_3   0.688592 0.593770 0.602454 -0.394366
O42   O     O_3   0.349526 0.534242 0.038277 -0.641686
O43   O     O_3   0.649789 0.464971 0.962475 -0.642947
O44   O     O_3   0.451041 0.635528 0.157528 -0.587871
O45   O     O_R   0.134180 0.073510 0.634210 -0.479482
O46   O     O_3   0.548169 0.363405 0.843164 -0.608520
O47   O     O_2   0.011747 0.223507 0.265207 -0.178787
O48   O     O_2   0.052275 0.344129 0.215916 -0.172411
O49   O     O_3   0.966609 0.184958 0.134288 -0.508753
O50   O     O_2   0.952020 0.656247 0.793228 -0.172789
O51   O     O_2   0.992512 0.771455 0.736179 -0.232774
O52   O     O_3   0.035439 0.818087 0.871837 -0.542313
O53   O     O_2   0.222795 0.463910 0.201700 -0.177367
O54   O     O_2   0.168299 0.384997 0.303557 -0.143841
O55   O     O_3   0.339997 0.450002 0.229261 -0.483241
O56   O     O_R   0.865820 0.926490 0.365790 -0.472527
O57   O     O_2   0.838191 0.608521 0.698479 -0.134437
O58   O     O_2   0.783515 0.534972 0.805460 -0.214001
O59   O     O_3   0.666447 0.542810 0.771685 -0.485870
O60   O     O_R   0.426530 0.194970 0.634210 -0.467142
O61   O     O_R   0.573470 0.805030 0.365790 -0.452659
O62   O     O_R   0.134110 0.365840 0.805150 -0.539772
S1    S     S_3+6 0.556206 0.165434 0.663493 0.067169
S2    S     S_3+6 0.767767 0.594022 0.784191 0.116136
S3    S     S_3+6 0.442957 0.833694 0.337293 0.070643
S4    S     S_3+6 0.306047 0.384359 0.490238 0.109477
S5    S     S_3+6 0.699067 0.503649 0.399890 0.108567
S6    S     S_3+6 0.402497 0.596510 0.494491 0.115480
S7    S     S_3+6 0.591026 0.508299 0.611494 0.123636
S8    S     S_3+6 0.044360 0.248414 0.185116 0.101439
S9    S     S_3+6 0.959377 0.750743 0.819021 0.082906
S10   S     S_3+6 0.238121 0.401155 0.218283 0.116604
Zn1   Zn    Zn3+2 0.206570 0.293400 0.880180 0.984738
Zn2   Zn    Zn3+2 0.793430 0.706600 0.119820 1.004177
Zn3   Zn    Zn3+2 0.380110 0.293420 0.706660 1.097817
Zn4   Zn    Zn3+2 0.619890 0.706580 0.293340 1.099311
Zn5   Zn    Zn3+2 0.206560 0.293420 0.706670 1.020226
Zn6   Zn    Zn3+2 0.793440 0.706580 0.293330 1.011721
Zn7   Zn    Zn3+2 0.206610 0.119900 0.706640 0.998164
Zn8   Zn    Zn3+2 0.793390 0.880100 0.293360 1.011087

loop_
_geom_bond_atom_site_label_1
_geom_bond_atom_site_label_2
_ccdc_geom_bond_type
O10   Zn6   S    
C49   O14   A    
C34   C56   A    
C44   O45   A    
C23   C45   A    
O14   Zn7   S    
C14   C18   A    
C53   C55   A    
C24   C27   A    
C12   O61   A    
C56   S2    S    
C35   C47   S    
C40   O7    A    
O18   Zn1   S    
C15   C19   A    
C46   O10   A    
O1    Zn5   S    
C14   C21   A    
C19   C21   A    
C45   S10   S    
C18   O20   S    
C38   C42   A    
O55   S10   S    
H9    O20   S    
C16   O5    A    
C40   O23   A    
O12   Zn4   S    
O39   S7    D    
O48   S8    D    
O32   S5    D    
C1    O60   A    
O38   S6    S    
C41   C42   S    
C37   C42   A    
C56   C59   A    
O40   S7    D    
O24   S1    D    
H16   O38   S    
C40   C43   S    
C46   O56   A    
C26   H27   S    
C22   C25   A    
O25   S1    S    
C34   C57   A    
C14   H7    S    
C37   O43   S    
O9    Zn5   S    
C44   O9    A    
C38   O44   S    
O23   Zn1   S    
C17   O6    A    
C6    C55   S    
H15   O35   S    
C31   S6    S    
O27   S3    D    
C59   H12   S    
O12   Zn8   S    
C23   S8    S    
C3    C60   A    
C58   H1    S    
C10   H6    S    
C48   O17   A    
C39   O46   S    
O1    Zn1   S    
O49   S8    S    
H13   O28   S    
C22   C28   A    
O16   Zn5   S    
C52   H29   S    
C30   S5    S    
H17   O41   S    
H22   O49   S    
O51   S9    D    
C3    C50   S    
C52   C54   A    
O7    Zn3   S    
O15   Zn8   S    
C60   H32   S    
H10   O21   S    
C15   C20   A    
C45   C58   A    
C47   O11   A    
H11   O25   S    
C12   C27   S    
C32   C35   A    
C6    C60   A    
C4    C6    A    
C34   S9    S    
O50   S9    D    
O19   Zn2   S    
C24   S3    S    
C39   C43   A    
C3    C5    A    
O59   S2    S    
O54   S10   D    
O62   Zn5   S    
C36   O42   S    
C51   C53   A    
C2    C4    A    
C52   C59   A    
C1    C28   S    
C21   C44   S    
C9    C11   A    
C48   O13   A    
C1    O3    A    
C32   S7    S    
C31   C33   A    
O30   S4    D    
C41   O8    A    
C51   C58   A    
O11   Zn3   S    
H18   O42   S    
C7    H3    S    
O6    Zn2   S    
C8    H4    S    
C8    C10   A    
O31   S4    S    
O29   S4    D    
O52   S9    S    
C16   O62   A    
C50   O15   A    
C2    C5    A    
O35   S5    S    
O22   S1    D    
O60   Zn3   S    
O17   Zn6   S    
O36   S6    D    
O12   Zn6   S    
C7    C9    A    
C11   C17   S    
C30   C33   A    
C41   O34   A    
O57   S2    D    
O47   S8    D    
H25   O55   S    
C24   C26   A    
H21   O46   S    
O34   Zn2   S    
C10   C13   A    
O41   S7    S    
C51   H28   S    
O61   Zn4   S    
O33   S5    D    
C19   O21   S    
C23   C55   A    
C29   S4    S    
O53   S10   D    
C25   C27   A    
H19   O43   S    
C29   C35   A    
C26   C28   A    
H20   O44   S    
O13   Zn4   S    
C5    C57   S    
C4    C49   S    
O8    Zn4   S    
C36   C38   A    
C54   H31   S    
C29   C31   A    
H26   O59   S    
O2    Zn6   S    
C30   C32   A    
O28   S3    S    
C8    C11   A    
O5    Zn1   S    
C15   H8    S    
C50   O19   A    
O56   Zn8   S    
H14   O31   S    
C18   C20   A    
C9    H5    S    
O45   Zn7   S    
C36   C43   A    
O12   Zn2   S    
C22   S1    S    
C7    C13   A    
O1    Zn3   S    
C37   C39   A    
C47   O16   A    
O4    Zn8   S    
C13   C16   S    
C53   H30   S    
C25   H23   S    
C33   C48   S    
H24   O52   S    
C12   O4    A    
O26   S3    D    
O58   S2    D    
C17   O2    A    
O3    Zn7   S    
O37   S6    D    
C20   C46   S    
C2    H2    S    
C49   O18   A    
C54   C57   A    
O1    Zn7   S    
