data_mof_unit_23960.cif
_audit_creation_date              2012-12-10T17:58:21-0500
_audit_creation_method            fapswitch 2.2
_symmetry_space_group_name_H-M    P1
_symmetry_Int_Tables_number       1
_space_group_crystal_system       triclinic
_cell_length_a                    9.536938
_cell_length_b                    10.792617
_cell_length_c                    15.400296
_cell_angle_alpha                 89.86788
_cell_angle_beta                  74.537605
_cell_angle_gamma                 90.555601
_cell_volume                      1527.66540917

loop_
_atom_site_label
_atom_site_type_symbol
_atom_type_description
_atom_site_fract_x
_atom_site_fract_y
_atom_site_fract_z
_atom_type_partial_charge
C1    C     C_R   0.998820 0.262446 0.500985 0.880477
C2    C     C_R   0.001213 0.737546 0.498918 0.880305
C3    C     C_R   0.555882 0.393337 0.085698 -0.232078
C4    C     C_R   0.421135 0.532509 0.902798 -0.231475
C5    C     C_R   0.698091 0.365146 0.040693 -0.182133
C6    C     C_R   0.278357 0.559136 0.947244 -0.189525
C7    C     C_R   0.943857 0.066156 0.437415 0.379512
C8    C     C_R   0.056218 0.933835 0.562397 0.379563
C9    C     C_R   0.949816 0.936535 0.433326 0.241128
C10   C     C_R   0.050142 0.063428 0.566520 0.239947
C11   C     C_R   0.003926 0.871553 0.497157 -0.274754
C12   C     C_R   0.996110 0.128425 0.502677 -0.274980
C13   C     C_R   0.549656 0.421957 0.556087 0.531789
C14   C     C_R   0.450326 0.578107 0.443964 0.533050
C15   C     C_R   0.400236 0.422618 0.555710 -0.186541
C16   C     C_R   0.599772 0.577375 0.444284 -0.181543
C17   C     C_R   0.918521 0.495302 0.672399 0.841875
C18   C     C_R   0.081389 0.503282 0.327453 0.842298
C19   C     C_R   0.873481 0.473389 0.770539 -0.098660
C20   C     C_R   0.124687 0.512648 0.228151 -0.099825
C21   C     C_R   0.903589 0.373748 0.906621 0.056685
C22   C     C_R   0.081871 0.575318 0.085157 0.052207
C23   C     C_R   0.962728 0.410566 0.815444 0.361830
C24   C     C_R   0.029937 0.559323 0.179891 0.372002
C25   C     C_R   0.731251 0.503442 0.816359 -0.302965
C26   C     C_R   0.266284 0.479563 0.182733 -0.314256
C27   C     C_R   0.668106 0.463895 0.905082 0.042858
C28   C     C_R   0.319178 0.490790 0.088840 0.044203
C29   C     C_R   0.757106 0.400892 0.950926 0.100726
C30   C     C_R   0.225968 0.541749 0.040332 0.104209
C31   C     C_R   0.518781 0.485908 0.949330 0.098775
C32   C     C_R   0.464278 0.457011 0.042464 0.096504
Cu1   Cu    Cu3+1 0.140660 0.500020 0.500000 1.042377
Cu2   Cu    Cu3+1 0.859340 0.499980 0.500000 1.043080
H1    H     H_    0.762193 0.315763 0.077697 0.195689
H2    H     H_    0.209226 0.594507 0.907518 0.199780
H3    H     H_    0.335166 0.448549 0.223299 0.183658
H4    H     H_    0.671855 0.558878 0.780353 0.176269
H5    H     H_    0.519976 0.359681 0.153982 0.156073
H6    H     H_    0.449974 0.546183 0.830892 0.161048
H7    H     H_    0.322909 0.360927 0.599868 0.192022
H8    H     H_    0.677136 0.639005 0.400077 0.189078
N1    N     N_R   0.352080 0.500030 0.499980 -0.186924
N2    N     N_R   0.647920 0.499970 0.500020 -0.186686
O1    O     O_R   0.118740 0.319660 0.500000 -0.593686
O2    O     O_R   0.881260 0.680340 0.500000 -0.595122
O3    O     O_R   0.881170 0.319630 0.500010 -0.497188
O4    O     O_R   0.118830 0.680370 0.499990 -0.496846
O5    O     O_R   0.055570 0.500030 0.629830 -0.531679
O6    O     O_R   0.944430 0.499970 0.370170 -0.530234
O7    O     O_R   0.818000 0.500000 0.629840 -0.560491
O8    O     O_R   0.182000 0.500000 0.370160 -0.562203
O9    O     O_3   0.891075 0.592937 0.227688 -0.735276
H9    H     H_    0.833210 0.619632 0.186716 0.324409
O10   O     O_3   0.103692 0.383413 0.767592 -0.741601
H10   H     H_    0.157305 0.344429 0.806942 0.325336
N3    N     N_3   0.988375 0.304848 0.954043 -0.612641
H11   H     H_    0.022112 0.222534 0.919444 0.237945
H12   H     H_    0.079270 0.357589 0.957029 0.231666
N4    N     N_3   0.991864 0.629193 0.033981 -0.613564
H13   H     H_    0.899130 0.573815 0.040914 0.230965
H14   H     H_    0.961290 0.717799 0.058765 0.236465
O11   O     O_3   0.893905 0.135645 0.376204 -0.703757
H15   H     H_    0.857067 0.080711 0.335689 0.376846
O12   O     O_3   0.106225 0.864378 0.623601 -0.704140
H16   H     H_    0.143217 0.919334 0.664038 0.376646
O13   O     O_3   0.905354 0.877094 0.365484 -0.723143
H17   H     H_    0.952988 0.795564 0.353256 0.339387
O14   O     O_3   0.094323 0.122865 0.634447 -0.723238
H18   H     H_    0.045990 0.204067 0.646857 0.343177
O15   O     O_3   0.598080 0.343222 0.612231 -0.692254
H19   H     H_    0.514488 0.293970 0.648523 0.304604
O16   O     O_3   0.401852 0.656986 0.387934 -0.692291
H20   H     H_    0.485368 0.706500 0.351835 0.305240

loop_
_geom_bond_atom_site_label_1
_geom_bond_atom_site_label_2
_ccdc_geom_bond_type
O10   H10   S    
C27   C29   A    
Cu1   O1    S    
O16   H20   S    
C17   O7    A    
C18   O8    A    
O9    H9    S    
C2    O2    A    
Cu1   O8    S    
Cu2   O7    S    
C22   N4    S    
N3    H12   S    
Cu1   O5    S    
N4    H14   S    
C4    H6    S    
Cu2   O2    S    
C16   N2    A    
C18   C20   S    
C3    H5    S    
C8    O12   S    
C3    C32   A    
C1    C12   S    
C2    C11   S    
C5    C29   A    
C21   C23   A    
C7    C12   A    
Cu2   O6    S    
C27   C31   A    
O13   H17   S    
Cu1   N1    S    
C14   O16   S    
C20   C24   A    
C28   C32   A    
Cu2   N2    S    
C15   H7    S    
C4    C6    A    
C17   O5    A    
C1    O3    A    
C13   O15   S    
C2    O4    A    
C24   O9    S    
C21   C29   A    
N4    H13   S    
C19   C23   A    
C9    O13   S    
C21   N3    S    
C25   H4    S    
C31   C32   A    
Cu1   Cu2   S    
C9    C11   A    
C7    O11   S    
C10   C12   A    
C6    C30   A    
C13   C15   A    
C14   C16   A    
C16   H8    S    
C18   O6    A    
C7    C9    A    
C22   C30   A    
C3    C5    A    
C26   H3    S    
C23   O10   S    
C25   C27   A    
C26   C28   A    
C28   C30   A    
C15   N1    A    
O15   H19   S    
C1    O1    A    
N3    H11   S    
C20   C26   A    
C8    C11   A    
C5    H1    S    
C17   C19   S    
C6    H2    S    
C22   C24   A    
O14   H18   S    
C19   C25   A    
C4    C31   A    
O11   H15   S    
C10   O14   S    
C8    C10   A    
O12   H16   S    
Cu1   O4    S    
Cu2   O3    S    
C13   N2    A    
C14   N1    A    
