data_mof_unit_43996.cif
_audit_creation_date              2012-10-26T19:58:23-0400
_audit_creation_method            fapswitch 2.2
_symmetry_space_group_name_H-M    P1
_symmetry_Int_Tables_number       1
_space_group_crystal_system       triclinic
_cell_length_a                    7.45224
_cell_length_b                    8.714165
_cell_length_c                    13.377607
_cell_angle_alpha                 94.496274
_cell_angle_beta                  77.500088
_cell_angle_gamma                 103.328409
_cell_volume                      824.933463326

loop_
_atom_site_label
_atom_site_type_symbol
_atom_type_description
_atom_site_fract_x
_atom_site_fract_y
_atom_site_fract_z
_atom_type_partial_charge
C1    C     C_R   0.545460 0.799901 0.503213 0.527898
C2    C     C_R   0.337963 0.498261 0.806882 0.013643
C3    C     C_2   0.572457 0.967402 0.505068 0.347319
C4    C     C_R   0.399873 0.498312 0.694478 0.502270
C5    C     C_2   0.431178 0.032052 0.495705 -0.099125
C6    C     C_R   0.454918 0.199858 0.497043 0.554845
C7    C     C_R   0.601325 0.510677 0.305918 0.568522
C8    C     C_R   0.872468 0.694290 0.058460 0.359138
C9    C     C_R   0.662446 0.539241 0.196158 -0.035152
C10   C     C_R   0.151952 0.423766 0.849279 -0.100473
C11   C     C_R   0.095538 0.402401 0.954065 -0.111643
C12   C     C_R   0.417086 0.514811 0.976429 0.068813
C13   C     C_R   0.226081 0.445739 0.017132 -0.013414
C14   C     C_R   0.466429 0.558094 0.872474 0.022814
C15   C     C_R   0.558705 0.549324 0.036467 -0.014487
C16   C     C_R   0.735259 0.650980 0.997806 -0.004671
C17   C     C_R   0.771557 0.709616 0.899685 -0.078407
C18   C     C_R   0.640049 0.663523 0.837843 -0.100768
C19   C     C_R   0.532595 0.484043 0.132954 0.342067
C20   C     C_R   0.834112 0.641386 0.157995 -0.149082
Cu1   Cu    Cu3+1 0.321300 0.483160 0.488710 1.229866
Cu2   Cu    Cu3+1 0.678700 0.516840 0.511290 1.215333
F1    F     F_    0.020015 0.630295 0.602245 -0.558195
F2    F     F_    0.980074 0.369903 0.397667 -0.482199
F3    F     F_    0.040973 0.792466 0.022853 -0.613917
F4    F     F_    0.387749 0.360481 0.165164 -0.603364
F5    F     F_    0.744370 0.054627 0.516460 -0.570543
H1    H     H_    0.935831 0.684287 0.206204 0.180975
H2    H     H_    0.294963 0.960410 0.486813 0.130660
H3    H     H_    0.903118 0.790550 0.869774 0.199728
H4    H     H_    0.050085 0.380320 0.801228 0.160341
H5    H     H_    0.171557 0.431303 0.098104 0.211762
H6    H     H_    0.950206 0.349258 0.986533 0.138282
H7    H     H_    0.673809 0.717249 0.764067 0.175207
N1    N     N_2   0.947230 0.542220 0.528320 0.177107
N2    N     N_2   0.052770 0.457780 0.471680 0.212403
O1    O     O_R   0.383920 0.714220 0.492660 -0.531951
O2    O     O_R   0.685730 0.742660 0.511730 -0.468018
O3    O     O_R   0.275440 0.478800 0.636790 -0.475801
O4    O     O_R   0.577250 0.507240 0.655860 -0.515923
O5    O     O_R   0.314270 0.257340 0.488270 -0.479407
O6    O     O_R   0.616080 0.285780 0.507340 -0.401904
O7    O     O_R   0.422750 0.492760 0.344140 -0.438213
O8    O     O_R   0.724560 0.521200 0.363210 -0.492338

loop_
_geom_bond_atom_site_label_1
_geom_bond_atom_site_label_2
_ccdc_geom_bond_type
C2    C4    S    
C4    O3    A    
Cu2   N1    S    
C7    O7    A    
C11   C13   A    
C14   C18   A    
C13   H5    S    
F1    N1    S    
N1    N2    D    
Cu1   O3    S    
C12   C15   A    
C1    O1    A    
Cu2   O4    S    
C3    F5    S    
C17   C18   A    
C8    C16   A    
Cu1   N2    S    
F2    N2    S    
C7    O8    A    
C15   C19   A    
C17   H3    S    
C18   H7    S    
Cu2   O6    S    
C1    O2    A    
C8    C20   A    
Cu1   O5    S    
Cu1   Cu2   S    
C12   C14   A    
C5    H2    S    
C5    C6    S    
C2    C14   A    
C9    C20   A    
C10   C11   A    
C8    F3    S    
C15   C16   A    
C2    C10   A    
C11   H6    S    
Cu1   O1    S    
C12   C13   A    
C6    O6    A    
C7    C9    S    
C19   F4    S    
C20   H1    S    
C3    C5    D    
Cu1   O7    S    
C10   H4    S    
C9    C19   A    
Cu2   O8    S    
C4    O4    A    
C16   C17   A    
C1    C3    S    
C6    O5    A    
Cu2   O2    S    
