data_mof_unit_33842.cif
_audit_creation_date              2012-12-11T16:05:07-0500
_audit_creation_method            fapswitch 2.2
_symmetry_space_group_name_H-M    P1
_symmetry_Int_Tables_number       1
_space_group_crystal_system       triclinic
_cell_length_a                    10.631749
_cell_length_b                    10.632151
_cell_length_c                    16.794619
_cell_angle_alpha                 98.797309
_cell_angle_beta                  98.800079
_cell_angle_gamma                 61.159748
_cell_volume                      1636.51053007

loop_
_atom_site_label
_atom_site_type_symbol
_atom_type_description
_atom_site_fract_x
_atom_site_fract_y
_atom_site_fract_z
_atom_type_partial_charge
C1    C     C_R   0.382116 0.708223 0.386340 0.546610
C2    C     C_3   0.447231 0.643906 0.235064 -0.152651
C3    C     C_3   0.372481 0.750047 0.306395 0.030018
C4    C     C_R   0.406786 0.374490 0.357262 0.536736
C5    C     C_3   0.416461 0.858657 0.285989 -0.087137
C6    C     C_3   0.272991 0.927549 0.233501 -0.135237
C7    C     C_3   0.228660 0.819429 0.254747 -0.115805
C8    C     C_3   0.301843 0.713586 0.182637 -0.135427
C9    C     C_3   0.344407 0.822172 0.161633 0.068600
C10   C     C_3   0.432459 0.239503 0.767943 -0.092010
C11   C     C_3   0.362268 0.386954 0.733916 -0.106326
C12   C     C_3   0.778317 0.281107 0.250154 -0.124361
C13   C     C_3   0.321495 0.318318 0.653912 0.049067
C14   C     C_3   0.391207 0.171061 0.687678 -0.106507
C15   C     C_3   0.244290 0.210443 0.716723 -0.152060
C16   C     C_R   0.780972 0.374259 0.403187 0.533879
C17   C     C_3   0.174584 0.358743 0.681193 -0.130954
C18   C     C_3   0.215670 0.426619 0.762635 -0.103332
C19   C     C_3   0.286382 0.279014 0.796321 0.041407
C20   C     C_1   0.847988 0.327937 0.705507 -0.044488
C21   C     C_1   0.894483 0.294027 0.772925 -0.047302
C22   C     C_1   0.359052 0.762942 0.714605 -0.050507
C23   C     C_3   0.844525 0.333618 0.326944 0.047713
C24   C     C_1   0.327399 0.809694 0.782397 -0.044353
C25   C     C_R   0.965267 0.281263 0.102210 0.564024
C26   C     C_R   0.322616 0.303453 0.118982 0.546064
C27   C     C_R   0.299735 0.882511 0.084807 0.554258
C28   C     C_R   0.380419 0.714378 0.631553 0.559908
C29   C     C_R   0.943520 0.275193 0.856025 0.537360
C30   C     C_R   0.276930 0.251643 0.876960 0.540239
C31   C     C_R   0.282889 0.879437 0.860005 0.534752
C32   C     C_R   0.363655 0.342649 0.582139 0.550744
C33   C     C_R   0.779595 0.376857 0.628495 0.538776
C34   C     C_3   0.997091 0.225862 0.306270 -0.147586
C35   C     C_1   0.375555 0.362538 0.272379 -0.065989
C36   C     C_1   0.350195 0.344417 0.201104 -0.060380
C37   C     C_3   0.931436 0.173173 0.227403 -0.120365
C38   C     C_3   0.998366 0.341989 0.260851 -0.131277
C39   C     C_3   0.844905 0.449691 0.282921 -0.081759
C40   C     C_3   0.779205 0.396571 0.205676 -0.096871
C41   C     C_3   0.931442 0.290580 0.184183 0.041047
C42   C     C_3   0.488864 0.755259 0.212637 0.075849
Cr1   Cr    Cr6+3 0.608340 0.611040 0.520430 1.017043
Cr2   Cr    Cr6+3 0.287650 0.601120 0.489350 1.021325
Cr3   Cr    Cr6+3 0.604040 0.287870 0.490280 1.020506
Cr4   Cr    Cr6+3 0.054020 0.052700 0.970850 1.026927
Cr5   Cr    Cr6+3 0.059230 0.375120 0.993390 1.038099
Cr6   Cr    Cr6+3 0.374950 0.061200 0.992340 1.050266
H1    H     H_    0.687724 0.255937 0.247230 0.130376
H2    H     H_    0.144148 0.531093 0.794881 0.142190
H3    H     H_    0.964267 0.060739 0.201133 0.140203
H4    H     H_    0.083666 0.157193 0.350171 0.128154
H5    H     H_    0.089059 0.366747 0.263339 0.133395
H6    H     H_    0.809947 0.563052 0.308159 0.166939
H7    H     H_    0.693792 0.459339 0.159584 0.160638
H8    H     H_    0.511188 0.527121 0.240993 0.088263
H9    H     H_    0.461895 0.918223 0.330485 0.151878
H10   H     H_    0.213399 0.044411 0.227647 0.112288
H11   H     H_    0.121814 0.846305 0.272976 0.145400
H12   H     H_    0.255858 0.654331 0.138289 0.138007
H13   H     H_    0.411398 0.459802 0.739781 0.109556
H14   H     H_    0.539105 0.191390 0.803663 0.150438
H15   H     H_    0.462562 0.066498 0.655409 0.143806
H16   H     H_    0.196058 0.137030 0.711827 0.109360
H17   H     H_    0.070245 0.407278 0.643440 0.136036
I1    I     I_    0.672909 0.751328 0.172072 -0.377848
O1    O     O_R   0.751220 0.499230 0.435170 -0.527698
O2    O     O_R   0.412990 0.180750 0.091610 -0.480744
O3    O     O_R   0.366620 0.943130 0.065760 -0.471060
O4    O     O_R   0.477220 0.727600 0.436870 -0.491939
O5    O     O_R   0.160510 0.906330 0.879210 -0.512452
O6    O     O_R   0.930190 0.179050 0.889450 -0.478200
O7    O     O_R   0.909140 0.398170 0.896710 -0.491359
O8    O     O_R   0.186190 0.363460 0.918830 -0.511150
O9    O     O_R   0.401670 0.173200 0.913310 -0.504689
O10   O     O_R   0.356120 0.936130 0.900470 -0.506019
O11   O     O_3   0.162740 0.163010 0.985530 -0.325813
O12   O     O_R   0.297880 0.469080 0.560050 -0.509873
O13   O     O_R   0.258650 0.745120 0.411470 -0.510800
O14   O     O_R   0.297070 0.467240 0.395960 -0.505526
O15   O     O_R   0.488830 0.252610 0.387790 -0.496986
O16   O     O_R   0.724400 0.302390 0.420980 -0.513807
O17   O     O_R   0.752100 0.501210 0.612190 -0.515250
O18   O     O_R   0.478040 0.729440 0.600970 -0.483489
O19   O     O_R   0.259530 0.747110 0.588490 -0.495560
O20   O     O_R   0.489720 0.254590 0.564810 -0.509966
O21   O     O_R   0.725220 0.304230 0.585080 -0.489590
O22   O     O_3   0.500010 0.500010 0.500020 -0.310045
O23   O     O_R   0.171830 0.913880 0.057510 -0.530523
O24   O     O_R   0.940690 0.186050 0.054730 -0.488699
O25   O     O_R   0.920470 0.405720 0.075010 -0.475079
O26   O     O_R   0.196690 0.370460 0.084120 -0.511295

loop_
_geom_bond_atom_site_label_1
_geom_bond_atom_site_label_2
_ccdc_geom_bond_type
C5    C42   S    
C11   C18   S    
C28   O18   A    
C34   C37   S    
Cr1   O17   S    
Cr5   O26   S    
C6    H10   S    
C13   C32   S    
Cr3   O16   S    
Cr6   O3    S    
C6    C9    S    
C12   H1    S    
Cr3   O20   S    
C7    C8    S    
Cr4   O23   S    
C15   C19   S    
C12   C23   S    
C18   H2    S    
C9    C42   S    
Cr1   O22   S    
Cr3   O21   S    
C4    O14   A    
C3    C7    S    
C38   C39   S    
C30   O8    A    
C23   C39   S    
C39   H6    S    
C29   O7    A    
C26   O26   A    
C18   C19   S    
C12   C37   S    
Cr6   O10   S    
C4    O15   A    
C35   C36   T    
C8    C9    S    
C15   H16   S    
Cr4   O6    S    
C27   O3    A    
C29   O6    A    
C23   C34   S    
C31   O5    A    
C4    C35   S    
C22   C28   S    
C13   C14   S    
Cr1   O18   S    
Cr6   O9    S    
C10   H14   S    
C7    H11   S    
C2    C8    S    
C25   O25   A    
Cr2   O14   S    
Cr3   O22   S    
Cr5   O7    S    
C38   C41   S    
C10   C14   S    
C25   C41   S    
C39   C40   S    
C11   H13   S    
C21   C29   S    
C1    C3    S    
Cr6   O11   S    
C12   C40   S    
C17   H17   S    
C10   C19   S    
C40   H7    S    
C32   O20   A    
C16   O16   A    
C17   C18   S    
C25   O24   A    
C16   O1    A    
Cr6   O2    S    
C33   O17   A    
Cr4   O5    S    
C20   C33   S    
C26   C36   S    
C40   C41   S    
C16   C23   S    
C1    O13   A    
C22   C24   T    
Cr5   O11   S    
Cr2   O19   S    
C9    C27   S    
C15   C17   S    
C34   C38   S    
Cr5   O25   S    
Cr2   O13   S    
Cr3   O15   S    
Cr5   O8    S    
C3    C5    S    
Cr4   O11   S    
C6    C7    S    
Cr4   O24   S    
C5    H9    S    
Cr1   O4    S    
C34   H4    S    
C1    O4    A    
C13   C17   S    
C26   O2    A    
Cr2   O12   S    
C2    C3    S    
C33   O21   A    
C24   C31   S    
C2    H8    S    
C8    H12   S    
C30   O9    A    
C11   C13   S    
C31   O10   A    
C5    C6    S    
C38   H5    S    
C2    C42   S    
C37   H3    S    
C14   H15   S    
C27   O23   A    
C37   C41   S    
C10   C11   S    
C32   O12   A    
C20   C21   T    
Cr1   O1    S    
C28   O19   A    
C42   I1    S    
C14   C15   S    
Cr2   O22   S    
C19   C30   S    
