data_mof_unit_63620.cif
_audit_creation_date              2012-12-10T20:03:58-0500
_audit_creation_method            fapswitch 2.2
_symmetry_space_group_name_H-M    P1
_symmetry_Int_Tables_number       1
_space_group_crystal_system       triclinic
_cell_length_a                    19.179807
_cell_length_b                    18.441965
_cell_length_c                    10.757852
_cell_angle_alpha                 89.96862
_cell_angle_beta                  90.088877
_cell_angle_gamma                 90.329278
_cell_volume                      3805.12767934

loop_
_atom_site_label
_atom_site_type_symbol
_atom_type_description
_atom_site_fract_x
_atom_site_fract_y
_atom_site_fract_z
_atom_type_partial_charge
C1    C     C_R   0.365726 0.499832 0.495947 0.891644
C2    C     C_R   0.964525 0.439015 0.413087 -0.166369
C3    C     C_R   0.552435 0.726180 0.558108 -0.022414
C4    C     C_R   0.447684 0.725793 0.441915 -0.019198
C5    C     C_R   0.553960 0.802330 0.559267 0.067902
C6    C     C_R   0.446382 0.801935 0.440928 0.067430
C7    C     C_R   0.500227 0.841522 0.500152 -0.020282
C8    C     C_R   0.511477 0.961561 0.389676 -0.113438
C9    C     C_R   0.489397 0.961394 0.610726 -0.112719
C10   C     C_R   0.511288 0.037721 0.389513 -0.158841
C11   C     C_R   0.489762 0.037564 0.610886 -0.159631
C12   C     C_R   0.634468 0.500224 0.500952 0.890708
C13   C     C_R   0.500540 0.076936 0.500187 0.114963
C14   C     C_R   0.501379 0.499738 0.262195 0.984911
C15   C     C_R   0.499168 0.499658 0.737884 0.982999
C16   C     C_R   0.500368 0.922572 0.500191 0.160328
C17   C     C_R   0.531398 0.198019 0.597535 -0.239178
C18   C     C_R   0.469445 0.197480 0.402467 -0.242206
C19   C     C_R   0.530914 0.274126 0.595292 0.081134
C20   C     C_R   0.469609 0.273570 0.404489 0.075599
C21   C     C_R   0.500448 0.158332 0.500098 0.098678
C22   C     C_2   0.492633 0.439016 0.935969 0.193067
C23   C     C_R   0.709468 0.501056 0.487297 -0.075959
C24   C     C_2   0.512155 0.439846 0.064714 0.188901
C25   C     C_2   0.508428 0.497985 0.868700 -0.426825
C26   C     C_2   0.493717 0.498012 0.131171 -0.414378
C27   C     C_R   0.752041 0.451805 0.551707 0.154341
C28   C     C_R   0.260499 0.460059 0.379787 0.147498
C29   C     C_R   0.823388 0.452433 0.529631 -0.177163
C30   C     C_R   0.188956 0.463618 0.361650 -0.181198
C31   C     C_R   0.852345 0.501600 0.444403 0.068803
C32   C     C_R   0.147967 0.506630 0.439331 0.067105
C33   C     C_R   0.809816 0.550869 0.381638 -0.155473
C34   C     C_R   0.291133 0.499867 0.477568 -0.072165
C35   C     C_R   0.178896 0.547163 0.534984 -0.147026
C36   C     C_R   0.738693 0.550694 0.403281 -0.199816
C37   C     C_R   0.250351 0.544066 0.553518 -0.205294
C38   C     C_R   0.963169 0.570268 0.432566 -0.167433
C39   C     C_R   0.035461 0.571595 0.431551 -0.170047
C40   C     C_R   0.072452 0.506464 0.424627 0.111361
C41   C     C_R   0.927570 0.503783 0.426598 0.111416
C42   C     C_R   0.036760 0.440328 0.412227 -0.164711
H1    H     H_    0.520620 0.065964 0.302827 0.148581
H2    H     H_    0.480381 0.932593 0.697029 0.156733
H3    H     H_    0.556778 0.170532 0.674010 0.158869
H4    H     H_    0.444331 0.169572 0.325893 0.158342
H5    H     H_    0.555402 0.304124 0.669984 0.168653
H6    H     H_    0.445512 0.303068 0.329233 0.171975
H7    H     H_    0.534857 0.544455 0.910121 0.149164
H8    H     H_    0.466034 0.543148 0.089004 0.151463
H9    H     H_    0.831593 0.589028 0.315446 0.148007
H10   H     H_    0.147649 0.580013 0.596734 0.147212
H11   H     H_    0.064680 0.389510 0.407507 0.148927
H12   H     H_    0.480476 0.065679 0.697553 0.148360
H13   H     H_    0.937493 0.387388 0.407013 0.150195
H14   H     H_    0.593553 0.696123 0.603366 0.162926
H15   H     H_    0.406498 0.695444 0.396519 0.163990
H16   H     H_    0.856497 0.415722 0.581274 0.161137
H17   H     H_    0.165348 0.433423 0.286007 0.161748
H18   H     H_    0.706203 0.588437 0.352478 0.165451
H19   H     H_    0.273818 0.575520 0.627841 0.159492
H20   H     H_    0.935208 0.620716 0.443681 0.145680
H21   H     H_    0.062514 0.623110 0.439658 0.146203
H22   H     H_    0.520424 0.932898 0.303372 0.156615
I1    I     I_    0.431681 0.347860 0.876160 -0.280374
I2    I     I_    0.575510 0.351869 0.127459 -0.280562
I3    I     I_    0.640002 0.854028 0.647000 -0.355171
I4    I     I_    0.360512 0.852990 0.353231 -0.355502
I5    I     I_    0.713872 0.379244 0.689676 -0.338134
I6    I     I_    0.318181 0.398647 0.248842 -0.346711
N1    N     N_R   0.500000 0.689440 0.500000 -0.123232
N2    N     N_R   0.500000 0.310560 0.500000 -0.103628
O1    O     O_R   0.398180 0.560840 0.499970 -0.627883
O2    O     O_R   0.601820 0.560840 0.500030 -0.633988
O3    O     O_R   0.398180 0.439210 0.499910 -0.591424
O4    O     O_R   0.601820 0.439210 0.500090 -0.588709
O5    O     O_R   0.500000 0.560800 0.319070 -0.623000
O6    O     O_R   0.500000 0.560800 0.680930 -0.620051
O7    O     O_R   0.499990 0.439170 0.319010 -0.589579
O8    O     O_R   0.500010 0.439170 0.680990 -0.594357
Zn1   Zn    Zn3+2 0.500000 0.581210 0.500000 0.960821
Zn2   Zn    Zn3+2 0.500000 0.418790 0.500000 1.014738

loop_
_geom_bond_atom_site_label_1
_geom_bond_atom_site_label_2
_ccdc_geom_bond_type
C12   O2    A    
C27   C29   A    
C18   C21   A    
C5    I3    S    
C12   C23   S    
C35   C37   A    
C9    C16   A    
C17   H3    S    
C2    H13   S    
C26   H8    S    
C42   H11   S    
C38   C39   A    
C19   H5    S    
C15   C25   S    
C15   O6    A    
C2    C41   A    
C34   C37   A    
C33   C36   A    
C14   O5    A    
C22   C25   D    
C4    H15   S    
C31   C33   A    
C23   C27   A    
C27   I5    S    
C24   I2    S    
C6    I4    S    
C28   C34   A    
C8    C16   A    
C19   N2    A    
C18   H4    S    
O1    Zn1   S    
C1    C34   S    
C1    O3    A    
C32   C35   A    
C38   C41   A    
O8    Zn2   S    
O4    Zn2   S    
C39   C40   A    
C5    C7    A    
C36   H18   S    
C17   C21   A    
C3    N1    A    
C22   I1    S    
C3    H14   S    
C15   O8    A    
O5    Zn1   S    
C30   H17   S    
C13   C21   S    
C14   O7    A    
C14   C26   S    
C9    C11   A    
C20   H6    S    
C11   H12   S    
C8    H22   S    
C4    C6    A    
C7    C16   S    
C12   O4    A    
C22   C24   S    
O2    Zn1   S    
C9    H2    S    
C31   C41   S    
C10   H1    S    
C28   I6    S    
C24   C26   D    
C3    C5    A    
C10   C13   A    
O7    Zn2   S    
C37   H19   S    
O3    Zn2   S    
C6    C7    A    
C33   H9    S    
C39   H21   S    
C1    O1    A    
C28   C30   A    
C29   C31   A    
C30   C32   A    
C11   C13   A    
O6    Zn1   S    
C2    C42   A    
C40   C42   A    
C17   C19   A    
C18   C20   A    
C32   C40   S    
C25   H7    S    
C29   H16   S    
C8    C10   A    
C23   C36   A    
C35   H10   S    
C20   N2    A    
C38   H20   S    
C4    N1    A    
N2    Zn2   S    
N1    Zn1   S    
