data_mof_unit_9774.cif
_audit_creation_date              2012-12-11T18:06:54-0500
_audit_creation_method            fapswitch 2.2
_symmetry_space_group_name_H-M    P1
_symmetry_Int_Tables_number       1
_space_group_crystal_system       triclinic
_cell_length_a                    8.225506
_cell_length_b                    12.723651
_cell_length_c                    26.945722
_cell_angle_alpha                 97.12058
_cell_angle_beta                  92.669604
_cell_angle_gamma                 81.392698
_cell_volume                      2765.70200662

loop_
_atom_site_label
_atom_site_type_symbol
_atom_type_description
_atom_site_fract_x
_atom_site_fract_y
_atom_site_fract_z
_atom_type_partial_charge
Ba1   Ba    Ba6+2 0.859560 0.448380 0.523550 1.659364
Ba2   Ba    Ba6+2 0.330270 0.551530 0.476440 1.654645
C1    C     C_3   0.645376 0.082819 0.664130 -0.370015
C2    C     C_3   0.662054 0.183931 0.641236 0.332698
C3    C     C_3   0.479378 0.720608 0.628281 0.291077
C4    C     C_3   0.438792 0.765042 0.682055 -0.358166
C5    C     C_3   0.040592 0.779250 0.339073 0.326240
C6    C     C_3   0.069233 0.804185 0.286726 -0.255579
C7    C     C_3   0.548587 0.821286 0.360636 0.298329
C8    C     C_3   0.584538 0.914997 0.335217 -0.307185
C9    C     C_R   0.033263 0.418760 0.177209 0.636158
C10   C     C_R   0.892950 0.597874 0.177276 0.598573
C11   C     C_2   0.748562 0.544161 0.269807 -0.072139
C12   C     C_3   0.169315 0.214841 0.661191 0.287423
C13   C     C_3   0.704327 0.534838 0.322665 -0.050919
C14   C     C_1   0.989718 0.479716 0.342351 0.054039
C15   C     C_2   0.031796 0.474460 0.294615 -0.062840
C16   C     C_2   0.905935 0.511766 0.255260 0.192673
C17   C     C_R   0.006889 0.501946 0.099433 -0.083161
C18   C     C_R   0.063436 0.413595 0.125422 -0.093097
C19   C     C_R   0.134206 0.318103 0.098163 -0.056283
C20   C     C_R   0.917232 0.593397 0.125331 -0.052601
C21   C     C_2   0.850164 0.535503 0.358188 -0.283566
C22   C     C_2   0.353112 0.476961 0.641233 -0.284877
C23   C     C_3   0.137589 0.190411 0.713368 -0.325995
C24   C     C_R   0.178499 0.408240 0.971794 0.057656
C25   C     C_R   0.024213 0.589381 0.971523 0.040056
C26   C     C_R   0.122810 0.499042 0.946498 0.055594
C27   C     C_R   0.300073 0.329941 0.948500 -0.003025
C28   C     C_R   0.342428 0.330177 0.898995 -0.036590
C29   C     C_R   0.276121 0.414360 0.871820 -0.031170
C30   C     C_R   0.172479 0.501483 0.896360 -0.074693
C31   C     C_R   0.122991 0.592496 0.871444 -0.038053
C32   C     C_R   0.166307 0.591842 0.821100 0.611613
C33   C     C_R   0.317349 0.415489 0.821443 0.592358
C34   C     C_3   0.220728 0.226138 0.419587 0.328226
C35   C     C_2   0.459869 0.483750 0.729557 -0.063456
C36   C     C_3   0.501382 0.488449 0.675545 -0.056103
C37   C     C_1   0.208140 0.523839 0.656899 0.041753
C38   C     C_2   0.168623 0.526089 0.704436 -0.110448
C39   C     C_2   0.300865 0.502915 0.743855 0.198485
C40   C     C_R   0.125240 0.404013 0.021309 -0.037729
C41   C     C_R   0.036739 0.498115 0.047297 -0.008584
C42   C     C_R   0.971103 0.586575 0.021127 -0.014054
C43   C     C_R   0.151661 0.309564 0.046257 0.369879
C44   C     C_R   0.839862 0.674576 0.098032 -0.071769
C45   C     C_3   0.289215 0.109300 0.404749 -0.354672
C46   C     C_R   0.997409 0.683729 0.947888 0.014386
C47   C     C_R   0.038780 0.684217 0.898333 -0.021578
C48   C     C_R   0.851673 0.666736 0.046026 0.312493
C49   C     C_R   0.759417 0.821510 0.480127 -0.291324
C50   C     C_R   0.439226 0.191427 0.523917 -0.285090
C51   C     C_R   0.414219 0.011820 0.539002 -0.095383
C52   C     C_R   0.351951 0.119888 0.542599 -0.008719
C53   C     C_R   0.582283 0.154860 0.497282 0.087348
C54   C     C_R   0.644313 0.043064 0.491085 -0.067157
C55   C     C_R   0.559505 0.971446 0.513145 -0.062497
C56   C     C_3   0.982382 0.777310 0.581726 0.275853
C57   C     C_R   0.619225 0.860643 0.507313 0.045843
C58   C     C_R   0.847533 0.890355 0.460190 -0.007926
C59   C     C_R   0.787845 0.999959 0.463883 -0.075117
C60   C     C_3   0.984873 0.897013 0.593141 -0.335985
C61   C     C_3   0.730924 0.254829 0.366818 0.758323
C62   C     C_3   0.601356 0.325162 0.339395 -0.273946
H1    H     H_    0.770620 0.167402 0.616870 0.086295
H2    H     H_    0.396111 0.104607 0.380750 0.132852
H3    H     H_    0.327456 0.068419 0.438147 0.055713
H4    H     H_    0.195722 0.066489 0.383672 0.210132
H5    H     H_    0.855130 0.762223 0.573305 0.003669
H6    H     H_    0.059515 0.747443 0.548801 0.074584
H7    H     H_    0.917040 0.928269 0.627687 0.124468
H8    H     H_    0.926498 0.939242 0.561927 0.083770
H9    H     H_    0.113802 0.913058 0.598848 0.131138
H10   H     H_    0.821985 0.302325 0.386747 -0.103859
H11   H     H_    0.627434 0.017295 0.634029 0.082438
H12   H     H_    0.491182 0.284916 0.329593 0.155494
H13   H     H_    0.648748 0.343398 0.304065 0.088859
H14   H     H_    0.565887 0.399184 0.364696 0.057228
H15   H     H_    0.548902 0.205442 0.618635 -0.039936
H16   H     H_    0.537971 0.097168 0.688803 0.138823
H17   H     H_    0.366903 0.694303 0.609541 0.031787
H18   H     H_    0.579145 0.651372 0.628114 0.033135
H19   H     H_    0.344717 0.837559 0.682561 0.140053
H20   H     H_    0.388958 0.704967 0.701128 0.080251
H21   H     H_    0.551328 0.786571 0.702777 0.130611
H22   H     H_    0.757951 0.058338 0.686707 0.134148
H23   H     H_    0.177475 0.253162 0.741622 0.123593
H24   H     H_    0.121288 0.704178 0.345377 0.085777
H25   H     H_    0.910592 0.767364 0.341321 -0.050999
H26   H     H_    0.193774 0.826836 0.284830 0.156837
H27   H     H_    0.060124 0.732408 0.259458 0.098785
H28   H     H_    0.976082 0.871292 0.276623 0.151841
H29   H     H_    0.665094 0.786391 0.378630 -0.050595
H30   H     H_    0.456284 0.850901 0.389897 0.073323
H31   H     H_    0.636105 0.973846 0.363077 0.123634
H32   H     H_    0.469842 0.954229 0.317899 0.150294
H33   H     H_    0.105021 0.296273 0.656729 0.088393
H34   H     H_    0.675358 0.886513 0.305532 0.150979
H35   H     H_    0.157780 0.445647 0.284140 0.133581
H36   H     H_    0.163175 0.246374 0.116659 0.180703
H37   H     H_    0.559138 0.471463 0.757171 0.112815
H38   H     H_    0.431648 0.265358 0.882542 0.139487
H39   H     H_    0.368256 0.269061 0.968628 0.152067
H40   H     H_    0.651191 0.565973 0.242777 0.119874
H41   H     H_    0.755732 0.739811 0.116578 0.159084
H42   H     H_    0.948786 0.759544 0.967809 0.161003
H43   H     H_    0.303326 0.213358 0.657688 -0.023185
H44   H     H_    0.008855 0.758179 0.881641 0.139818
H45   H     H_    0.041334 0.546107 0.715185 0.129459
H46   H     H_    0.847773 0.593438 0.391396 0.062944
H47   H     H_    0.365446 0.432007 0.604274 0.070528
H48   H     H_    0.343539 0.960114 0.554894 0.102761
H49   H     H_    0.857515 0.049609 0.446331 0.146544
H50   H     H_    0.806051 0.736854 0.477079 0.060686
H51   H     H_    0.388870 0.275453 0.526994 0.066590
H52   H     H_    0.004212 0.189021 0.717423 0.149968
H53   H     H_    0.207106 0.111409 0.720090 0.123456
H54   H     H_    0.320935 0.268159 0.437149 -0.011260
H55   H     H_    0.122343 0.230792 0.446768 0.065227
N1    N     N_R   0.948836 0.510495 0.202886 -0.428104
N2    N     N_R   0.259680 0.502915 0.796114 -0.426421
O1    O     O_2   0.907040 0.557650 0.617910 -0.462733
O2    O     O_3   0.648895 0.202820 0.398430 -0.672369
O3    O     O_3   0.110190 0.137938 0.625809 -0.609048
O4    O     O_2   0.282660 0.442310 0.382060 -0.477080
O5    O     O_3   0.050670 0.442340 0.442260 -0.499194
O6    O     O_3   0.504750 0.639360 0.411530 -0.470337
O7    O     O_3   0.157614 0.270718 0.376548 -0.571283
O8    O     O_3   0.618400 0.630290 0.524520 -0.474614
O9    O     O_3   0.090070 0.694820 0.435810 -0.501348
O10   O     O_2   0.186233 0.883891 0.466011 -0.479996
O11   O     O_3   0.078033 0.864188 0.373975 -0.568682
O12   O     O_3   0.139040 0.557570 0.557730 -0.495886
O13   O     O_3   0.571310 0.369620 0.475470 -0.491643
O14   O     O_2   0.348200 0.764910 0.523260 -0.468843
O15   O     O_3   0.532424 0.801250 0.604974 -0.649094
O16   O     O_2   0.361781 0.572272 0.325616 -0.502766
O17   O     O_3   0.485327 0.747335 0.324596 -0.587050
O18   O     O_2   0.078252 0.340247 0.198972 -0.543961
O19   O     O_2   0.403723 0.338135 0.800067 -0.590565
O20   O     O_2   0.820720 0.679776 0.199622 -0.601012
O21   O     O_2   0.122759 0.671188 0.799786 -0.585195
O22   O     O_3   0.684960 0.360550 0.588460 -0.487376
O23   O     O_2   0.842943 0.422650 0.672628 -0.496028
O24   O     O_3   0.040731 0.729248 0.624225 -0.626219
O25   O     O_3   0.681803 0.266372 0.679685 -0.582848
O26   O     O_2   0.841490 0.235060 0.476710 -0.479894
O27   O     O_3   0.099640 0.305100 0.564190 -0.489253
O28   O     O_2   0.016817 0.115261 0.531821 -0.485881
P1    P     P_3+3 0.072810 0.589830 0.610360 0.995775
P2    P     P_3+3 0.661990 0.251250 0.462170 0.964733
P3    P     P_3+3 0.145378 0.167854 0.565966 0.937441
P4    P     P_3+3 0.116900 0.410080 0.389630 1.027311
P5    P     P_3+3 0.049708 0.833901 0.434271 0.965791
P6    P     P_3+3 0.677551 0.386531 0.653770 0.977164
P7    P     P_3+3 0.533048 0.764798 0.540250 0.937988
P8    P     P_3+3 0.515225 0.621789 0.346296 0.967508
S1    S     S_3+6 0.833376 0.154810 0.321699 -0.076429
O29   O     O_2   0.956242 0.201744 0.294832 -0.267907
O30   O     O_2   0.919232 0.063575 0.347689 -0.331831
O31   O     O_3   0.694558 0.108963 0.279899 -0.520712
H56   H     H_    0.758699 0.051246 0.257660 0.368411
S2    S     S_3+6 0.158203 0.177354 0.014845 -0.052548
O32   O     O_2   0.332510 0.121107 0.014746 -0.257947
O33   O     O_2   0.055755 0.116324 0.042399 -0.237472
O34   O     O_3   0.082289 0.178744 0.955821 -0.517132
H57   H     H_    0.102756 0.103162 0.940622 0.377704
S3    S     S_3+6 0.681666 0.737677 0.014825 -0.050281
O35   O     O_2   0.655697 0.684110 0.962724 -0.261479
O36   O     O_2   0.527938 0.740240 0.043325 -0.253908
O37   O     O_3   0.712838 0.864586 0.012361 -0.454580
H58   H     H_    0.728272 0.894484 0.047705 0.351866

loop_
_geom_bond_atom_site_label_1
_geom_bond_atom_site_label_2
_ccdc_geom_bond_type
C25   C46   A    
C56   C60   S    
C3    O15   S    
C53   C54   A    
C7    H29   S    
C62   H13   S    
C17   C18   A    
O37   H58   S    
Ba2   O8    S    
O31   H56   S    
C56   O24   S    
C5    C6    S    
C51   C52   A    
C54   C55   A    
C37   P1    S    
Ba2   O13   S    
C4    H21   S    
C11   C16   D    
O1    P1    D    
Ba2   P4    S    
S2    O33   D    
C35   C36   S    
C13   P8    S    
Ba1   O8    S    
C28   C29   A    
O15   P7    S    
C55   C57   A    
C9    N1    Am   
C31   C47   A    
C5    H25   S    
C44   H41   S    
C10   C20   A    
C23   H23   S    
C22   C37   D    
C10   O20   D    
C27   H39   S    
C34   C45   S    
Ba1   Ba2   S    
C39   N2    S    
C8    H34   S    
C34   H55   S    
C9    O18   D    
Ba1   O1    S    
S1    O31   S    
C10   N1    Am   
C25   C42   A    
S3    O37   S    
C46   H42   S    
O25   P6    S    
S2    O32   D    
C17   C41   A    
C14   C15   D    
C22   C36   S    
C60   H9    S    
C6    H28   S    
C1    H11   S    
C7    C8    S    
O6    P8    S    
C45   H2    S    
O24   P1    S    
C50   C53   A    
Ba2   O6    S    
C50   C52   A    
S3    O36   D    
O3    P3    S    
C1    H22   S    
S1    O30   D    
O34   H57   S    
C34   O7    S    
C22   H47   S    
C36   P6    S    
Ba1   O12   S    
C1    H16   S    
C26   C30   A    
C45   H3    S    
O4    P4    D    
C31   C32   A    
C47   H44   S    
C19   C43   A    
O2    P2    S    
C9    C18   A    
C49   H50   S    
C4    H20   S    
Ba2   O12   S    
C32   O21   D    
C33   N2    Am   
C17   C20   A    
C12   O3    S    
Ba1   O5    S    
C2    H15   S    
O28   P3    D    
C37   C38   D    
C19   H36   S    
C51   C55   A    
C56   H6    S    
C52   P3    S    
O14   P7    D    
C58   C59   A    
C40   C43   A    
O26   P2    D    
C41   C42   A    
O5    P4    S    
C27   C28   A    
Ba1   O22   S    
C33   O19   D    
C3    H17   S    
C7    O17   S    
O22   P6    S    
C29   C30   A    
C8    H32   S    
C2    O25   S    
C28   H38   S    
C15   C16   S    
C62   H12   S    
C60   H8    S    
Ba1   P1    S    
O9    P5    S    
C6    H27   S    
C11   H40   S    
C15   H35   S    
C5    O11   S    
O7    P4    S    
Ba2   O5    S    
C51   H48   S    
C38   C39   S    
C20   C44   A    
C32   N2    Am   
C11   C13   S    
C48   S3    S    
S1    O29   D    
C29   C33   A    
C23   H52   S    
C49   C57   A    
C40   C41   A    
Ba1   O13   S    
C16   N1    S    
C45   H4    S    
C14   P4    S    
C34   H54   S    
C24   C40   A    
C12   H33   S    
C12   H43   S    
C50   H51   S    
C42   C48   A    
C21   H46   S    
S3    O35   D    
C4    H19   S    
C62   H14   S    
O10   P5    D    
O12   P1    S    
O27   P3    S    
C23   H53   S    
C5    H24   S    
O8    P7    S    
C61   O2    S    
C57   P7    S    
C56   H5    S    
C53   P2    S    
C38   H45   S    
C61   H10   S    
C14   C21   D    
C44   C48   A    
C24   C26   A    
Ba2   O14   S    
O16   P8    D    
C30   C31   A    
O23   P6    D    
O11   P5    S    
C43   S2    S    
C35   H37   S    
C3    H18   S    
O17   P8    S    
C3    C4    S    
C8    H31   S    
C46   C47   A    
O13   P2    S    
C2    H1    S    
C13   C21   S    
Ba2   O9    S    
C60   H7    S    
Ba1   P2    S    
C12   C23   S    
C35   C39   D    
C58   P5    S    
Ba1   O26   S    
S2    O34   S    
C59   H49   S    
C61   C62   S    
Ba2   O4    S    
C6    H26   S    
C18   C19   A    
C24   C27   A    
C25   C26   A    
C54   C59   A    
Ba1   O27   S    
C49   C58   A    
C61   S1    S    
C7    H30   S    
C1    C2    S    
