data_mof_unit_9560.cif
_audit_creation_date              2012-12-10T20:28:44-0500
_audit_creation_method            fapswitch 2.2
_symmetry_space_group_name_H-M    P1
_symmetry_Int_Tables_number       1
_space_group_crystal_system       triclinic
_cell_length_a                    10.627028
_cell_length_b                    10.65741
_cell_length_c                    9.863253
_cell_angle_alpha                 89.953964
_cell_angle_beta                  89.910069
_cell_angle_gamma                 89.98554
_cell_volume                      1117.07667342

loop_
_atom_site_label
_atom_site_type_symbol
_atom_type_description
_atom_site_fract_x
_atom_site_fract_y
_atom_site_fract_z
_atom_type_partial_charge
C1    C     C_R   0.504786 0.259905 0.500007 0.869921
C2    C     C_R   0.542123 0.935284 0.376025 -0.214786
C3    C     C_R   0.527828 0.871239 0.499405 -0.069785
C4    C     C_R   0.260483 0.503756 0.500110 0.873096
C5    C     C_R   0.540154 0.935865 0.621328 0.019506
C6    C     C_3   0.465930 0.927303 0.750175 -0.515411
C7    C     C_3   0.465730 0.069984 0.750816 0.346858
C8    C     C_R   0.435566 0.409978 0.071386 0.226746
C9    C     C_R   0.572762 0.581628 0.071774 -0.135193
C10   C     C_R   0.572802 0.581619 0.927747 -0.141877
C11   C     C_R   0.435505 0.410076 0.928891 0.298998
C12   C     C_R   0.065726 0.612077 0.565913 0.096476
C13   C     C_3   0.297439 0.386075 0.923407 -0.503600
C14   C     C_3   0.297515 0.385812 0.077397 -0.513860
C15   C     C_R   0.504692 0.740101 0.499886 0.854775
C16   C     C_R   0.739501 0.503760 0.499894 0.860291
C17   C     C_R   0.130761 0.712576 0.628077 -0.193230
C18   C     C_R   0.064899 0.810213 0.690053 -0.139573
C19   C     C_R   0.933945 0.810310 0.689809 -0.134994
C20   C     C_R   0.868428 0.712776 0.627593 -0.189192
C21   C     C_R   0.933824 0.612186 0.565643 0.097830
C22   C     C_3   0.656277 0.129969 0.861508 0.144012
C23   C     C_R   0.128244 0.512499 0.499897 -0.101731
C24   C     C_3   0.707475 0.169920 0.998723 -0.852678
C25   C     C_R   0.064379 0.418721 0.430360 -0.222405
C26   C     C_R   0.935888 0.418769 0.430180 -0.210815
C27   C     C_R   0.871683 0.512670 0.499418 -0.096367
C28   C     C_R   0.541333 0.064070 0.621247 -0.022968
C29   C     C_R   0.527916 0.128755 0.499471 -0.133293
C30   C     C_R   0.541707 0.064883 0.376042 -0.202986
H1    H     H_    0.114364 0.343912 0.378682 0.149585
H2    H     H_    0.232301 0.717898 0.627506 0.146414
H3    H     H_    0.115629 0.886687 0.737121 0.127604
H4    H     H_    0.882931 0.886820 0.736682 0.123874
H5    H     H_    0.766886 0.718300 0.626813 0.143620
H6    H     H_    0.886161 0.343901 0.378530 0.153800
H7    H     H_    0.541775 0.113722 0.279716 0.179463
H8    H     H_    0.543088 0.886623 0.279622 0.169192
H9    H     H_    0.370840 0.886296 0.735021 0.166118
H10   H     H_    0.684323 0.201857 0.785387 0.162314
H11   H     H_    0.699203 0.037845 0.835337 0.127994
H12   H     H_    0.521268 0.884297 0.833741 0.209541
H13   H     H_    0.682733 0.098867 0.076699 0.248844
H14   H     H_    0.811514 0.178331 0.993345 0.209080
H15   H     H_    0.667395 0.262119 0.028383 0.255500
H16   H     H_    0.370198 0.109884 0.734653 0.091771
H17   H     H_    0.629483 0.649242 0.125974 0.150372
H18   H     H_    0.629598 0.649173 0.873207 0.148616
H19   H     H_    0.243982 0.465902 0.879186 0.219240
H20   H     H_    0.275481 0.292835 0.879002 0.206484
H21   H     H_    0.243947 0.465383 0.122000 0.224619
H22   H     H_    0.275807 0.292372 0.121780 0.206178
N1    N     N_R   0.499160 0.499140 0.142800 -0.115421
N2    N     N_R   0.499160 0.499180 0.857150 -0.118314
O1    O     O_R   0.500020 0.316790 0.614690 -0.613244
O2    O     O_R   0.500000 0.316760 0.385350 -0.617924
O3    O     O_R   0.316770 0.500020 0.614690 -0.625812
O4    O     O_R   0.316760 0.499980 0.385350 -0.613120
O5    O     O_R   0.500000 0.683240 0.614650 -0.628639
O6    O     O_R   0.499980 0.683210 0.385310 -0.623744
O7    O     O_R   0.683240 0.500020 0.614650 -0.624214
O8    O     O_R   0.683230 0.499980 0.385310 -0.614985
O9    O     O_3   0.523529 0.121387 0.869063 -0.600123
Zn1   Zn    Zn3+2 0.500010 0.500020 0.653130 0.939119
Zn2   Zn    Zn3+2 0.499990 0.499980 0.346870 0.942434

loop_
_geom_bond_atom_site_label_1
_geom_bond_atom_site_label_2
_ccdc_geom_bond_type
C8    N1    A    
C4    O3    A    
O7    Zn1   S    
C25   H1    S    
C6    C7    S    
C5    C28   A    
N1    Zn2   S    
C15   O6    A    
C2    H8    S    
O4    Zn2   S    
C19   C20   A    
C2    C30   A    
C22   H10   S    
O1    Zn1   S    
C16   C27   S    
C1    C29   S    
C17   C18   A    
C21   C27   A    
C13   C14   S    
C12   C17   A    
C11   C13   S    
C12   C23   A    
C7    O9    S    
O5    Zn1   S    
C29   C30   A    
C11   N2    A    
N2    Zn1   S    
C8    C11   A    
C13   H19   S    
C24   H15   S    
C9    C10   A    
C26   H6    S    
C28   C29   A    
C25   C26   A    
C1    O2    A    
O6    Zn2   S    
C9    H17   S    
C2    C3    A    
C23   C25   A    
C14   H21   S    
C10   H18   S    
C5    C6    S    
C24   H14   S    
C18   H3    S    
C22   C24   S    
C1    O1    A    
C22   H11   S    
C9    N1    A    
C16   O7    A    
C10   N2    A    
O2    Zn2   S    
C7    H16   S    
C3    C15   S    
C20   C21   A    
O3    Zn1   S    
C18   C19   A    
C6    H12   S    
C4    O4    A    
C24   H13   S    
C17   H2    S    
C6    H9    S    
C26   C27   A    
C8    C14   S    
O8    Zn2   S    
C22   O9    S    
C20   H5    S    
C15   O5    A    
C12   C21   A    
C16   O8    A    
C4    C23   S    
C14   H22   S    
C7    C28   S    
C13   H20   S    
C30   H7    S    
C3    C5    A    
C19   H4    S    
