data_mof_unit_35095.cif
_audit_creation_date              2012-12-11T15:23:45-0500
_audit_creation_method            fapswitch 2.2
_symmetry_space_group_name_H-M    P1
_symmetry_Int_Tables_number       1
_space_group_crystal_system       triclinic
_cell_length_a                    17.312044
_cell_length_b                    24.482758
_cell_length_c                    14.950099
_cell_angle_alpha                 89.744945
_cell_angle_beta                  125.691816
_cell_angle_gamma                 90.378041
_cell_volume                      5146.22123758

loop_
_atom_site_label
_atom_site_type_symbol
_atom_type_description
_atom_site_fract_x
_atom_site_fract_y
_atom_site_fract_z
_atom_type_partial_charge
C1    C     C_R   0.355452 0.347110 0.909866 -0.120530
C2    C     C_R   0.438308 0.498893 0.634639 0.041467
C3    C     C_R   0.085890 0.413956 0.825758 -0.138957
C4    C     C_R   0.113116 0.366244 0.888706 -0.111208
C5    C     C_R   0.098238 0.315456 0.838795 -0.074758
C6    C     C_R   0.057822 0.312299 0.726239 -0.127384
C7    C     C_R   0.030677 0.359978 0.662953 -0.197771
C8    C     C_R   0.460376 0.903075 0.331380 0.149163
C9    C     C_R   0.428174 0.885172 0.225872 -0.164816
C10   C     C_R   0.411206 0.829605 0.199954 -0.103264
C11   C     C_R   0.425647 0.791859 0.278815 -0.092985
C12   C     C_R   0.455508 0.809615 0.383067 -0.144056
C13   C     C_R   0.063571 0.998853 0.365947 0.042048
C14   C     C_R   0.473180 0.865023 0.409630 -0.198336
C15   C     C_R   0.669700 0.959217 0.461567 0.176130
C16   C     C_R   0.690443 0.905300 0.450554 -0.179494
C17   C     C_R   0.770205 0.894269 0.451756 -0.128011
C18   C     C_R   0.829635 0.936837 0.463564 -0.085878
C19   C     C_R   0.809816 0.990521 0.474967 -0.099288
C20   C     C_R   0.730409 0.001716 0.474315 -0.139632
C21   C     C_R   0.043565 0.998672 0.717400 0.031162
C22   C     C_R   0.175675 0.499846 0.727910 0.152394
C23   C     C_R   0.816810 0.496594 0.348447 0.156192
C24   C     C_R   0.681915 0.997609 0.654890 0.158660
C25   C     C_R   0.325414 0.998668 0.277104 0.149987
C26   C     C_2   0.916379 0.467679 0.542701 0.002695
C27   C     C_2   0.013594 0.462037 0.645753 0.023214
C28   C     C_2   0.488480 0.960687 0.363148 0.029361
C29   C     C_R   0.650068 0.348745 0.090703 -0.127989
C30   C     C_2   0.585365 0.972093 0.460755 0.006099
C31   C     C_2   0.906665 0.493044 0.455917 -0.308804
C32   C     C_2   0.073410 0.504406 0.674090 -0.296005
C33   C     C_2   0.426960 0.002576 0.324875 -0.282530
C34   C     C_2   0.593032 0.995394 0.547198 -0.322132
C35   C     C_R   0.258887 0.750636 0.920130 -0.216039
C36   C     C_R   0.842251 0.687238 0.101304 -0.170771
C37   C     C_R   0.660783 0.189282 0.899059 -0.169610
C38   C     C_R   0.332256 0.197147 0.102441 -0.172059
C39   C     C_R   0.614069 0.234895 0.899100 -0.171167
C40   C     C_R   0.850257 0.848422 0.909431 -0.125775
C41   C     C_R   0.391500 0.234978 0.102467 -0.175075
C42   C     C_R   0.193445 0.784166 0.913831 -0.181859
C43   C     C_R   0.888669 0.733425 0.101253 -0.175563
C44   C     C_R   0.647109 0.260901 0.998895 0.144206
C45   C     C_R   0.364257 0.258395 0.002434 0.141142
C46   C     C_R   0.169385 0.776873 0.987926 0.162282
C47   C     C_R   0.855259 0.759736 0.001414 0.143904
C48   C     C_R   0.714592 0.234791 0.098585 -0.172182
C49   C     C_R   0.293607 0.233349 0.903004 -0.164484
C50   C     C_R   0.206782 0.735000 0.064982 -0.185801
C51   C     C_R   0.148649 0.848224 0.088313 -0.132186
C52   C     C_R   0.788532 0.733249 0.901776 -0.173329
C53   C     C_R   0.271470 0.700697 0.069983 -0.193538
C54   C     C_R   0.742230 0.687042 0.901939 -0.171313
C55   C     C_R   0.761207 0.189164 0.098456 -0.169416
C56   C     C_R   0.234786 0.195044 0.902918 -0.189368
C57   C     C_R   0.431698 0.646274 0.091639 -0.158341
C58   C     C_R   0.598963 0.623875 0.909078 -0.127542
C59   C     C_R   0.902084 0.124570 0.091104 -0.127371
C60   C     C_R   0.087604 0.136634 0.909570 -0.132937
C61   C     C_R   0.298777 0.709974 0.999501 0.153737
C62   C     C_R   0.360086 0.672725 0.000016 0.050320
C63   C     C_R   0.761753 0.667829 0.001627 0.146078
C64   C     C_R   0.741197 0.169987 0.998717 0.145614
C65   C     C_R   0.247783 0.182135 0.002295 0.145831
C66   C     C_R   0.394783 0.547564 0.465558 -0.177945
C67   C     C_R   0.395545 0.547349 0.373573 -0.175709
C68   C     C_R   0.102402 0.047682 0.623213 -0.174895
C69   C     C_R   0.106610 0.047805 0.533734 -0.177069
C70   C     C_R   0.408965 0.497997 0.337257 0.147581
C71   C     C_R   0.405847 0.498344 0.520007 0.146858
C72   C     C_R   0.096310 0.998476 0.480464 0.146929
C73   C     C_R   0.688796 0.637484 0.001469 0.039469
C74   C     C_R   0.086779 0.998315 0.658142 0.147311
C75   C     C_R   0.399503 0.448508 0.377410 -0.186482
C76   C     C_R   0.398499 0.448660 0.469158 -0.180162
C77   C     C_R   0.102509 0.948857 0.531323 -0.182436
C78   C     C_R   0.098135 0.948786 0.620610 -0.186000
C79   C     C_R   0.480980 0.452999 0.249217 -0.108602
C80   C     C_R   0.454247 0.453543 0.698589 -0.124664
C81   C     C_R   0.046829 0.953503 0.302073 -0.125527
C82   C     C_R   0.016615 0.953184 0.748396 -0.105738
C83   C     C_R   0.232053 0.545052 0.750978 -0.146475
C84   C     C_R   0.812911 0.138902 0.998740 0.040513
C85   C     C_R   0.764144 0.543455 0.296429 -0.156371
C86   C     C_R   0.735627 0.044072 0.706221 -0.156110
C87   C     C_R   0.270143 0.044124 0.255666 -0.140430
C88   C     C_R   0.481771 0.544534 0.250772 -0.126019
C89   C     C_R   0.452770 0.544596 0.697211 -0.143153
C90   C     C_R   0.048127 0.044572 0.302828 -0.141663
C91   C     C_R   0.011687 0.044421 0.741249 -0.129441
C92   C     C_R   0.231907 0.453697 0.752977 -0.123299
C93   C     C_R   0.762067 0.452085 0.289822 -0.102159
C94   C     C_R   0.736691 0.952541 0.710797 -0.107253
C95   C     C_R   0.173217 0.154513 0.001532 0.037512
C96   C     C_R   0.267434 0.953140 0.248821 -0.127060
C97   C     C_R   0.340218 0.646870 0.907664 -0.134427
C98   C     C_R   0.690441 0.624714 0.093297 -0.123571
C99   C     C_R   0.810633 0.125676 0.906806 -0.123923
C100  C     C_R   0.178001 0.137389 0.092682 -0.131185
C101  C     C_R   0.447145 0.347269 0.092592 -0.146544
C102  C     C_R   0.558652 0.348958 0.907271 -0.125797
C103  C     C_R   0.941707 0.848586 0.092788 -0.124863
C104  C     C_R   0.053539 0.849017 0.905350 -0.157828
C105  C     C_R   0.388580 0.315023 0.001483 0.051943
C106  C     C_R   0.451209 0.498440 0.276668 0.029783
C107  C     C_R   0.621486 0.317573 0.998999 0.042141
C108  C     C_R   0.879382 0.816946 0.001173 0.041211
C109  C     C_R   0.118199 0.818986 0.994593 0.044841
C110  C     C_R   0.832180 0.451046 0.539602 0.179875
C111  C     C_R   0.800365 0.396583 0.519881 -0.162225
C112  C     C_R   0.718354 0.382302 0.512265 -0.127509
C113  C     C_R   0.667428 0.422227 0.523820 -0.084917
C114  C     C_R   0.698137 0.476579 0.542469 -0.097010
C115  C     C_R   0.780216 0.491001 0.550338 -0.149937
C116  C     C_R   0.043468 0.411147 0.712068 0.162028
H1    H     H_    0.317317 0.333751 0.825352 0.082862
H2    H     H_    0.863685 0.670794 0.179845 0.106172
H3    H     H_    0.639153 0.172973 0.820510 0.106089
H4    H     H_    0.349156 0.183635 0.180895 0.104297
H5    H     H_    0.558175 0.251994 0.820487 0.104330
H6    H     H_    0.450767 0.250366 0.181054 0.103479
H7    H     H_    0.166066 0.817637 0.855415 0.116685
H8    H     H_    0.944256 0.750770 0.179855 0.104670
H9    H     H_    0.738061 0.251849 0.177245 0.104016
H10   H     H_    0.275555 0.247736 0.824526 0.107226
H11   H     H_    0.188011 0.730036 0.122187 0.116697
H12   H     H_    0.689210 0.335286 0.175279 0.081391
H13   H     H_    0.765089 0.750483 0.823102 0.105404
H14   H     H_    0.300508 0.667380 0.128821 0.116185
H15   H     H_    0.684850 0.670492 0.823402 0.106104
H16   H     H_    0.818744 0.172844 0.177020 0.105954
H17   H     H_    0.174805 0.179959 0.824438 0.104060
H18   H     H_    0.394268 0.586614 0.498568 0.104804
H19   H     H_    0.395259 0.586246 0.338938 0.102488
H20   H     H_    0.102062 0.086557 0.656987 0.104908
H21   H     H_    0.108567 0.086837 0.501116 0.105135
H22   H     H_    0.403025 0.409516 0.346418 0.105692
H23   H     H_    0.811324 0.835029 0.824885 0.083289
H24   H     H_    0.401057 0.409708 0.504961 0.105604
H25   H     H_    0.100890 0.909888 0.496664 0.106233
H26   H     H_    0.093543 0.909782 0.651339 0.104973
H27   H     H_    0.469902 0.659570 0.176248 0.088300
H28   H     H_    0.571478 0.628764 0.823664 0.092366
H29   H     H_    0.929950 0.129556 0.176587 0.092332
H30   H     H_    0.054035 0.149951 0.826068 0.079770
H31   H     H_    0.471045 0.410478 0.259290 0.089035
H32   H     H_    0.438167 0.411411 0.672619 0.082570
H33   H     H_    0.063112 0.911434 0.328422 0.083067
H34   H     H_    0.195016 0.834276 0.172651 0.098201
H35   H     H_    0.026533 0.910837 0.738619 0.084271
H36   H     H_    0.209150 0.586920 0.737389 0.098426
H37   H     H_    0.781526 0.584292 0.330270 0.095083
H38   H     H_    0.718876 0.085030 0.672887 0.093186
H39   H     H_    0.296740 0.085162 0.278134 0.088078
H40   H     H_    0.474213 0.586464 0.265225 0.085449
H41   H     H_    0.434416 0.586279 0.668747 0.084501
H42   H     H_    0.066499 0.086351 0.330693 0.084441
H43   H     H_    0.010656 0.085547 0.715693 0.081356
H44   H     H_    0.210521 0.411428 0.742902 0.116724
H45   H     H_    0.968078 0.508359 0.460863 0.149914
H46   H     H_    0.777120 0.409641 0.314025 0.091059
H47   H     H_    0.720660 0.910399 0.684234 0.093917
H48   H     H_    0.286327 0.910835 0.256708 0.122075
H49   H     H_    0.293667 0.660520 0.823215 0.087200
H50   H     H_    0.747598 0.631304 0.178601 0.090030
H51   H     H_    0.753981 0.132915 0.821619 0.089768
H52   H     H_    0.226194 0.151771 0.175897 0.081639
H53   H     H_    0.494703 0.334173 0.177243 0.084063
H54   H     H_    0.513414 0.335921 0.822393 0.081898
H55   H     H_    0.987267 0.835518 0.177652 0.082169
H56   H     H_    0.043814 0.544099 0.636943 0.140323
H57   H     H_    0.010256 0.836350 0.819992 0.092443
H58   H     H_    0.837182 0.365427 0.507516 0.102408
H59   H     H_    0.693809 0.340332 0.496449 0.103118
H60   H     H_    0.603820 0.411111 0.517530 0.107074
H61   H     H_    0.658059 0.507552 0.550262 0.115631
H62   H     H_    0.802902 0.533339 0.563831 0.108302
H63   H     H_    0.097066 0.453060 0.865338 0.120704
H64   H     H_    0.145185 0.368619 0.976064 0.113604
H65   H     H_    0.118001 0.278617 0.887490 0.115768
H66   H     H_    0.047470 0.272901 0.688064 0.102884
H67   H     H_    0.456386 0.043720 0.349126 0.138259
H68   H     H_    0.000613 0.357084 0.576144 0.108827
H69   H     H_    0.418740 0.913966 0.165054 0.125476
H70   H     H_    0.388436 0.815772 0.119399 0.131772
H71   H     H_    0.414748 0.748761 0.259929 0.106306
H72   H     H_    0.466513 0.780329 0.443902 0.110491
H73   H     H_    0.498442 0.878195 0.491597 0.123763
H74   H     H_    0.646438 0.871596 0.442993 0.129250
H75   H     H_    0.786033 0.852646 0.443692 0.109523
H76   H     H_    0.891114 0.928198 0.464104 0.112952
H77   H     H_    0.856038 0.023465 0.484385 0.113681
H78   H     H_    0.530296 0.007455 0.542208 0.152933
H79   H     H_    0.715844 0.043554 0.483089 0.106230
H80   H     H_    0.279448 0.756819 0.864808 0.119307
N1    N     N_R   0.395440 0.396300 0.944370 -0.039806
N2    N     N_R   0.474910 0.470990 0.794360 -0.038136
N3    N     N_R   0.025090 0.970990 0.205640 -0.038343
N4    N     N_R   0.974910 0.970990 0.794360 -0.037600
N5    N     N_R   0.320240 0.527820 0.794510 -0.042698
N6    N     N_R   0.679760 0.527820 0.205490 -0.043254
N7    N     N_R   0.820240 0.027820 0.794510 -0.043218
N8    N     N_R   0.179760 0.027820 0.205490 -0.041349
N9    N     N_R   0.524580 0.527810 0.205160 -0.038658
N10   N     N_R   0.475420 0.527810 0.794840 -0.037715
N11   N     N_R   0.024580 0.027810 0.205160 -0.037995
N12   N     N_R   0.604560 0.396300 0.055630 -0.038370
N13   N     N_R   0.975420 0.027810 0.794840 -0.038155
N14   N     N_R   0.320750 0.470990 0.794990 -0.049250
N15   N     N_R   0.679250 0.470990 0.205010 -0.046824
N16   N     N_R   0.820750 0.970990 0.794990 -0.046664
N17   N     N_R   0.179250 0.970990 0.205010 -0.049012
N18   N     N_R   0.393580 0.602500 0.942610 -0.036972
N19   N     N_R   0.606420 0.602500 0.057390 -0.039515
N20   N     N_R   0.893580 0.102500 0.942610 -0.041122
N21   N     N_R   0.106420 0.102500 0.057390 -0.036943
N22   N     N_R   0.451750 0.396300 0.057540 -0.037819
N23   N     N_R   0.895440 0.896300 0.944370 -0.038369
N24   N     N_R   0.548250 0.396300 0.942460 -0.038072
N25   N     N_R   0.951750 0.896300 0.057540 -0.038169
N26   N     N_R   0.048250 0.896300 0.942460 -0.035294
N27   N     N_R   0.104560 0.896300 0.055630 -0.038800
N28   N     N_R   0.449890 0.602500 0.055780 -0.034591
N29   N     N_R   0.550110 0.602500 0.944220 -0.040565
N30   N     N_R   0.949890 0.102500 0.055780 -0.041599
N31   N     N_R   0.050110 0.102500 0.944220 -0.036725
N32   N     N_R   0.525090 0.470990 0.205640 -0.037743
Ni1   Ni    Ni4+2 0.435420 0.434250 0.870220 0.204740
Ni2   Ni    Ni4+2 0.564580 0.434250 0.129780 0.212355
Ni3   Ni    Ni4+2 0.935420 0.934250 0.870220 0.214246
Ni4   Ni    Ni4+2 0.064580 0.934250 0.129780 0.206711
Ni5   Ni    Ni4+2 0.563400 0.564580 0.128670 0.212903
Ni6   Ni    Ni4+2 0.436600 0.564580 0.871330 0.209211
Ni7   Ni    Ni4+2 0.063400 0.064580 0.128670 0.211008
Ni8   Ni    Ni4+2 0.936600 0.064580 0.871330 0.211776

loop_
_geom_bond_atom_site_label_1
_geom_bond_atom_site_label_2
_ccdc_geom_bond_type
N12   N24   A    
C48   C55   A    
C98   N19   A    
C31   H45   S    
C94   N16   A    
N15   Ni2   S    
C13   C90   A    
N2    N10   A    
C111  H58   S    
N31   Ni8   S    
C87   N8    A    
C92   N14   A    
C111  C112  A    
N19   Ni5   S    
N6    N15   A    
C91   N13   A    
N21   Ni7   S    
N32   Ni2   S    
C56   H17   S    
N2    Ni1   S    
N11   Ni7   S    
C57   C62   A    
C77   C78   A    
C17   H75   S    
C82   N4    A    
C54   H15   S    
C18   H76   S    
C26   C27   S    
C29   N12   A    
C22   C32   S    
C7    H68   S    
C6    H66   S    
C11   H71   S    
C52   H13   S    
C88   H40   S    
C55   H16   S    
C83   H36   S    
N8    Ni7   S    
C9    H69   S    
C3    C116  A    
C78   H26   S    
C104  C109  A    
C81   H33   S    
C7    C116  A    
C16   C17   A    
C99   N20   A    
C68   C74   A    
C56   C65   A    
C12   H72   S    
C40   H23   S    
C13   C81   A    
C25   C87   A    
N9    N32   A    
C18   C19   A    
C42   C46   A    
C5    H65   S    
C35   C42   A    
C59   N30   A    
C3    H63   S    
C110  C111  A    
C64   C84   S    
N24   Ni1   S    
C48   H9    S    
C66   H18   S    
C14   H73   S    
C53   C61   A    
C101  N22   A    
N14   Ni1   S    
N22   Ni2   S    
C19   C20   A    
C51   H34   S    
C51   N27   A    
C68   C69   A    
C93   N15   A    
C101  H53   S    
C103  C108  A    
N4    Ni3   S    
C36   C63   A    
C36   H2    S    
C9    C10   A    
C26   C110  S    
C20   H79   S    
C91   H43   S    
C82   H35   S    
C83   N5    A    
C40   C108  A    
C38   H4    S    
C27   C116  S    
C52   C54   A    
C66   C67   A    
C32   H56   S    
C104  H57   S    
C26   C31   D    
C51   C109  A    
C103  H55   S    
N18   Ni6   S    
C60   H30   S    
C4    H64   S    
C25   C96   A    
C104  N26   A    
C112  C113  A    
C45   C105  S    
C42   H7    S    
C114  C115  A    
C6    C7    A    
C99   H51   S    
C76   H24   S    
C69   H21   S    
C73   C98   A    
C110  C115  A    
C50   C53   A    
C15   C16   A    
C57   H27   S    
C65   C95   S    
C68   H20   S    
C59   C84   A    
C38   C41   A    
C70   C106  S    
N16   Ni3   S    
C30   C34   D    
C95   C100  A    
C8    C9    A    
C79   H31   S    
C63   C73   S    
N8    N17   A    
C75   H22   S    
N20   N30   A    
N30   Ni7   S    
C96   H48   S    
C79   C106  A    
C74   C78   A    
C15   C20   A    
N19   N29   A    
C23   C31   S    
C41   H6    S    
C90   H42   S    
C2    C89   A    
C67   H19   S    
C75   C76   A    
C66   C71   A    
C33   H67   S    
C72   C77   A    
C49   H10   S    
C24   C94   A    
N23   N25   A    
C62   C97   A    
C88   C106  A    
C58   C73   A    
C89   N10   A    
C37   H3    S    
C38   C65   A    
C45   C49   A    
C114  H61   S    
C80   N2    A    
C55   C64   A    
N3    N11   A    
C17   C18   A    
C3    C4    A    
C102  C107  A    
C35   C61   A    
C85   H37   S    
C2    C71   S    
C58   N29   A    
C98   H50   S    
N17   Ni4   S    
C16   H74   S    
C35   H80   S    
N21   N31   A    
C113  H60   S    
C85   N6    A    
C71   C76   A    
C12   C14   A    
N26   Ni3   S    
C19   H77   S    
C88   N9    A    
N1    Ni1   S    
C97   N18   A    
N28   Ni5   S    
C23   C85   A    
C8    C28   S    
C87   H39   S    
N7    N16   A    
C46   C109  S    
N29   Ni6   S    
C39   C44   A    
N1    N22   A    
C59   H29   S    
C79   N32   A    
C69   C72   A    
N27   Ni4   S    
C15   C30   S    
C113  C114  A    
C21   C91   A    
C44   C107  S    
C8    C14   A    
C27   C32   D    
C84   C99   A    
C1    N1    A    
N23   Ni3   S    
C4    C5    A    
N3    Ni4   S    
C100  N21   A    
C28   C33   D    
C11   C12   A    
C89   H41   S    
C47   C52   A    
C50   H11   S    
C13   C72   S    
C102  N24   A    
C49   C56   A    
C46   C50   A    
N4    N13   A    
C39   H5    S    
C1    C105  A    
C100  H52   S    
C92   H44   S    
C67   C70   A    
C10   C11   A    
C22   C83   A    
C60   N31   A    
C28   C30   S    
C86   H38   S    
N5    N14   A    
N7    Ni8   S    
C40   N23   A    
C41   C45   A    
C103  N25   A    
N6    Ni5   S    
C34   H78   S    
N5    Ni6   S    
C5    C6    A    
C93   H46   S    
C24   C86   A    
C102  H54   S    
N10   Ni6   S    
C97   H49   S    
C21   C74   S    
N25   Ni4   S    
N9    Ni5   S    
C10   H70   S    
N20   Ni8   S    
N18   N28   A    
C58   H28   S    
C61   C62   S    
N26   N27   A    
C101  C105  A    
C24   C34   S    
N13   Ni8   S    
C115  H62   S    
C2    C80   A    
C81   N3    A    
C96   N17   A    
C90   N11   A    
C60   C95   A    
C23   C93   A    
C80   H32   S    
C112  H59   S    
C21   C82   A    
C43   H8    S    
C77   H25   S    
C37   C39   A    
C47   C108  S    
C54   C63   A    
C29   H12   S    
N12   Ni2   S    
C70   C75   A    
C22   C92   A    
C29   C107  A    
C36   C43   A    
C53   H14   S    
C37   C64   A    
C1    H1    S    
C43   C47   A    
C94   H47   S    
C44   C48   A    
C86   N7    A    
C25   C33   S    
C57   N28   A    
