data_mof_unit_26714.cif
_audit_creation_date              2013-03-05T15:41:05-0500
_audit_creation_method            fapswitch 2.2
_symmetry_space_group_name_H-M    P1
_symmetry_Int_Tables_number       1
_space_group_crystal_system       triclinic
_cell_length_a                    11.078197
_cell_length_b                    11.120643
_cell_length_c                    18.76493
_cell_angle_alpha                 90.065468
_cell_angle_beta                  89.166165
_cell_angle_gamma                 60.587213
_cell_volume                      2013.49425247

loop_
_atom_site_label
_atom_site_type_symbol
_atom_site_description
_atom_site_fract_x
_atom_site_fract_y
_atom_site_fract_z
_atom_type_partial_charge
O1    O     O_R   0.507110 0.256280 0.580300 -0.466854
O2    O     O_R   0.280830 0.527190 0.577940 -0.507712
C1    C     C_R   0.235401 0.646153 0.608255 0.599660
O3    O     O_R   0.261360 0.738990 0.584270 -0.455970
O4    O     O_R   0.532590 0.694780 0.574370 -0.479382
C2    C     C_R   0.651030 0.617923 0.603131 0.557716
O5    O     O_R   0.744470 0.503750 0.577000 -0.510043
O6    O     O_R   0.698520 0.277230 0.571620 -0.488435
C3    C     C_R   0.627821 0.227933 0.601414 0.607588
O7    O     O_R   0.498530 0.256920 0.419280 -0.455296
O8    O     O_R   0.272880 0.527780 0.428680 -0.468078
C4    C     C_R   0.229248 0.647083 0.399566 0.554168
O9    O     O_R   0.252780 0.739630 0.423250 -0.502247
O10   O     O_R   0.524640 0.695370 0.425100 -0.473988
C5    C     C_R   0.642809 0.619181 0.392722 0.570230
O11   O     O_R   0.735890 0.504390 0.415980 -0.472057
O12   O     O_R   0.690560 0.277820 0.422350 -0.487997
C6    C     C_R   0.619998 0.223419 0.397179 0.560816
Cr1   Cr    Cr6+3 0.393010 0.398050 0.501480 1.145895
Cr2   Cr    Cr6+3 0.398820 0.707980 0.501630 1.137968
Cr3   Cr    Cr6+3 0.708140 0.393940 0.496850 1.120538
O13   O     O_3   0.499990 0.499990 0.499980 -0.312006
C7    C     C_3   0.565900 0.795411 0.786328 -0.225588
H1    H     H_    0.559819 0.894201 0.801845 0.205234
H2    H     H_    0.471539 0.800626 0.810485 0.196141
C8    C     C_3   0.562798 0.788746 0.704547 -0.204729
H3    H     H_    0.455336 0.826450 0.686479 0.228159
H4    H     H_    0.594245 0.859694 0.680031 0.168266
H5    H     H_    0.832609 0.691397 0.654606 0.157861
C9    C     C_3   0.826432 0.653003 0.769220 -0.069970
C10   C     C_3   0.688915 0.534468 0.806509 0.224203
C11   C     C_3   0.700512 0.667557 0.814819 0.018984
C12   C     C_3   0.668372 0.640737 0.679196 -0.017225
C13   C     C_3   0.814106 0.622411 0.690579 -0.264649
C14   C     C_3   0.653636 0.529698 0.726010 0.118972
H6    H     H_    0.726550 0.428332 0.704561 0.166017
H7    H     H_    0.926639 0.572556 0.789543 0.218432
H8    H     H_    0.895417 0.515303 0.676803 0.188202
C15   C     C_2   0.667773 0.167925 0.672616 0.116709
C16   C     C_2   0.685029 0.186705 0.834492 -0.041042
C17   C     C_2   0.790747 0.146733 0.787154 -0.043218
C18   C     C_2   0.773490 0.169935 0.708766 0.089935
H9    H     H_    0.895316 0.082650 0.805671 0.214114
H10   H     H_    0.580691 0.261557 0.819891 0.184084
C19   C     C_2   0.179327 0.668173 0.681250 0.126413
C20   C     C_2   0.204352 0.651175 0.844542 -0.024334
C21   C     C_2   0.196470 0.557284 0.801733 0.095073
C22   C     C_2   0.205767 0.558352 0.722680 -0.045622
H11   H     H_    0.240582 0.458981 0.696882 0.180586
H12   H     H_    0.247855 0.712915 0.826776 0.191732
C23   C     C_2   0.658713 0.645465 0.318033 -0.044139
C24   C     C_2   0.637905 0.664602 0.160359 -0.122950
C25   C     C_2   0.720153 0.548777 0.195211 -0.141956
C26   C     C_2   0.737524 0.539864 0.272330 0.088348
H13   H     H_    0.798373 0.460262 0.165309 0.190108
H14   H     H_    0.551341 0.751927 0.186113 0.155445
H15   H     H_    0.584413 0.745591 0.298429 0.138154
C27   C     C_2   0.668623 0.134216 0.333774 0.021935
C28   C     C_2   0.643086 0.160280 0.178157 -0.123798
C29   C     C_2   0.558893 0.132191 0.219892 0.165655
C30   C     C_2   0.577004 0.110950 0.297800 0.180813
H16   H     H_    0.714318 0.189058 0.201091 0.101932
C31   C     C_2   0.179438 0.668296 0.327383 0.223882
C32   C     C_2   0.190318 0.645250 0.168600 -0.076678
C33   C     C_2   0.220572 0.729275 0.204730 -0.136671
C34   C     C_2   0.223503 0.735263 0.281520 0.043615
H17   H     H_    0.222401 0.814575 0.177389 0.194000
H18   H     H_    0.204407 0.548688 0.189822 0.188223
O14   O     O_R   0.089190 0.825870 0.932320 -0.493938
O15   O     O_R   0.819070 0.053960 0.931440 -0.470521
C35   C     C_R   0.702066 0.106903 0.899787 0.581650
O16   O     O_R   0.607070 0.076440 0.916460 -0.481993
O17   O     O_R   0.647110 0.806550 0.917690 -0.507372
C36   C     C_R   0.724748 0.687648 0.889318 0.586581
O18   O     O_R   0.837080 0.593860 0.915300 -0.446148
O19   O     O_R   0.064770 0.636080 0.932550 -0.478446
C37   C     C_R   0.121496 0.703861 0.909458 0.552186
O20   O     O_R   0.068250 0.829200 0.092940 -0.506792
O21   O     O_R   0.799650 0.057040 0.080330 -0.489050
C38   C     C_R   0.674545 0.105836 0.105094 0.565935
O22   O     O_R   0.586130 0.079760 0.077080 -0.445624
O23   O     O_R   0.627700 0.809630 0.066580 -0.472432
C39   C     C_R   0.692514 0.688619 0.094237 0.573928
O24   O     O_R   0.816140 0.597180 0.075920 -0.489209
O25   O     O_R   0.045360 0.639170 0.081440 -0.471660
C40   C     C_R   0.102905 0.704311 0.107930 0.575273
Cr4   Cr    Cr6+3 0.937950 0.938450 0.008940 1.112165
Cr5   Cr    Cr6+3 0.626180 0.937030 0.994750 1.124899
Cr6   Cr    Cr6+3 0.937790 0.625760 0.001410 1.140908
O26   O     O_3   0.833980 0.833750 0.001700 -0.297327
I1    I     I_    0.937671 0.191515 0.653923 -0.175992
I2    I     I_    0.509418 0.131835 0.718625 -0.325410
I3    I     I_    0.203350 0.376692 0.845423 -0.164030
I4    I     I_    0.117833 0.870758 0.718675 -0.262484
I5    I     I_    0.916376 0.347924 0.299308 -0.069269
N1    N     N_R   0.443951 0.125384 0.189299 0.146371
O27   O     O_R   0.346698 0.232688 0.157682 -0.289050
O28   O     O_R   0.434039 0.014100 0.194996 -0.304128
N2    N     N_R   0.477886 0.086758 0.336922 0.123236
O29   O     O_R   0.345473 0.166381 0.328151 -0.200367
O30   O     O_R   0.519883 0.996011 0.387630 -0.314154
I6    I     I_    0.883438 0.023607 0.309702 -0.235681
I7    I     I_    0.283011 0.887727 0.308308 -0.127674
N3    N     N_R   0.096904 0.607664 0.305655 0.043065
O31   O     O_R   0.979878 0.682812 0.273884 -0.319425
O32   O     O_R   0.127403 0.484756 0.326907 -0.249713
I8    I     I_    0.843868 0.831615 0.779498 -0.426439
N4    N     N_R   0.820867 0.409202 0.824947 0.068569
O33   O     O_R   0.929185 0.360961 0.783048 -0.349983
O34   O     O_R   0.834421 0.348695 0.886006 -0.285534
I9    I     I_    0.532878 0.543534 0.884009 -0.291617
N5    N     N_R   0.516738 0.545121 0.718940 0.056301
O35   O     O_R   0.409745 0.660857 0.735719 -0.398041
O36   O     O_R   0.500480 0.439999 0.705527 -0.384733

loop_
_geom_bond_atom_site_label_1
_geom_bond_atom_site_label_2
_geom_bond_distance
_ccdc_geom_bond_type
O20   Cr4   2.095799 S    
C17   C18   1.492457 S    
O11   Cr3   2.065816 S    
C16   C35   1.472802 S    
C9    I8    2.096865 S    
C10   N4    1.487565 S    
O14   C37   1.292411 A    
C14   H6    1.086434 S    
N3    O32   1.301139 A    
O4    Cr2   1.981526 S    
O25   C40   1.280733 A    
O8    Cr1   1.972375 S    
C8    H3    1.108965 S    
C32   H18   1.083624 S    
C11   C36   1.464731 S    
O4    C2    1.289800 A    
O15   Cr4   1.974293 S    
C5    O11   1.266823 A    
C3    C15   1.468177 S    
N4    O33   1.298145 A    
C18   I1    2.190802 S    
O17   C36   1.280484 A    
C7    C8    1.538029 S    
N5    O35   1.284680 A    
C6    C27   1.464107 S    
C39   O24   1.282762 A    
O6    C3    1.279155 A    
C33   H17   1.087726 S    
N1    O28   1.299403 A    
C7    H1    1.105566 S    
O15   C35   1.285768 A    
C23   H15   1.078051 S    
C5    C23   1.457778 S    
O14   Cr4   2.075399 S    
O19   Cr6   1.941050 S    
O20   C40   1.278953 A    
C27   C30   1.352875 D    
C31   C34   1.371085 D    
C28   C29   1.358798 D    
O21   Cr4   1.957766 S    
C17   H9    1.082592 S    
C30   N2    1.443667 S    
C19   I4    2.123149 S    
C32   C40   1.440255 S    
N3    O31   1.301565 A    
O16   Cr5   2.073281 S    
C12   C13   1.542936 S    
C15   C18   1.371523 D    
C25   H13   1.086948 S    
O1    Cr1   2.091250 S    
C36   O18   1.272063 A    
C9    C13   1.537002 S    
O10   Cr2   1.942712 S    
Cr1   O13   2.002300 S    
O1    C3    1.283070 A    
O19   C37   1.268429 A    
C4    C31   1.445498 S    
O25   Cr6   1.980844 S    
C31   N3    1.439654 S    
O5    Cr3   2.100334 S    
H5    C13   1.112596 S    
C1    C19   1.465305 S    
O12   Cr3   1.977536 S    
C9    H7    1.102630 S    
C29   C30   1.481916 S    
C24   C39   1.454114 S    
O17   Cr5   1.976160 S    
C8    C12   1.547445 S    
C21   C22   1.485972 S    
O7    Cr1   2.085408 S    
N1    O27   1.301602 A    
O12   C6    1.294106 A    
C21   I3    2.136927 S    
C26   I5    2.148470 S    
C27   I6    2.114873 S    
N5    O36   1.292218 A    
C29   N1    1.439633 S    
C16   C17   1.347507 D    
N2    O30   1.301631 A    
Cr2   O13   2.014852 S    
O23   C39   1.288121 A    
C10   C14   1.573110 S    
O24   Cr6   2.058877 S    
C1    O3    1.280640 A    
C15   I2    2.152248 S    
C24   C25   1.335490 D    
C19   C22   1.356159 D    
C20   C21   1.353803 D    
C22   H11   1.085824 S    
C28   H16   1.080726 S    
O9    Cr2   2.101365 S    
O2    Cr1   1.963634 S    
C13   H8    1.111605 S    
C34   I7    2.160437 S    
C10   C11   1.555042 S    
Cr5   O26   2.011900 S    
C38   O22   1.270209 A    
O6    Cr3   1.949383 S    
C28   C38   1.464460 S    
C20   C37   1.451663 S    
O8    C4    1.292977 A    
C25   C26   1.459702 S    
C2    O5    1.271592 A    
C20   H12   1.065666 S    
C8    H4    1.105275 S    
C2    C12   1.481099 S    
C23   C26   1.358577 D    
C32   C33   1.325839 D    
O2    C1    1.289603 A    
C35   O16   1.288789 A    
N2    O29   1.301733 A    
C7    C11   1.572779 S    
C9    C11   1.564443 S    
O7    C6    1.269872 A    
O23   Cr5   1.950875 S    
C12   C14   1.587270 S    
N4    O34   1.302152 A    
C7    H2    1.108236 S    
O22   Cr5   2.094215 S    
O18   Cr6   2.102728 S    
O21   C38   1.293539 A    
O3    Cr2   2.063226 S    
C16   H10   1.081081 S    
C4    O9    1.261167 A    
C33   C34   1.443995 S    
Cr4   O26   2.005534 S    
C10   I9    2.206468 S    
O10   C5    1.298850 A    
Cr6   O26   2.014853 S    
Cr3   O13   2.009088 S    
C14   N5    1.448263 S    
C24   H14   1.080262 S    
