data_mof_unit_51756.cif
_audit_creation_date              2012-12-11T16:37:23-0500
_audit_creation_method            fapswitch 2.2
_symmetry_space_group_name_H-M    P1
_symmetry_Int_Tables_number       1
_space_group_crystal_system       triclinic
_cell_length_a                    19.522936
_cell_length_b                    7.048552
_cell_length_c                    17.632449
_cell_angle_alpha                 90.12198
_cell_angle_beta                  108.871787
_cell_angle_gamma                 89.869981
_cell_volume                      2295.93487591

loop_
_atom_site_label
_atom_site_type_symbol
_atom_type_description
_atom_site_fract_x
_atom_site_fract_y
_atom_site_fract_z
_atom_type_partial_charge
O1    O     O_R   0.561710 0.369960 0.440200 -0.531886
O2    O     O_R   0.061710 0.630040 0.940200 -0.536654
O3    O     O_R   0.412630 0.033330 0.406330 -0.538459
O4    O     O_R   0.912630 0.966670 0.906330 -0.534803
O5    O     O_R   0.438290 0.869790 0.559800 -0.543664
O6    O     O_R   0.938290 0.130210 0.059800 -0.548112
C1    C     C_R   0.385427 0.204786 0.383343 0.747213
C2    C     C_R   0.885340 0.795259 0.883492 0.756733
O7    O     O_R   0.559570 0.039810 0.430640 -0.516397
O8    O     O_R   0.059570 0.960190 0.930640 -0.511111
O9    O     O_R   0.586280 0.876320 0.584290 -0.519334
O10   O     O_R   0.086280 0.123680 0.084290 -0.524233
C3    C     C_R   0.581588 0.207992 0.416483 0.819474
C4    C     C_R   0.080317 0.791194 0.914811 0.815922
O11   O     O_R   0.413720 0.363440 0.415710 -0.548312
O12   O     O_R   0.913720 0.636560 0.915710 -0.545970
O13   O     O_3   0.508590 0.205630 0.550380 -0.352339
O14   O     O_3   0.008590 0.794370 0.050380 -0.344517
V1    V     V_3+5 0.498410 0.928130 0.490650 1.673666
V2    V     V_3+5 0.998410 0.071870 0.990650 1.689342
O15   O     O_R   0.587370 0.546990 0.593670 -0.506462
O16   O     O_R   0.087370 0.453010 0.093670 -0.508711
C5    C     C_R   0.615104 0.717492 0.616730 0.858613
C6    C     C_R   0.115147 0.282511 0.116645 0.811122
O17   O     O_R   0.440430 0.540520 0.569360 -0.531691
O18   O     O_R   0.940430 0.459480 0.069360 -0.518993
C7    C     C_R   0.419728 0.709173 0.584482 0.735994
C8    C     C_R   0.920076 0.291435 0.085513 0.732285
V3    V     V_3+5 0.501590 0.428960 0.509350 1.686619
V4    V     V_3+5 0.001590 0.571040 0.009350 1.703343
O19   O     O_3   0.491410 0.701330 0.449620 -0.371658
O20   O     O_3   0.991410 0.298670 0.949620 -0.362889
C9    C     C_R   0.253527 0.790583 0.645629 -0.090282
C10   C     C_R   0.775897 0.116794 0.170248 -0.071899
C11   C     C_R   0.300551 0.783985 0.600250 -0.187729
C12   C     C_R   0.824076 0.127528 0.126428 -0.125760
H1    H     H_    0.280881 0.826846 0.537945 0.187898
H2    H     H_    0.823530 0.014764 0.084394 0.178687
C13   C     C_R   0.371871 0.718989 0.634317 -0.133839
C14   C     C_R   0.871324 0.282888 0.135398 -0.132865
C15   C     C_R   0.396287 0.664600 0.715530 0.369487
C16   C     C_R   0.870041 0.426671 0.191403 0.366286
C17   C     C_R   0.349469 0.676026 0.761340 -0.040794
C18   C     C_R   0.821655 0.414064 0.235119 -0.073604
H3    H     H_    0.369934 0.640249 0.824382 0.203789
H4    H     H_    0.822323 0.523133 0.278749 0.184510
C19   C     C_R   0.277142 0.735317 0.726632 0.062184
C20   C     C_R   0.773502 0.261217 0.224214 0.064864
C21   C     C_R   0.218844 0.596376 0.824353 0.436049
C22   C     C_R   0.675490 0.397639 0.274193 0.449298
C23   C     C_R   0.171298 0.614609 0.868923 -0.117265
C24   C     C_R   0.630364 0.381443 0.321559 -0.156224
C25   C     C_R   0.129662 0.779985 0.865229 -0.202260
C26   C     C_R   0.630513 0.217008 0.366774 -0.201512
C27   C     C_R   0.136451 0.928671 0.814080 0.419640
C28   C     C_R   0.677661 0.066317 0.363339 0.446406
C29   C     C_R   0.184694 0.910818 0.770327 -0.141605
C30   C     C_R   0.722889 0.083319 0.316120 -0.152531
C31   C     C_R   0.226828 0.746629 0.774972 -0.062956
C32   C     C_R   0.722944 0.248195 0.271659 -0.061538
C33   C     C_R   0.780138 0.597438 0.796092 -0.061211
C34   C     C_R   0.280258 0.402695 0.295845 -0.067506
C35   C     C_R   0.816421 0.773246 0.816248 -0.086967
C36   C     C_R   0.316676 0.226800 0.315814 -0.079585
C37   C     C_R   0.771949 0.928468 0.785955 0.267435
C38   C     C_R   0.272381 0.071610 0.285257 0.272584
C39   C     C_R   0.722285 0.905740 0.707094 0.411877
C40   C     C_R   0.222623 0.094400 0.206445 0.420909
C41   C     C_R   0.681020 0.738347 0.689015 -0.133271
C42   C     C_R   0.181182 0.261782 0.188739 -0.135696
C43   C     C_R   0.713968 0.584718 0.734925 -0.010360
C44   C     C_R   0.214043 0.415513 0.234714 -0.028618
C45   C     C_3   0.726926 0.396017 0.708444 0.597353
C46   C     C_3   0.227049 0.603718 0.208156 0.616391
C47   C     C_3   0.799843 0.401402 0.778117 0.171757
C48   C     C_3   0.299975 0.598194 0.277795 0.178142
H5    H     H_    0.803682 0.306663 0.828951 0.134935
H6    H     H_    0.303878 0.693412 0.328643 0.132891
H7    H     H_    0.198341 0.837821 0.617162 0.162514
H8    H     H_    0.739829 0.996226 0.161383 0.187403
Cl1   Cl    Cl    0.755901 0.968590 0.629659 -0.444164
Cl2   Cl    Cl    0.255542 0.030549 0.128370 -0.479130
Cl3   Cl    Cl    0.733528 0.403082 0.608763 -0.442190
Cl4   Cl    Cl    0.233657 0.595390 0.108494 -0.477710
Cl5   Cl    Cl    0.651709 0.264599 0.716641 -0.523569
Cl6   Cl    Cl    0.151876 0.736546 0.216235 -0.537376
Cl7   Cl    Cl    0.879985 0.396649 0.749571 -0.447914
Cl8   Cl    Cl    0.380115 0.601377 0.249232 -0.487271
Cl9   Cl    Cl    0.485998 0.587876 0.762296 -0.504430
Cl10  Cl    Cl    0.929906 0.621313 0.212598 -0.560960
Cl11  Cl    Cl    0.263837 0.377596 0.828992 -0.569395
Cl12  Cl    Cl    0.667921 0.603936 0.215737 -0.585737
H9    H     H_    0.166949 0.497373 0.906736 0.212268
H10   H     H_    0.594037 0.497643 0.321913 0.208757
Cl13  Cl    Cl    0.083876 0.137596 0.798847 -0.528192
Cl14  Cl    Cl    0.685411 0.856125 0.419574 -0.514900
H11   H     H_    0.189293 0.026980 0.732139 0.199742
H12   H     H_    0.759427 0.967903 0.315305 0.194375
Cl15  Cl    Cl    0.736290 0.012467 0.860106 -0.583376
Cl16  Cl    Cl    0.236592 0.988924 0.359316 -0.630371

loop_
_geom_bond_atom_site_label_1
_geom_bond_atom_site_label_2
_ccdc_geom_bond_type
C15   Cl9   S    
C35   C37   A    
O13   V3    S    
C5    C41   S    
C38   C40   A    
C30   H12   S    
O4    C2    A    
V1    O19   S    
C6    C42   S    
C13   C15   A    
C33   C47   S    
C39   C41   A    
O9    V1    S    
C46   C48   S    
C11   H1    S    
C48   H6    S    
O3    C1    A    
C9    C11   A    
C29   C31   A    
C8    C14   S    
O12   V4    S    
C41   C43   A    
C38   Cl16  S    
C33   C35   A    
O7    C3    A    
C34   C36   A    
C10   H8    S    
O5    C7    A    
O7    V1    S    
O6    C8    A    
O8    V2    S    
C37   C39   A    
C22   C24   A    
O3    V1    S    
O14   V4    S    
C48   Cl8   S    
C10   C12   A    
C20   C32   S    
C33   C43   A    
C14   C16   A    
C2    O12   A    
C45   C47   S    
C34   C48   S    
C16   C18   A    
C21   Cl11  S    
C24   C26   A    
O11   V3    S    
C25   C27   A    
O17   V3    S    
C26   C28   A    
C12   C14   A    
C37   Cl15  S    
C27   Cl13  S    
C44   C46   S    
O8    C4    A    
C7    C13   S    
C43   C45   S    
C9    H7    S    
C1    O11   A    
C18   H4    S    
C21   C23   A    
O15   V3    S    
C16   Cl10  S    
C36   C38   A    
C11   C13   A    
C47   H5    S    
C29   H11   S    
O10   V2    S    
O1    V3    S    
C34   C44   A    
C46   Cl6   S    
C24   H10   S    
C17   H3    S    
C45   Cl5   S    
C23   H9    S    
C22   Cl12  S    
C39   Cl1   S    
O15   C5    A    
C9    C19   A    
O16   C6    A    
O1    C3    A    
C12   H2    S    
C3    C26   S    
V2    O20   S    
C47   Cl7   S    
C28   Cl14  S    
O16   V4    S    
C15   C17   A    
C46   Cl4   S    
O18   V4    S    
O5    V1    S    
O17   C7    A    
O6    V2    S    
O10   C6    A    
O18   C8    A    
C21   C31   A    
O2    V4    S    
C22   C32   A    
C27   C29   A    
C40   Cl2   S    
V3    O19   S    
V4    O20   S    
C17   C19   A    
O9    C5    A    
O13   V1    S    
C28   C30   A    
O14   V2    S    
O2    C4    A    
C1    C36   S    
C2    C35   S    
C19   C31   S    
O4    V2    S    
C4    C25   S    
C10   C20   A    
C40   C42   A    
C42   C44   A    
C23   C25   A    
C30   C32   A    
C45   Cl3   S    
C18   C20   A    
