data_mof_unit_67005.cif
_audit_creation_date              2012-12-11T17:41:04-0500
_audit_creation_method            fapswitch 2.2
_symmetry_space_group_name_H-M    P1
_symmetry_Int_Tables_number       1
_space_group_crystal_system       triclinic
_cell_length_a                    8.184495
_cell_length_b                    12.667144
_cell_length_c                    14.200557
_cell_angle_alpha                 92.886166
_cell_angle_beta                  90.619029
_cell_angle_gamma                 98.396676
_cell_volume                      1454.35685368

loop_
_atom_site_label
_atom_site_type_symbol
_atom_type_description
_atom_site_fract_x
_atom_site_fract_y
_atom_site_fract_z
_atom_type_partial_charge
Ba1   Ba    Ba6+2 0.855630 0.555280 0.454520 1.634322
Ba2   Ba    Ba6+2 0.334200 0.444810 0.545490 1.633974
C1    C     C_3   0.626607 0.947684 0.157626 -0.268873
C2    C     C_3   0.644675 0.856248 0.221260 0.333454
C3    C     C_3   0.475478 0.309650 0.258043 0.305517
C4    C     C_3   0.457035 0.287528 0.151869 -0.389365
C5    C     C_3   0.047221 0.195942 0.806022 0.362406
C6    C     C_3   0.062190 0.159394 0.905781 -0.361069
C7    C     C_3   0.542910 0.142839 0.764017 0.331202
C8    C     C_3   0.588681 0.052166 0.820231 -0.396379
C9    C     C_R   0.985447 0.442898 0.060986 -0.035993
C10   C     C_R   0.182614 0.498698 0.195771 0.039017
C11   C     C_R   0.336993 0.551557 0.226067 -0.290007
C12   C     C_3   0.128765 0.804226 0.194387 0.351879
C13   C     C_R   0.449355 0.599277 0.162574 0.015554
C14   C     C_R   0.404775 0.601999 0.067704 -0.139055
C15   C     C_R   0.248054 0.552882 0.034772 -0.003520
C16   C     C_R   0.136974 0.497219 0.097963 -0.026406
C17   C     C_R   0.052519 0.502509 0.901892 -0.025737
C18   C     C_R   0.941337 0.447008 0.965128 -0.002707
C19   C     C_R   0.007362 0.500352 0.803958 0.042523
C20   C     C_R   0.853758 0.446135 0.773500 -0.293648
C21   C     C_R   0.740323 0.399917 0.837245 0.014661
C22   C     C_R   0.784625 0.397810 0.932227 -0.146923
C23   C     C_3   0.111781 0.843544 0.095757 -0.348840
C24   C     C_R   0.203976 0.556982 0.938899 -0.032162
C25   C     C_R   0.762669 0.176784 0.538121 -0.275047
C26   C     C_R   0.430998 0.812883 0.459641 -0.282498
C27   C     C_R   0.407172 0.994662 0.426795 -0.105119
C28   C     C_R   0.342769 0.887080 0.421455 -0.009223
C29   C     C_R   0.577007 0.846108 0.511679 0.069056
C30   C     C_R   0.641408 0.956853 0.521680 -0.056335
C31   C     C_R   0.555829 0.031430 0.476859 -0.060680
C32   C     C_R   0.618900 0.141339 0.485377 0.043770
C33   C     C_R   0.852385 0.104673 0.577862 -0.010235
C34   C     C_3   0.225577 0.762479 0.655629 0.284849
C35   C     C_R   0.789479 0.995699 0.573087 -0.092784
C36   C     C_3   0.240891 0.882206 0.676500 -0.348902
C37   C     C_3   0.967814 0.238183 0.345265 0.288724
C38   C     C_3   0.925548 0.119013 0.321552 -0.391533
C39   C     C_3   0.714836 0.673589 0.738097 0.304578
C40   C     C_3   0.728505 0.696965 0.844306 -0.387730
H1    H     H_    0.717735 0.888788 0.285384 0.060774
H2    H     H_    0.327418 0.905787 0.736794 0.118804
H3    H     H_    0.288276 0.925666 0.614452 0.079108
H4    H     H_    0.118257 0.904401 0.694493 0.142047
H5    H     H_    0.859148 0.268922 0.375290 0.007719
H6    H     H_    0.070247 0.251242 0.397826 0.084742
H7    H     H_    0.807242 0.103292 0.281235 0.106589
H8    H     H_    0.912549 0.074514 0.386735 0.096178
H9    H     H_    0.024805 0.090199 0.278997 0.157308
H10   H     H_    0.833396 0.652638 0.712295 0.011082
H11   H     H_    0.614717 0.605500 0.723150 0.065436
H12   H     H_    0.553079 0.004343 0.193603 0.062533
H13   H     H_    0.832767 0.761821 0.861622 0.130519
H14   H     H_    0.750037 0.624681 0.880563 0.060321
H15   H     H_    0.612118 0.722179 0.870519 0.138929
H16   H     H_    0.519972 0.821686 0.244278 -0.079530
H17   H     H_    0.357233 0.330470 0.285419 0.013425
H18   H     H_    0.575434 0.378168 0.271982 0.061668
H19   H     H_    0.353035 0.222206 0.135479 0.126719
H20   H     H_    0.431860 0.360355 0.117449 0.063420
H21   H     H_    0.572655 0.263560 0.123155 0.118826
H22   H     H_    0.750655 0.990811 0.142086 0.090466
H23   H     H_    0.142878 0.782677 0.042533 0.087265
H24   H     H_    0.127952 0.273843 0.801183 0.092606
H25   H     H_    0.916987 0.206591 0.792920 -0.071519
H26   H     H_    0.020708 0.218654 0.957008 0.066167
H27   H     H_    0.984306 0.080800 0.912738 0.111086
H28   H     H_    0.192561 0.151637 0.922544 0.154840
H29   H     H_    0.656715 0.180329 0.729720 -0.051392
H30   H     H_    0.451825 0.109650 0.707728 0.082593
H31   H     H_    0.684124 0.083984 0.874555 0.114335
H32   H     H_    0.637876 0.992518 0.772603 0.093588
H33   H     H_    0.040556 0.729705 0.200366 0.103751
H34   H     H_    0.478174 0.012883 0.856152 0.153178
H35   H     H_    0.373473 0.551089 0.299502 0.071083
H36   H     H_    0.493185 0.640944 0.019647 0.081679
H37   H     H_    0.696183 0.359006 0.980361 0.070321
H38   H     H_    0.818233 0.445119 0.699805 0.069090
H39   H     H_    0.899526 0.397146 0.106024 0.100113
H40   H     H_    0.290072 0.602558 0.893844 0.102583
H41   H     H_    0.335821 0.048510 0.394107 0.106047
H42   H     H_    0.859687 0.943073 0.608087 0.104356
H43   H     H_    0.810669 0.261167 0.543379 0.063717
H44   H     H_    0.256104 0.786212 0.203722 -0.062178
H45   H     H_    0.379811 0.729034 0.454276 0.070011
H46   H     H_    0.983625 0.858208 0.081979 0.149888
H47   H     H_    0.196268 0.919518 0.088601 0.119983
H48   H     H_    0.347253 0.741391 0.636274 0.005018
H49   H     H_    0.136493 0.740941 0.595927 0.077109
O1    O     O_2   0.887370 0.460630 0.272300 -0.462529
O2    O     O_3   0.679858 0.765284 0.695843 -0.640504
O3    O     O_3   0.094540 0.883425 0.261090 -0.605701
O4    O     O_2   0.302330 0.539400 0.727760 -0.468733
O5    O     O_3   0.060300 0.548700 0.611500 -0.497463
O6    O     O_3   0.519500 0.346920 0.670840 -0.470966
O7    O     O_3   0.172711 0.711148 0.737124 -0.634423
O8    O     O_3   0.614310 0.373510 0.452640 -0.479927
O9    O     O_3   0.100780 0.295230 0.623970 -0.486596
O10   O     O_2   0.193410 0.110749 0.567677 -0.482545
O11   O     O_3   0.096352 0.119112 0.741733 -0.600565
O12   O     O_3   0.129410 0.451380 0.388510 -0.495607
O13   O     O_3   0.575400 0.626570 0.547370 -0.491405
O14   O     O_2   0.344320 0.238700 0.455090 -0.467709
O15   O     O_3   0.514598 0.217949 0.299262 -0.650185
O16   O     O_2   0.401026 0.408088 0.835773 -0.495485
O17   O     O_3   0.470769 0.213423 0.824934 -0.591780
O18   O     O_3   0.670210 0.653170 0.329170 -0.474687
O19   O     O_2   0.783952 0.585429 0.165150 -0.494831
O20   O     O_3   0.013216 0.289123 0.262559 -0.640248
O21   O     O_3   0.729525 0.782072 0.172451 -0.600509
O22   O     O_2   0.845380 0.761330 0.544970 -0.472026
O23   O     O_3   0.088930 0.704860 0.376040 -0.491134
O24   O     O_2   0.005668 0.889638 0.437071 -0.480883
P1    P     P_3+3 0.054400 0.427280 0.286870 0.968909
P2    P     P_3+3 0.668300 0.742890 0.573060 0.970620
P3    P     P_3+3 0.133367 0.842921 0.374283 0.949678
P4    P     P_3+3 0.135310 0.572810 0.713130 0.971754
P5    P     P_3+3 0.059885 0.156033 0.627049 0.949584
P6    P     P_3+3 0.657416 0.653316 0.206447 0.956990
P7    P     P_3+3 0.526920 0.241472 0.421846 0.933473
P8    P     P_3+3 0.532559 0.344647 0.793388 0.958819
C41   C     C_1   0.544417 0.906979 0.067933 0.287722
N1    N     N_1   0.480582 0.874404 0.997116 -0.328222

loop_
_geom_bond_atom_site_label_1
_geom_bond_atom_site_label_2
_ccdc_geom_bond_type
C9    C16   A    
C8    H32   S    
C39   C40   S    
O5    P4    S    
C17   C18   A    
C7    H30   S    
O16   P8    D    
Ba1   O8    S    
O7    P4    S    
C1    H22   S    
C9    H39   S    
C7    O17   S    
C6    H27   S    
Ba1   O22   S    
C15   C24   A    
C4    H19   S    
Ba2   O4    S    
C17   C19   A    
C27   H41   S    
O19   P6    D    
C3    C4    S    
C1    H12   S    
C13   C14   A    
C27   C31   A    
Ba1   Ba2   S    
C25   H43   S    
C17   C24   A    
C29   P2    S    
C36   H3    S    
Ba1   O18   S    
C8    H34   S    
C39   O2    S    
C18   C22   A    
Ba2   O6    S    
C14   C15   A    
C5    O11   S    
C21   C22   A    
C35   H42   S    
O20   P1    S    
O9    P5    S    
Ba1   P1    S    
C7    C8    S    
Ba1   O12   S    
C39   H10   S    
C40   H14   S    
C37   O20   S    
C2    O21   S    
Ba2   O9    S    
C24   H40   S    
C19   C20   A    
C33   P5    S    
O2    P2    S    
C40   H15   S    
C31   C32   A    
C3    O15   S    
C25   C32   A    
C11   H35   S    
C9    C18   A    
C3    H17   S    
C5    C6    S    
C23   H23   S    
C12   H44   S    
C37   C38   S    
C21   P8    S    
C28   P3    S    
C25   C33   A    
Ba2   O5    S    
C23   H46   S    
C4    H21   S    
C36   H2    S    
C27   C28   A    
C40   H13   S    
C22   H37   S    
C29   C30   A    
Ba2   O13   S    
O24   P3    D    
O15   P7    S    
C26   H45   S    
C15   C16   A    
Ba1   P2    S    
C30   C35   A    
O1    P1    D    
Ba1   O13   S    
C39   H11   S    
O23   P3    S    
O8    P7    S    
O22   P2    D    
O6    P8    S    
C34   H49   S    
Ba2   O8    S    
C6    H26   S    
Ba1   O1    S    
C11   C13   A    
Ba1   O23   S    
O17   P8    S    
C2    H16   S    
C1    C2    S    
O11   P5    S    
C1    C41   S    
C37   H5    S    
O13   P2    S    
C34   H48   S    
C13   P6    S    
C3    H18   S    
C33   C35   A    
O10   P5    D    
C23   H47   S    
C26   C29   A    
C7    H29   S    
Ba2   P4    S    
C2    H1    S    
C38   H9    S    
Ba2   O14   S    
C6    H28   S    
O4    P4    D    
C12   H33   S    
C4    H20   S    
C34   C36   S    
O12   P1    S    
C20   H38   S    
O21   P6    S    
C19   P4    S    
C30   C31   A    
C5    H24   S    
O3    P3    S    
O18   P6    S    
Ba2   O12   S    
Ba1   O5    S    
C38   H8    S    
C26   C28   A    
C8    H31   S    
O14   P7    D    
C14   H36   S    
C12   C23   S    
C36   H4    S    
C5    H25   S    
C10   C11   A    
C32   P7    S    
C10   C16   A    
C20   C21   A    
C41   N1    T    
C34   O7    S    
C12   O3    S    
C38   H7    S    
C37   H6    S    
C10   P1    S    
