data_mof_unit_48436.cif
_audit_creation_date              2012-12-11T15:46:52-0500
_audit_creation_method            fapswitch 2.2
_symmetry_space_group_name_H-M    P1
_symmetry_Int_Tables_number       1
_space_group_crystal_system       triclinic
_cell_length_a                    11.53993
_cell_length_b                    11.530405
_cell_length_c                    19.556451
_cell_angle_alpha                 90.500756
_cell_angle_beta                  90.052919
_cell_angle_gamma                 59.96142
_cell_volume                      2252.57576271

loop_
_atom_site_label
_atom_site_type_symbol
_atom_type_description
_atom_site_fract_x
_atom_site_fract_y
_atom_site_fract_z
_atom_type_partial_charge
C1    C     C_R   0.640456 0.117382 0.599267 0.545265
C2    C     C_1   0.641253 0.703929 0.668015 0.005042
C3    C     C_1   0.126738 0.198712 0.859285 0.003828
C4    C     C_1   0.171485 0.170294 0.727711 -0.030426
C5    C     C_1   0.150161 0.182234 0.798933 -0.030650
C6    C     C_1   0.195254 0.160956 0.667387 0.004473
C7    C     C_1   0.678665 0.191202 0.860770 0.004066
C8    C     C_1   0.658526 0.167252 0.729038 -0.030553
C9    C     C_1   0.665716 0.180867 0.800337 -0.030552
C10   C     C_1   0.652932 0.149734 0.668650 0.003879
C11   C     C_R   0.653418 0.688357 0.187892 0.015160
C12   C     C_R   0.612477 0.745995 0.598654 0.547423
C13   C     C_R   0.530998 0.731074 0.221236 0.022889
C14   C     C_R   0.525763 0.737767 0.290971 0.044804
C15   C     C_R   0.752991 0.692044 0.296474 -0.149100
C16   C     C_R   0.760328 0.683199 0.225244 -0.154427
C17   C     C_3   0.432986 0.680851 0.219600 -0.270311
C18   C     C_3   0.432355 0.684370 0.296727 -0.277517
C19   C     C_R   0.638035 0.708673 0.329899 0.018526
C20   C     C_R   0.124846 0.207315 0.196115 0.006226
C21   C     C_R   0.106025 0.313669 0.237883 -0.003231
C22   C     C_R   0.129928 0.297017 0.306791 0.085357
C23   C     C_R   0.240944 0.145326 0.598194 0.547959
C24   C     C_R   0.169812 0.071167 0.297737 -0.170940
C25   C     C_R   0.148270 0.087723 0.227143 -0.162384
C26   C     C_3   0.162226 0.404557 0.230866 -0.237442
C27   C     C_3   0.189885 0.386508 0.306993 0.161423
C28   C     C_R   0.171995 0.172371 0.337173 -0.010387
C29   C     C_R   0.666534 0.179163 0.190660 0.017920
C30   C     C_R   0.745478 0.052614 0.219940 0.027817
C31   C     C_R   0.740159 0.034824 0.288860 0.038437
C32   C     C_R   0.564026 0.263702 0.301827 -0.171456
C33   C     C_R   0.566537 0.281351 0.231193 -0.171548
C34   C     C_R   0.644281 0.111868 0.402037 0.541269
C35   C     C_3   0.893394 0.955508 0.217796 -0.266242
C36   C     C_3   0.886406 0.937688 0.293896 -0.277894
C37   C     C_R   0.657870 0.141662 0.331752 0.021469
C38   C     C_R   0.081845 0.231100 0.928590 0.546564
C39   C     C_R   0.683949 0.604402 0.929487 0.544752
C40   C     C_R   0.708413 0.206634 0.930124 0.545988
C41   C     C_R   0.081568 0.236731 0.125811 0.549923
C42   C     C_R   0.681167 0.615324 0.124224 0.550380
C43   C     C_R   0.707361 0.210081 0.126294 0.548968
C44   C     C_R   0.615587 0.741420 0.401485 0.548354
C45   C     C_R   0.242462 0.141559 0.401900 0.545820
C46   C     C_1   0.670448 0.646415 0.860116 0.004634
C47   C     C_1   0.654799 0.683687 0.728439 -0.030756
C48   C     C_1   0.663495 0.666634 0.799689 -0.030884
Cr1   Cr    Cr6+3 0.404720 0.198220 0.499960 1.036206
Cr2   Cr    Cr6+3 0.698290 0.897110 0.500380 1.038726
Cr3   Cr    Cr6+3 0.396970 0.904720 0.499610 1.022983
Cr4   Cr    Cr6+3 0.926290 0.152010 0.028150 1.022484
Cr5   Cr    Cr6+3 0.921440 0.451830 0.027490 1.025370
Cr6   Cr    Cr6+3 0.626370 0.446880 0.028730 1.021709
H1    H     H_    0.838101 0.680478 0.325300 0.172998
H2    H     H_    0.254944 0.359930 0.199234 0.098112
H3    H     H_    0.298108 0.331927 0.319960 0.127997
H4    H     H_    0.491728 0.346130 0.333096 0.109344
H5    H     H_    0.497619 0.377277 0.209563 0.114638
H6    H     H_    0.953830 0.002918 0.205478 0.162245
H7    H     H_    0.918474 0.863693 0.187590 0.130113
H8    H     H_    0.908022 0.835708 0.307535 0.145714
H9    H     H_    0.940432 0.977026 0.324810 0.136380
H10   H     H_    0.853984 0.657946 0.200542 0.130845
H11   H     H_    0.474464 0.577685 0.199685 0.164932
H12   H     H_    0.335372 0.755068 0.197082 0.124209
H13   H     H_    0.333942 0.756934 0.319113 0.130615
H14   H     H_    0.480606 0.583050 0.319901 0.130506
H15   H     H_    0.194683 0.976521 0.320258 0.125386
H16   H     H_    0.154064 0.006130 0.196734 0.119451
H17   H     H_    0.085046 0.507696 0.216460 0.149665
O1    O     O_R   0.267750 0.231960 0.575440 -0.500181
O2    O     O_R   0.685950 0.784660 0.430010 -0.499254
O3    O     O_R   0.502510 0.767000 0.423980 -0.520319
O4    O     O_R   0.288320 0.026340 0.429250 -0.506938
O5    O     O_3   0.499990 0.000020 0.499980 -0.257782
O6    O     O_R   0.821590 0.119350 0.952850 -0.505487
O7    O     O_R   0.037230 0.162540 0.957390 -0.494302
O8    O     O_R   0.056530 0.344750 0.951370 -0.505158
O9    O     O_R   0.798000 0.560370 0.957490 -0.494991
O10   O     O_R   0.596230 0.579400 0.952760 -0.505400
O11   O     O_R   0.639160 0.321170 0.958690 -0.493861
O12   O     O_R   0.527290 0.186640 0.570530 -0.495096
O13   O     O_R   0.821370 0.124220 0.104400 -0.522964
O14   O     O_R   0.037020 0.167050 0.097880 -0.508003
O15   O     O_R   0.056310 0.349620 0.102920 -0.516636
O16   O     O_R   0.797790 0.564880 0.097980 -0.506945
O17   O     O_R   0.596000 0.584270 0.104310 -0.525507
O18   O     O_R   0.638950 0.325690 0.099180 -0.507490
O19   O     O_3   0.824700 0.350240 0.028120 -0.251000
O20   O     O_R   0.728110 0.003450 0.576380 -0.504789
O21   O     O_R   0.682980 0.789190 0.570500 -0.491244
O22   O     O_R   0.499300 0.771880 0.575540 -0.505827
O23   O     O_R   0.285350 0.030870 0.569740 -0.495082
O24   O     O_R   0.270960 0.227070 0.423890 -0.502265
O25   O     O_R   0.530270 0.182120 0.430040 -0.513404
O26   O     O_R   0.731320 0.998570 0.424830 -0.514766
O27   O     O_3   0.109362 0.504787 0.345133 -0.556327
C49   C     C_3   0.176133 0.578663 0.350997 -0.139480
H18   H     H_    0.199483 0.603850 0.299887 0.098962
H19   H     H_    0.268958 0.523590 0.381749 0.120974
H20   H     H_    0.109619 0.674173 0.378239 0.138020

loop_
_geom_bond_atom_site_label_1
_geom_bond_atom_site_label_2
_ccdc_geom_bond_type
C21   C26   S    
C27   O27   S    
C43   O13   A    
C34   C37   S    
C14   C18   S    
Cr4   O19   S    
C35   C36   S    
Cr3   O3    S    
C32   H4    S    
C2    C12   S    
C20   C41   S    
C15   C19   A    
C41   O15   A    
C26   C27   S    
C43   O18   A    
C30   C35   S    
Cr4   O14   S    
Cr5   O8    S    
C34   O25   A    
Cr6   O19   S    
C30   C31   A    
Cr4   O7    S    
C20   C25   A    
C18   H14   S    
C15   C16   A    
C29   C33   A    
C34   O26   A    
C11   C42   S    
Cr4   O13   S    
C49   H18   S    
C3    C38   S    
C8    C9    S    
Cr1   O1    S    
C7    C40   S    
Cr5   O15   S    
C36   H9    S    
C33   H5    S    
C22   C28   A    
C21   C22   A    
C29   C43   S    
C26   H17   S    
C38   O8    A    
C36   H8    S    
C14   C19   A    
C24   H15   S    
C46   C48   T    
C28   C45   S    
C40   O11   A    
Cr5   O9    S    
C24   C25   A    
C39   O10   A    
Cr6   O18   S    
C4    C6    T    
C27   H3    S    
Cr2   O2    S    
C38   O7    A    
C18   H13   S    
Cr1   O24   S    
C31   C37   A    
C35   H6    S    
C15   H1    S    
C29   C30   A    
Cr2   O5    S    
C11   C16   A    
C47   C48   S    
C17   C18   S    
C17   H12   S    
Cr1   O5    S    
Cr5   O16   S    
C32   C37   A    
Cr3   O5    S    
C44   O3    A    
Cr3   O22   S    
C39   C46   S    
Cr2   O21   S    
C49   H19   S    
C22   C27   S    
C12   O22   A    
C42   O17   A    
Cr4   O6    S    
C45   O24   A    
Cr6   O11   S    
C19   C44   S    
C7    C9    T    
Cr2   O26   S    
C31   C36   S    
C23   O1    A    
C12   O21   A    
C1    C10   S    
C24   C28   A    
Cr3   O4    S    
C4    C5    S    
C3    C5    T    
C26   H2    S    
C25   H16   S    
C2    C47   T    
C1    O12   A    
C41   O14   A    
C17   H11   S    
C23   O23   A    
C13   C17   S    
C45   O4    A    
C32   C33   A    
Cr1   O12   S    
C39   O9    A    
Cr6   O17   S    
C11   C13   A    
C35   H7    S    
C6    C23   S    
Cr1   O25   S    
C44   O2    A    
Cr3   O23   S    
Cr2   O20   S    
C49   H20   S    
C20   C21   A    
C8    C10   T    
O27   C49   S    
C1    O20   A    
Cr5   O19   S    
C40   O6    A    
C42   O16   A    
C16   H10   S    
C13   C14   A    
Cr6   O10   S    
