data_mof_unit_48675.cif
_audit_creation_date              2012-10-26T18:44:53-0400
_audit_creation_method            fapswitch 2.2
_symmetry_space_group_name_H-M    P1
_symmetry_Int_Tables_number       1
_space_group_crystal_system       triclinic
_cell_length_a                    15.994741
_cell_length_b                    14.700778
_cell_length_c                    10.822863
_cell_angle_alpha                 90.000398
_cell_angle_beta                  89.871619
_cell_angle_gamma                 90.000039
_cell_volume                      2544.82898163

loop_
_atom_site_label
_atom_site_type_symbol
_atom_type_description
_atom_site_fract_x
_atom_site_fract_y
_atom_site_fract_z
_atom_type_partial_charge
C1    C     C_1   0.251660 0.499995 0.499894 -0.028243
C2    C     C_R   0.573966 0.047938 0.526405 0.263723
C3    C     C_R   0.956380 0.582528 0.498716 -0.106346
C4    C     C_R   0.043623 0.417387 0.501294 -0.104544
C5    C     C_R   0.043625 0.582528 0.498630 -0.106287
C6    C     C_R   0.956374 0.417387 0.501305 -0.104583
C7    C     C_R   0.340746 0.500000 0.499865 0.548722
C8    C     C_R   0.659254 0.500000 0.500134 0.548720
C9    C     C_R   0.511270 0.499986 0.261967 0.535254
C10   C     C_R   0.488730 0.499986 0.738032 0.535255
C11   C     C_R   0.912803 0.499961 0.500034 0.038900
C12   C     C_1   0.748340 0.499995 0.500098 -0.028249
C13   C     C_R   0.087198 0.499961 0.499941 0.038980
C14   C     C_1   0.499999 0.802727 0.500002 0.220858
C15   C     C_1   0.499999 0.197235 0.499999 0.214979
C16   C     C_1   0.823373 0.499976 0.500070 -0.059803
C17   C     C_1   0.176628 0.499976 0.499913 -0.059770
C18   C     C_R   0.542186 0.667252 0.111814 -0.118025
C19   C     C_R   0.458541 0.332381 0.887609 -0.109294
C20   C     C_R   0.457817 0.667254 0.888189 -0.118016
C21   C     C_R   0.541449 0.332378 0.112387 -0.109291
C22   C     C_R   0.523147 0.749772 0.054626 0.236734
C23   C     C_R   0.478657 0.499900 0.874114 -0.018903
C24   C     C_R   0.477652 0.249852 0.944662 0.279381
C25   C     C_R   0.476858 0.749773 0.945381 0.236743
C26   C     C_R   0.522333 0.249851 0.055332 0.279382
C27   C     C_R   0.484092 0.583328 0.939507 -0.036559
C28   C     C_R   0.515771 0.416399 0.060595 -0.034083
C29   C     C_R   0.515908 0.583327 0.060494 -0.036560
C30   C     C_R   0.484224 0.416400 0.939402 -0.034084
C31   C     C_3   0.686789 0.125158 0.447407 0.019716
C32   C     C_3   0.743687 0.051799 0.391900 -0.240415
C33   C     C_3   0.793953 0.088952 0.283053 -0.469417
C34   C     C_R   0.521341 0.499899 0.125886 -0.018904
C35   C     C_3   0.357224 0.884982 0.308957 0.048073
C36   C     C_3   0.277886 0.833097 0.274623 -0.273555
C37   C     C_3   0.279296 0.803862 0.139313 -0.445996
C38   C     C_3   0.313209 0.125177 0.552569 0.019732
C39   C     C_3   0.256270 0.051842 0.608049 -0.240387
C40   C     C_3   0.205999 0.089017 0.716879 -0.469436
C41   C     C_3   0.642761 0.884998 0.691069 0.048054
C42   C     C_3   0.722122 0.833170 0.725440 -0.273505
C43   C     C_3   0.720708 0.803952 0.860757 -0.445968
C44   C     C_R   0.499997 0.902809 0.500004 -0.036568
C45   C     C_R   0.499999 0.097028 0.499999 -0.038717
C46   C     C_R   0.572516 0.951689 0.533205 0.243491
C47   C     C_R   0.426030 0.047938 0.473594 0.263733
C48   C     C_R   0.427478 0.951689 0.466802 0.243516
Cl1   Cl    Cl    0.552744 0.147519 0.126718 -0.535774
Cl2   Cl    Cl    0.443180 0.852001 0.877034 -0.566431
Cl3   Cl    Cl    0.447235 0.147523 0.873273 -0.535783
Cl4   Cl    Cl    0.556825 0.851998 0.122980 -0.566501
Cu1   Cu    Cu3+1 0.500000 0.589220 0.500000 0.994210
Cu2   Cu    Cu3+1 0.500000 0.410780 0.500000 1.000257
H1    H     H_    0.077036 0.646649 0.497557 0.112232
H2    H     H_    0.642078 0.150155 0.376209 0.157904
H3    H     H_    0.787413 0.026556 0.463848 0.187066
H4    H     H_    0.705194 0.993811 0.358938 0.221447
H5    H     H_    0.751288 0.113488 0.209365 0.202008
H6    H     H_    0.834039 0.034213 0.244362 0.157602
H7    H     H_    0.834654 0.145861 0.313605 0.139535
H8    H     H_    0.412002 0.841232 0.286537 0.177660
H9    H     H_    0.360334 0.948562 0.252925 0.208772
H10   H     H_    0.272229 0.771571 0.333823 0.182088
H11   H     H_    0.222509 0.877140 0.291332 0.172945
H12   H     H_    0.922961 0.353265 0.502307 0.109920
H13   H     H_    0.285561 0.864136 0.078079 0.205856
H14   H     H_    0.220128 0.768160 0.116593 0.143941
H15   H     H_    0.332271 0.756636 0.122171 0.177087
H16   H     H_    0.274154 0.184597 0.526366 0.154250
H17   H     H_    0.357919 0.150148 0.623786 0.157895
H18   H     H_    0.212546 0.026622 0.536083 0.187067
H19   H     H_    0.294735 0.993835 0.641022 0.221446
H20   H     H_    0.248665 0.113505 0.790600 0.202005
H21   H     H_    0.165865 0.034299 0.755526 0.157613
H22   H     H_    0.165344 0.145966 0.686319 0.139403
H23   H     H_    0.922971 0.646650 0.497750 0.112357
H24   H     H_    0.588002 0.841214 0.713475 0.177657
H25   H     H_    0.639608 0.948582 0.747091 0.208773
H26   H     H_    0.727823 0.771640 0.666255 0.182130
H27   H     H_    0.777478 0.877248 0.708741 0.172982
H28   H     H_    0.714395 0.864230 0.921975 0.205875
H29   H     H_    0.779894 0.768295 0.883506 0.143985
H30   H     H_    0.667758 0.756689 0.877888 0.177076
H31   H     H_    0.077034 0.353265 0.502331 0.109737
H32   H     H_    0.579725 0.669600 0.194714 0.171317
H33   H     H_    0.421441 0.329813 0.804298 0.157047
H34   H     H_    0.420279 0.669604 0.805289 0.171331
H35   H     H_    0.578549 0.329808 0.195697 0.157057
H36   H     H_    0.725872 0.184557 0.473601 0.154236
N1    N     N_1   0.500000 0.276710 0.500000 -0.189036
N2    N     N_1   0.500000 0.723290 0.500000 -0.188941
O1    O     O_R   0.380310 0.575320 0.500020 -0.490959
O2    O     O_3   0.355049 0.905557 0.436339 -0.568185
O3    O     O_3   0.352901 0.093276 0.443715 -0.539722
O4    O     O_3   0.644943 0.905559 0.563683 -0.568201
O5    O     O_R   0.619690 0.424680 0.499980 -0.493872
O6    O     O_R   0.619690 0.575320 0.499980 -0.490958
O7    O     O_R   0.380310 0.424680 0.500020 -0.493873
O8    O     O_R   0.499990 0.575350 0.319650 -0.503794
O9    O     O_R   0.500010 0.424650 0.680350 -0.497327
O10   O     O_R   0.500010 0.575350 0.680350 -0.503787
O11   O     O_R   0.499990 0.424650 0.319650 -0.497318
O12   O     O_3   0.647099 0.093275 0.556271 -0.539746

loop_
_geom_bond_atom_site_label_1
_geom_bond_atom_site_label_2
_ccdc_geom_bond_type
C21   C26   A    
C38   H16   S    
C42   H26   S    
C37   H15   S    
C27   C29   A    
C43   H29   S    
C41   C42   S    
Cu2   O9    S    
C35   C36   S    
C32   H4    S    
C21   H35   S    
Cu1   Cu2   S    
C2    C46   A    
C18   H32   S    
C7    O7    A    
C22   Cl4   S    
C36   C37   S    
C24   C26   A    
C19   H33   S    
C38   C39   S    
C31   C32   S    
C41   O4    S    
C20   C25   A    
C37   H14   S    
C37   H13   S    
C4    C13   A    
C8    O6    A    
C25   Cl2   S    
C12   C16   T    
C22   C25   A    
C38   O3    S    
C39   H18   S    
Cu2   O5    S    
C23   C27   A    
C31   H2    S    
C5    C13   A    
C9    O11   A    
C24   Cl3   S    
C28   C34   A    
C33   H5    S    
C18   C22   A    
C43   H30   S    
C42   H27   S    
C32   H3    S    
C44   C46   A    
C45   C47   A    
C2    C45   A    
C7    O1    A    
Cu1   O1    S    
C23   C30   A    
Cu2   O11   S    
C10   O10   A    
C4    C6    A    
C26   Cl1   S    
C6    C11   A    
C36   H11   S    
C4    H31   S    
C29   C34   A    
C40   H22   S    
C8    O5    A    
C11   C16   S    
C47   C48   A    
C2    O12   S    
Cu1   O10   S    
C8    C12   S    
C31   H36   S    
Cu1   N2    S    
C18   C29   A    
C14   N2    T    
C48   O2    S    
C21   C28   A    
C9    O8    A    
C9    C34   S    
Cu1   O6    S    
Cu2   O7    S    
C42   C43   S    
C15   C45   S    
C3    H23   S    
C41   H24   S    
C14   C44   S    
Cu1   O8    S    
C35   O2    S    
C38   H17   S    
C1    C7    S    
C5    H1    S    
C10   O9    A    
C3    C5    A    
C41   H25   S    
C20   C27   A    
C10   C23   S    
C33   H6    S    
C1    C17   T    
C40   H21   S    
C13   C17   S    
C32   C33   S    
C28   C30   A    
C19   C24   A    
Cu2   N1    S    
C31   O12   S    
C20   H34   S    
C40   H20   S    
C35   H8    S    
C39   H19   S    
C3    C11   A    
C15   N1    T    
C39   C40   S    
C6    H12   S    
C46   O4    S    
C33   H7    S    
C43   H28   S    
C47   O3    S    
C35   H9    S    
C36   H10   S    
C19   C30   A    
C44   C48   A    
