data_mof_unit_43409.cif
_audit_creation_date              2012-12-10T20:32:40-0500
_audit_creation_method            fapswitch 2.2
_symmetry_space_group_name_H-M    P1
_symmetry_Int_Tables_number       1
_space_group_crystal_system       triclinic
_cell_length_a                    11.516379
_cell_length_b                    10.735887
_cell_length_c                    10.070211
_cell_angle_alpha                 90.54298
_cell_angle_beta                  90.175171
_cell_angle_gamma                 91.642105
_cell_volume                      1244.49211809

loop_
_atom_site_label
_atom_site_type_symbol
_atom_type_description
_atom_site_fract_x
_atom_site_fract_y
_atom_site_fract_z
_atom_type_partial_charge
C1    C     C_R   0.504224 0.260840 0.498887 0.866624
C2    C     C_R   0.512315 0.128333 0.494996 -0.209053
C3    C     C_R   0.495540 0.059760 0.375740 -0.079352
C4    C     C_R   0.465195 0.933064 0.385851 0.416062
C5    C     C_R   0.499330 0.871271 0.500395 -0.123737
C6    C     C_R   0.536385 0.937651 0.612028 -0.122011
C7    C     C_3   0.496897 0.925339 0.753433 0.840898
C8    C     C_3   0.495347 0.071203 0.754097 0.864222
C9    C     C_R   0.399272 0.499061 0.069043 0.047926
C10   C     C_R   0.599031 0.525415 0.072667 -0.068894
C11   C     C_R   0.600918 0.515054 0.930362 -0.156013
C12   C     C_R   0.282579 0.501225 0.499799 0.887066
C13   C     C_R   0.398782 0.501434 0.929660 0.072021
C14   C     C_3   0.294338 0.414743 0.924794 0.144810
C15   C     C_3   0.292255 0.419041 0.079558 0.855955
C16   C     C_R   0.496804 0.738930 0.500605 0.965546
C17   C     C_R   0.717496 0.500712 0.500176 0.884368
C18   C     C_1   0.162009 0.504798 0.499418 -0.120754
C19   C     C_1   0.059639 0.506280 0.499858 -0.034776
C20   C     C_1   0.940699 0.505360 0.500387 -0.002255
C21   C     C_1   0.838265 0.503269 0.500511 -0.084771
C22   C     C_R   0.534375 0.064142 0.610770 -0.222867
H1    H     H_    0.317872 0.324872 0.877638 0.141446
N1    N     N_R   0.499240 0.499140 0.142800 -0.117327
N2    N     N_R   0.499240 0.499180 0.857150 -0.127027
O1    O     O_R   0.500010 0.316790 0.614690 -0.590006
O2    O     O_R   0.500000 0.316760 0.385350 -0.566726
O3    O     O_R   0.334450 0.500030 0.614670 -0.588921
O4    O     O_R   0.334440 0.500000 0.385330 -0.565108
O5    O     O_R   0.500000 0.683240 0.614650 -0.561904
O6    O     O_R   0.499990 0.683210 0.385310 -0.598734
O7    O     O_R   0.665560 0.500000 0.614670 -0.609455
O8    O     O_R   0.665550 0.499970 0.385330 -0.605657
Zn1   Zn    Zn3+2 0.500010 0.500020 0.653130 1.039386
Zn2   Zn    Zn3+2 0.499990 0.499980 0.346870 1.058382
C23   C     C_2   0.557384 0.099694 0.254400 0.913865
O9    O     O_2   0.508262 0.158892 0.169281 -0.567894
O10   O     O_R   0.673824 0.069749 0.238675 -0.807759
H2    H     H_    0.708202 0.103626 0.153299 0.344537
O11   O     O_3   0.205791 0.494130 0.137175 -0.602534
C24   C     C_3   0.104956 0.425034 0.171847 -0.166253
H3    H     H_    0.123257 0.352142 0.245978 0.167962
H4    H     H_    0.059617 0.385874 0.083167 0.170725
H5    H     H_    0.044811 0.489490 0.220170 0.182848
O12   O     O_3   0.317420 0.309656 0.151829 -0.581895
C25   C     C_3   0.262333 0.200927 0.098327 -0.339547
H6    H     H_    0.318840 0.158204 0.022818 0.234292
H7    H     H_    0.175662 0.216306 0.054809 0.110978
H8    H     H_    0.249899 0.132842 0.179535 0.217059
O13   O     O_3   0.360943 0.889883 0.331482 -0.600674
C26   C     C_3   0.373374 0.867493 0.195629 -0.315897
H9    H     H_    0.293644 0.817505 0.159431 0.208797
H10   H     H_    0.447632 0.806763 0.174934 0.182926
H11   H     H_    0.380684 0.956788 0.142464 0.152731
O14   O     O_3   0.388059 0.858947 0.750447 -0.622562
C27   C     C_3   0.336822 0.847732 0.875859 -0.257364
H12   H     H_    0.246413 0.811452 0.862184 0.216044
H13   H     H_    0.331397 0.939178 0.926743 0.145739
H14   H     H_    0.382487 0.778112 0.935651 0.172648
O15   O     O_3   0.586626 0.863669 0.821391 -0.646673
C28   C     C_3   0.592690 0.890682 0.958501 -0.334542
H15   H     H_    0.528559 0.957803 0.994445 0.186488
H16   H     H_    0.680840 0.928660 0.982608 0.220677
H17   H     H_    0.581277 0.802358 0.013001 0.179768
O16   O     O_3   0.383008 0.119645 0.779373 -0.643434
C29   C     C_3   0.298416 0.104053 0.677551 -0.348625
H18   H     H_    0.308421 0.020384 0.613915 0.215439
H19   H     H_    0.297482 0.188307 0.614948 0.173212
H20   H     H_    0.211806 0.094979 0.724899 0.183310
O17   O     O_3   0.576582 0.129277 0.844895 -0.599498
C30   C     C_3   0.692595 0.139006 0.799097 -0.254977
H21   H     H_    0.700733 0.208741 0.718655 0.207230
H22   H     H_    0.725345 0.047925 0.764874 0.166992
H23   H     H_    0.748904 0.171134 0.882863 0.212921
C31   C     C_2   0.701088 0.581540 0.141219 0.932897
O18   O     O_2   0.691777 0.680072 0.201614 -0.627999
O19   O     O_R   0.808500 0.524888 0.134076 -0.798400
H24   H     H_    0.871187 0.575801 0.182197 0.337533
C32   C     C_2   0.715824 0.515709 0.865985 1.065906
O20   O     O_2   0.762050 0.416939 0.843834 -0.608507
O21   O     O_R   0.776451 0.626684 0.837520 -0.762507
H25   H     H_    0.733782 0.702730 0.867393 0.331663
O22   O     O_3   0.198713 0.474926 0.868108 -0.556672
C33   C     C_3   0.122906 0.385996 0.807012 -0.207127
H26   H     H_    0.095962 0.310295 0.875408 0.116235
H27   H     H_    0.163687 0.344764 0.717751 0.144978
H28   H     H_    0.043107 0.433116 0.775479 0.225577

loop_
_geom_bond_atom_site_label_1
_geom_bond_atom_site_label_2
_ccdc_geom_bond_type
C29   H19   S    
O14   C27   S    
C12   O4    A    
C24   H3    S    
C19   C20   S    
C33   H28   S    
C7    O14   S    
O21   H25   S    
C7    C8    S    
O12   C25   S    
C16   O6    A    
C25   H8    S    
C12   O3    A    
C23   O9    D    
C33   H27   S    
C1    C2    S    
C5    C6    A    
C29   H20   S    
C11   N2    A    
C16   O5    A    
C6    C22   A    
C27   H12   S    
C18   C19   T    
C28   H16   S    
C9    C13   A    
C5    C16   S    
O1    Zn1   S    
C2    C22   A    
C8    C22   S    
O17   C30   S    
N2    Zn1   S    
C29   H18   S    
O3    Zn1   S    
C8    O16   S    
C13   C14   S    
C24   H4    S    
C13   N2    A    
C17   O8    A    
C14   O22   S    
C25   H7    S    
N1    Zn2   S    
O5    Zn1   S    
C26   H9    S    
C33   H26   S    
C32   O21   S    
C10   N1    A    
O19   H24   S    
C17   C21   S    
C4    O13   S    
O15   C28   S    
C26   H10   S    
O7    Zn1   S    
C14   H1    S    
C28   H17   S    
C31   O18   D    
C10   C31   S    
O22   C33   S    
O13   C26   S    
C31   O19   S    
C11   C32   S    
O11   C24   S    
C1    O1    A    
C24   H5    S    
O6    Zn2   S    
C15   O12   S    
C3    C4    A    
C7    O15   S    
C30   H22   S    
C25   H6    S    
C4    C5    A    
C30   H23   S    
C9    N1    A    
C6    C7    S    
O4    Zn2   S    
C8    O17   S    
C27   H14   S    
C26   H11   S    
O2    Zn2   S    
C23   O10   S    
C2    C3    A    
C9    C15   S    
C30   H21   S    
O10   H2    S    
C3    C23   S    
O8    Zn2   S    
C27   H13   S    
C28   H15   S    
C15   O11   S    
C10   C11   A    
C32   O20   D    
C20   C21   T    
O16   C29   S    
C12   C18   S    
C1    O2    A    
C17   O7    A    
C14   C15   S    
