data_mof_unit_16787.cif
_audit_creation_date              2012-10-26T21:00:44-0400
_audit_creation_method            fapswitch 2.2
_symmetry_space_group_name_H-M    P1
_symmetry_Int_Tables_number       1
_space_group_crystal_system       triclinic
_cell_length_a                    10.848851
_cell_length_b                    9.542811
_cell_length_c                    10.758175
_cell_angle_alpha                 89.839976
_cell_angle_beta                  90.775597
_cell_angle_gamma                 89.760773
_cell_volume                      1113.66181951

loop_
_atom_site_label
_atom_site_type_symbol
_atom_type_description
_atom_site_fract_x
_atom_site_fract_y
_atom_site_fract_z
_atom_type_partial_charge
C1    C     C_R   0.262351 0.500054 0.503817 0.542817
C2    C     C_R   0.498859 0.499862 0.737400 0.541793
C3    C     C_R   0.274442 0.576632 0.126233 -0.090367
C4    C     C_R   0.275830 0.580975 0.866648 -0.082481
C5    C     C_R   0.168228 0.614417 0.059444 -0.131166
C6    C     C_R   0.169080 0.617191 0.930054 -0.109480
C7    C     C_R   0.384195 0.541607 0.932504 0.027491
C8    C     C_R   0.383772 0.540594 0.063823 0.034131
C9    C     C_R   0.492122 0.499727 0.128789 0.013694
C10   C     C_R   0.492380 0.499537 0.870957 0.017157
C11   C     C_R   0.596559 0.454964 0.065722 -0.150064
C12   C     C_R   0.737964 0.498933 0.497291 0.553566
C13   C     C_R   0.596578 0.454535 0.937325 -0.142459
C14   C     C_R   0.065960 0.376807 0.541780 0.281956
C15   C     C_R   0.938211 0.370279 0.523590 0.281041
C16   C     C_R   0.872254 0.494885 0.494047 -0.024122
C17   C     C_R   0.128559 0.499068 0.506197 -0.022981
C18   C     C_3   0.145490 0.152673 0.548095 -0.064544
C19   C     C_3   0.861251 0.178792 0.425418 -0.115906
C20   C     C_3   0.249404 0.909642 0.295957 -0.145358
C21   C     C_3   0.762901 0.886824 0.671009 -0.109969
C22   C     C_R   0.935845 0.617471 0.464743 -0.220042
C23   C     C_R   0.063177 0.618299 0.467405 -0.223189
C24   C     C_R   0.433116 0.075565 0.413589 -0.022975
C25   C     C_R   0.567710 0.074243 0.585717 0.006894
C26   C     C_R   0.429803 0.925445 0.414507 0.353249
C27   C     C_R   0.570851 0.924741 0.584409 0.346172
C28   C     C_R   0.498370 0.500062 0.262561 0.524270
Cu1   Cu    Cu3+1 0.500000 0.640660 0.500000 1.042194
Cu2   Cu    Cu3+1 0.500000 0.359340 0.500000 0.951186
H1    H     H_    0.269730 0.574371 0.226609 0.134842
H2    H     H_    0.678765 0.420920 0.889326 0.124332
H3    H     H_    0.229477 0.100611 0.586177 0.142762
H4    H     H_    0.160839 0.171112 0.447134 0.080757
H5    H     H_    0.068020 0.079252 0.562777 0.139144
H6    H     H_    0.950021 0.144466 0.385336 0.072262
H7    H     H_    0.812955 0.247580 0.356525 0.130509
H8    H     H_    0.803422 0.084561 0.437853 0.124911
H9    H     H_    0.258627 0.998875 0.230378 0.112248
H10   H     H_    0.199083 0.940280 0.380876 0.064832
H11   H     H_    0.192153 0.830108 0.248058 0.136490
H12   H     H_    0.272163 0.582443 0.766176 0.129436
H13   H     H_    0.779394 0.988871 0.717561 0.126019
H14   H     H_    0.799010 0.888250 0.574755 0.100551
H15   H     H_    0.816318 0.806220 0.723453 0.142662
H16   H     H_    0.084841 0.641284 0.108298 0.103038
H17   H     H_    0.086435 0.646406 0.878555 0.115445
H18   H     H_    0.887222 0.712241 0.437537 0.136150
H19   H     H_    0.110410 0.713001 0.440827 0.145970
H20   H     H_    0.382729 0.134970 0.343978 0.123357
H21   H     H_    0.619323 0.131391 0.655503 0.150209
H22   H     H_    0.678751 0.421710 0.116320 0.108952
N1    N     N_R   0.500000 0.852070 0.500000 -0.204595
N2    N     N_R   0.500000 0.147940 0.500000 -0.289154
O1    O     O_R   0.319640 0.618740 0.499990 -0.498515
O2    O     O_3   0.878480 0.244338 0.542431 -0.552808
O3    O     O_3   0.365412 0.849645 0.324739 -0.525584
O4    O     O_3   0.637041 0.850387 0.673854 -0.531659
O5    O     O_R   0.680360 0.618740 0.500010 -0.491403
O6    O     O_R   0.319620 0.381170 0.499990 -0.480297
O7    O     O_R   0.680380 0.381170 0.500010 -0.470032
O8    O     O_R   0.500000 0.618810 0.319650 -0.449608
O9    O     O_R   0.500000 0.618810 0.680350 -0.451568
O10   O     O_R   0.499970 0.381240 0.319640 -0.524854
O11   O     O_R   0.500030 0.381240 0.680360 -0.502014
O12   O     O_3   0.126343 0.277343 0.615032 -0.535296

loop_
_geom_bond_atom_site_label_1
_geom_bond_atom_site_label_2
_ccdc_geom_bond_type
C19   O2    S    
C7    C10   A    
C22   H18   S    
C25   H21   S    
Cu1   Cu2   S    
C19   H8    S    
Cu2   O10   S    
C18   O12   S    
C21   H14   S    
C9    C11   A    
C18   H5    S    
C13   H2    S    
C1    C17   S    
C14   C15   A    
C2    O11   A    
C15   O2    S    
Cu2   N2    S    
Cu1   O9    S    
C20   H11   S    
C14   O12   S    
C21   O4    S    
C27   N1    A    
C25   N2    A    
C3    H1    S    
C12   O7    A    
C11   C13   A    
C14   C17   A    
C17   C23   A    
C4    H12   S    
C4    C7    A    
C28   O10   A    
C1    O6    A    
C26   O3    S    
C24   C26   A    
C12   O5    A    
C21   H15   S    
C19   H6    S    
C18   H4    S    
C1    O1    A    
C5    C6    A    
C20   H10   S    
C18   H3    S    
C23   H19   S    
Cu2   O11   S    
C25   C27   A    
C6    H17   S    
C24   N2    A    
C15   C16   A    
C2    C10   S    
C26   N1    A    
Cu1   O5    S    
C7    C8    A    
C2    O9    A    
C4    C6    A    
C3    C8    A    
C5    H16   S    
Cu2   O7    S    
C24   H20   S    
C20   H9    S    
Cu1   O8    S    
C16   C22   A    
C11   H22   S    
C19   H7    S    
C3    C5    A    
C20   O3    S    
C21   H13   S    
Cu1   O1    S    
C10   C13   A    
C22   C23   A    
C12   C16   S    
C9    C28   S    
Cu2   O6    S    
C8    C9    A    
Cu1   N1    S    
C27   O4    S    
C28   O8    A    
