data_mof_unit_34965.cif
_audit_creation_date              2012-12-10T19:41:39-0500
_audit_creation_method            fapswitch 2.2
_symmetry_space_group_name_H-M    P1
_symmetry_Int_Tables_number       1
_space_group_crystal_system       triclinic
_cell_length_a                    10.836136
_cell_length_b                    15.875454
_cell_length_c                    16.959452
_cell_angle_alpha                 93.147602
_cell_angle_beta                  91.033147
_cell_angle_gamma                 92.923899
_cell_volume                      2908.6817812

loop_
_atom_site_label
_atom_site_type_symbol
_atom_type_description
_atom_site_fract_x
_atom_site_fract_y
_atom_site_fract_z
_atom_type_partial_charge
C1    C     C_R   0.496900 0.492237 0.348242 0.934260
C2    C     C_R   0.493761 0.507501 0.651607 0.901076
C3    C     C_R   0.871226 0.498110 0.499009 -0.054190
C4    C     C_R   0.128504 0.500249 0.505030 -0.098194
C5    C     C_R   0.933754 0.441937 0.448272 0.114174
C6    C     C_R   0.065815 0.552426 0.559481 0.099589
C7    C     C_R   0.505306 0.495349 0.261633 -0.173864
C8    C     C_R   0.486749 0.503673 0.738571 -0.211185
C9    C     C_R   0.460801 0.564058 0.220713 0.261204
C10   C     C_R   0.433619 0.431339 0.774880 0.285695
C11   C     C_R   0.505578 0.578952 0.144290 0.284927
C12   C     C_R   0.456140 0.422626 0.856566 0.299927
C13   C     C_R   0.574577 0.517135 0.105180 0.248384
C14   C     C_R   0.509568 0.491282 0.902938 0.274502
C15   C     C_R   0.606368 0.445295 0.143253 -0.085088
C16   C     C_R   0.552333 0.564694 0.867546 -0.140948
C17   C     C_R   0.574986 0.435673 0.221417 -0.218786
C18   C     C_R   0.543678 0.569894 0.786153 -0.232415
C19   C     C_R   0.416247 0.739929 0.468988 -0.060563
C20   C     C_R   0.558454 0.262166 0.549873 -0.031902
C21   C     C_R   0.395360 0.825783 0.463011 0.326662
C22   C     C_R   0.572861 0.176702 0.562679 0.240282
C23   C     C_R   0.262456 0.500155 0.503092 0.885855
C24   C     C_R   0.737561 0.499646 0.498283 0.823212
C25   C     C_R   0.480314 0.887079 0.496961 0.259509
C26   C     C_R   0.511561 0.114181 0.512828 0.274301
C27   C     C_R   0.583091 0.858940 0.538086 -0.286443
C28   C     C_R   0.438398 0.140833 0.450189 -0.267134
C29   C     C_R   0.599350 0.771558 0.544796 0.581881
C30   C     C_R   0.426472 0.227695 0.438834 0.538758
C31   C     C_R   0.192317 0.630281 0.763593 0.502150
C32   C     C_R   0.831973 0.314407 0.259429 0.496314
C33   C     C_R   0.123149 0.581005 0.705046 0.275902
C34   C     C_R   0.876235 0.383684 0.309246 0.297030
C35   C     C_R   0.130111 0.603638 0.625180 -0.191580
C36   C     C_R   0.870787 0.377804 0.392350 -0.205534
C37   C     C_R   0.195712 0.678660 0.607752 -0.259004
C38   C     C_R   0.821545 0.302998 0.422943 -0.233914
C39   C     C_R   0.263298 0.726686 0.666513 0.621065
C40   C     C_R   0.774941 0.235991 0.372625 0.599428
C41   C     C_R   0.263331 0.701655 0.743934 -0.291665
C42   C     C_R   0.780031 0.241764 0.291108 -0.278085
C43   C     C_R   0.937620 0.551598 0.554528 -0.079709
C44   C     C_R   0.061846 0.444808 0.451506 -0.112727
Cu1   Cu    Cu3+1 0.493970 0.415220 0.496180 1.059210
Cu2   Cu    Cu3+1 0.506030 0.584780 0.503820 1.072947
H1    H     H_    0.315999 0.739002 0.789429 0.228023
H2    H     H_    0.745766 0.189061 0.252219 0.236372
H3    H     H_    0.606992 0.382163 0.251142 0.198490
H4    H     H_    0.581650 0.626183 0.760462 0.237425
H5    H     H_    0.608524 0.309153 0.588031 0.209683
H6    H     H_    0.351684 0.694839 0.439474 0.220959
H7    H     H_    0.651843 0.904768 0.563653 0.245520
H8    H     H_    0.394080 0.094294 0.408470 0.244469
H9    H     H_    0.194669 0.699649 0.548123 0.207250
H10   H     H_    0.821783 0.295985 0.486148 0.213726
H11   H     H_    0.889392 0.589764 0.597185 0.222167
H12   H     H_    0.109391 0.403530 0.411243 0.223917
H13   H     H_    0.656926 0.397120 0.112184 0.253902
H14   H     H_    0.592310 0.618217 0.902934 0.219941
N1    N     N_2   0.595008 0.520588 0.023484 -0.125133
N2    N     N_2   0.502733 0.488885 0.985965 -0.126778
N3    N     N_R   0.515100 0.712130 0.509560 -0.252827
N4    N     N_R   0.484900 0.287870 0.490440 -0.261395
N5    N     N_2   0.461207 0.974644 0.485629 -0.127103
N6    N     N_2   0.531078 0.026818 0.525061 -0.118037
O1    O     O_R   0.494360 0.420530 0.382500 -0.536735
O2    O     O_R   0.505640 0.579470 0.617500 -0.556574
O3    O     O_R   0.504550 0.563720 0.388950 -0.555551
O4    O     O_R   0.495450 0.436280 0.611050 -0.552485
O5    O     O_R   0.314550 0.428410 0.496780 -0.534922
O6    O     O_R   0.685450 0.571590 0.503220 -0.504630
O7    O     O_R   0.324740 0.571600 0.503230 -0.618541
O8    O     O_R   0.675260 0.428400 0.496770 -0.624973
S1    S     S_3+6 0.669495 0.148996 0.641190 0.120625
O9    O     O_2   0.778788 0.106111 0.607444 -0.170203
O10   O     O_2   0.714493 0.225764 0.691486 -0.216778
O11   O     O_3   0.591179 0.081398 0.697333 -0.429003
H15   H     H_    0.518804 0.112134 0.715701 0.386088
S2    S     S_3+6 0.261711 0.855633 0.412399 0.095108
O12   O     O_2   0.299566 0.892536 0.336206 -0.184526
O13   O     O_2   0.172917 0.780750 0.395046 -0.260893
O14   O     O_3   0.192054 0.929125 0.468447 -0.472402
H16   H     H_    0.124131 0.947464 0.434591 0.399566
S3    S     S_3+6 0.735782 0.744691 0.593473 0.046131
O15   O     O_2   0.784441 0.817826 0.647299 -0.251437
O16   O     O_2   0.713328 0.669525 0.641928 -0.300440
O17   O     O_3   0.841271 0.724301 0.524343 -0.514933
H17   H     H_    0.922418 0.740628 0.550096 0.378921
S4    S     S_3+6 0.347201 0.252395 0.351859 0.058053
O18   O     O_2   0.282997 0.333306 0.362369 -0.272212
O19   O     O_2   0.439005 0.259606 0.286935 -0.281712
O20   O     O_3   0.241378 0.174149 0.325719 -0.506061
H18   H     H_    0.202950 0.191275 0.276034 0.404102
F1    F     F_    0.189277 0.610808 0.840455 -0.568376
F2    F     F_    0.840764 0.316283 0.179840 -0.577186
S5    S     S_3+6 0.020320 0.498187 0.735003 0.123502
O21   O     O_2   0.005517 0.427159 0.672766 -0.231877
O22   O     O_2   0.066040 0.463576 0.810271 -0.113864
O23   O     O_3   0.880966 0.537283 0.750615 -0.501823
H19   H     H_    0.895973 0.583815 0.791533 0.372617
S6    S     S_3+6 0.945494 0.473062 0.265779 0.086942
O24   O     O_2   0.879793 0.487642 0.189300 -0.213418
O25   O     O_2   0.941529 0.551326 0.319513 -0.262590
O26   O     O_3   0.093331 0.452790 0.247342 -0.452310
H20   H     H_    0.114851 0.484682 0.200504 0.417546
F3    F     F_    0.328315 0.798045 0.648501 -0.626400
F4    F     F_    0.729039 0.163931 0.402909 -0.628787
S7    S     S_3+6 0.327887 0.357846 0.721979 0.105857
O27   O     O_2   0.397129 0.285241 0.688025 -0.281336
O28   O     O_2   0.229769 0.324554 0.775271 -0.123216
O29   O     O_3   0.256529 0.403938 0.648732 -0.550439
H21   H     H_    0.209533 0.357032 0.618818 0.394754
S8    S     S_3+6 0.339500 0.623651 0.260514 0.100972
O30   O     O_2   0.394063 0.706309 0.295750 -0.229073
O31   O     O_2   0.248060 0.640293 0.196239 -0.166966
O32   O     O_3   0.264056 0.571633 0.330339 -0.543685
H22   H     H_    0.196088 0.607914 0.346280 0.402404
S9    S     S_3+6 0.424785 0.325881 0.903379 0.138495
O33   O     O_2   0.296985 0.326081 0.936404 -0.181072
O34   O     O_2   0.434139 0.250670 0.846449 -0.178582
O35   O     O_3   0.527247 0.317045 0.977828 -0.501587
H23   H     H_    0.493930 0.269129 0.007411 0.395021
S10   S     S_3+6 0.478458 0.672816 0.094655 0.124440
O36   O     O_2   0.366341 0.656970 0.041397 -0.195879
O37   O     O_2   0.459169 0.746785 0.151294 -0.149209
O38   O     O_3   0.601250 0.697789 0.039705 -0.510391
H24   H     H_    0.576026 0.745791 0.009264 0.386048

loop_
_geom_bond_atom_site_label_1
_geom_bond_atom_site_label_2
_ccdc_geom_bond_type
C29   N3    A    
O20   H18   S    
C30   N4    A    
Cu1   O5    S    
C11   S10   S    
C18   H4    S    
C30   S4    S    
S5    O21   D    
C39   C41   A    
Cu1   Cu2   S    
C39   F3    S    
C3    C43   A    
C34   S6    S    
C10   S7    S    
C9    S8    S    
C35   C37   A    
C20   H5    S    
C2    O2    A    
S7    O28   D    
S3    O17   S    
C27   C29   A    
C14   N2    S    
C5    C36   S    
C6    C35   S    
S6    O26   S    
C15   C17   A    
C16   H14   S    
Cu2   O3    S    
C1    O1    A    
C19   H6    S    
C44   H12   S    
C7    C17   A    
Cu1   O1    S    
C31   C33   A    
Cu2   O6    S    
C40   F4    S    
C40   C42   A    
C3    C24   S    
S6    O24   D    
C15   H13   S    
C22   S1    S    
C23   O7    A    
S2    O14   S    
O29   H21   S    
S5    O22   D    
S8    O30   D    
S9    O34   D    
S3    O16   D    
C26   N6    S    
C23   O5    A    
C25   N5    S    
C4    C6    A    
S7    O29   S    
C17   H3    S    
C4    C23   S    
C28   H8    S    
O11   H15   S    
C4    C44   A    
S3    O15   D    
C1    O3    A    
Cu1   O8    S    
C32   C34   A    
C20   N4    A    
S1    O9    D    
Cu2   O2    S    
C12   S9    S    
S1    O10   D    
S4    O19   D    
O14   H16   S    
C41   H1    S    
C38   H10   S    
C16   C18   A    
C42   H2    S    
S6    O25   D    
C9    C11   A    
C10   C12   A    
S10   O38   S    
S2    O13   D    
C32   F2    S    
C5    C44   A    
C12   C14   A    
C6    C43   A    
C13   C15   A    
C14   C16   A    
O38   H24   S    
S5    O23   S    
C24   O6    A    
S4    O20   S    
S10   O37   D    
S9    O35   S    
C7    C9    A    
C21   C25   A    
C31   C41   A    
C19   C21   A    
Cu1   O4    S    
C1    C7    S    
C29   S3    S    
C2    C8    S    
C20   C22   A    
S2    O12   D    
C3    C5    A    
S8    O31   D    
S9    O33   D    
C27   H7    S    
C25   C27   A    
O26   H20   S    
Cu1   N4    S    
C26   C28   A    
Cu2   N3    S    
C28   C30   A    
C37   C39   A    
C19   N3    A    
O32   H22   S    
C38   C40   A    
C11   C13   A    
C24   O8    A    
S4    O18   D    
C31   F1    S    
C21   S2    S    
C36   C38   A    
O23   H19   S    
C33   C35   A    
C34   C36   A    
N1    N2    D    
S1    O11   S    
C8    C18   A    
S8    O32   S    
C43   H11   S    
C37   H9    S    
C13   N1    S    
O17   H17   S    
C8    C10   A    
N5    N6    D    
C22   C26   A    
S7    O27   D    
C32   C42   A    
C33   S5    S    
O35   H23   S    
C2    O4    A    
Cu2   O7    S    
S10   O36   D    
