data_mof_unit_29978.cif
_audit_creation_date              2012-12-11T14:21:15-0500
_audit_creation_method            fapswitch 2.2
_symmetry_space_group_name_H-M    P1
_symmetry_Int_Tables_number       1
_space_group_crystal_system       triclinic
_cell_length_a                    21.982714
_cell_length_b                    7.208293
_cell_length_c                    14.938505
_cell_angle_alpha                 89.555082
_cell_angle_beta                  106.983375
_cell_angle_gamma                 89.829911
_cell_volume                      2263.78978148

loop_
_atom_site_label
_atom_site_type_symbol
_atom_type_description
_atom_site_fract_x
_atom_site_fract_y
_atom_site_fract_z
_atom_type_partial_charge
O1    O     O_R   0.584770 0.505770 0.002090 -0.507183
O2    O     O_R   0.415230 0.005770 0.997910 -0.507715
O3    O     O_R   0.467060 0.173340 0.861950 -0.539957
O4    O     O_R   0.532940 0.673340 0.138050 -0.540693
C1    C     C_R   0.455239 0.345194 0.826080 0.678339
C2    C     C_R   0.544856 0.843316 0.174056 0.678385
O5    O     O_R   0.587510 0.175890 0.993210 -0.562791
O6    O     O_R   0.412490 0.675890 0.006790 -0.562889
O7    O     O_R   0.536540 0.008150 0.130100 -0.537628
O8    O     O_R   0.463460 0.508150 0.869900 -0.537190
C3    C     C_R   0.612626 0.344995 0.996130 0.619837
C4    C     C_R   0.387360 0.845321 0.003861 0.621173
O9    O     O_3   0.483140 0.340040 0.044760 -0.371864
O10   O     O_3   0.516860 0.840040 0.955240 -0.371256
V1    V     V_3+5 0.503130 0.064190 0.991700 1.478244
V2    V     V_3+5 0.496870 0.564190 0.008300 1.478187
C5    C     C_2   0.214714 0.730325 0.005085 -0.093027
C6    C     C_2   0.785845 0.230715 0.996367 -0.090962
C7    C     C_2   0.178811 0.886165 0.990676 -0.257791
C8    C     C_2   0.821115 0.386800 0.009191 -0.260105
H1    H     H_    0.194049 0.600528 0.018970 0.142837
H2    H     H_    0.807086 0.100879 0.983929 0.143577
H3    H     H_    0.197104 0.015026 0.971525 0.203055
H4    H     H_    0.802293 0.515711 0.027040 0.203558
C9    C     C_2   0.281056 0.719550 0.998143 -0.243802
C10   C     C_2   0.719514 0.219423 0.003308 -0.244554
C11   C     C_2   0.321895 0.863296 0.011468 0.459423
C12   C     C_2   0.678005 0.362766 0.988243 0.461391
C13   C     C_R   0.926884 0.892629 0.723984 -0.029112
C14   C     C_R   0.073207 0.381369 0.275565 -0.025922
C15   C     C_R   0.573117 0.846068 0.275560 -0.028942
C16   C     C_R   0.426789 0.357288 0.724889 -0.026795
C17   C     C_R   0.934479 0.960673 0.569262 -0.161804
C18   C     C_R   0.063433 0.322716 0.429836 -0.160867
C19   C     C_R   0.963071 0.944099 0.665212 -0.170919
C20   C     C_R   0.035410 0.344243 0.333953 -0.174266
C21   C     C_R   0.861803 0.858335 0.686810 -0.208913
C22   C     C_R   0.139145 0.396708 0.312789 -0.205436
C23   C     C_R   0.830962 0.879585 0.589688 0.082200
C24   C     C_R   0.169131 0.373193 0.409918 0.082644
C25   C     C_R   0.868916 0.930962 0.531257 0.141026
C26   C     C_R   0.129697 0.335861 0.468110 0.140639
C27   C     C_R   0.763886 0.855631 0.549085 0.053929
C28   C     C_R   0.236613 0.383382 0.450858 0.054667
C29   C     C_R   0.736089 0.883468 0.450483 0.059449
C30   C     C_R   0.263377 0.355733 0.549611 0.058567
C31   C     C_R   0.776320 0.933353 0.395776 -0.186031
C32   C     C_R   0.221780 0.319346 0.604086 -0.186583
C33   C     C_R   0.841218 0.955880 0.435502 -0.200870
C34   C     C_R   0.156486 0.310077 0.563983 -0.200793
C35   C     C_R   0.723648 0.805870 0.603800 -0.179865
C36   C     C_R   0.278209 0.419809 0.396387 -0.176593
C37   C     C_R   0.658751 0.783317 0.564073 -0.192974
C38   C     C_R   0.343508 0.428956 0.436486 -0.192113
C39   C     C_R   0.631062 0.808076 0.468306 0.134757
C40   C     C_R   0.370300 0.403039 0.532352 0.135924
C41   C     C_R   0.669018 0.859407 0.409872 0.082654
C42   C     C_R   0.330860 0.365813 0.590546 0.082776
C43   C     C_R   0.565504 0.778267 0.430294 -0.160770
C44   C     C_R   0.436572 0.415935 0.570619 -0.159609
C45   C     C_R   0.536922 0.794688 0.334335 -0.163335
C46   C     C_R   0.464596 0.394257 0.666497 -0.167581
C47   C     C_R   0.638190 0.880472 0.312738 -0.211731
C48   C     C_R   0.360843 0.342237 0.687672 -0.212475
H5    H     H_    0.870020 0.995209 0.390643 0.123023
H6    H     H_    0.126590 0.281351 0.608701 0.122502
H7    H     H_    0.663375 0.916403 0.263174 0.098274
H8    H     H_    0.334667 0.315408 0.737052 0.098658
H9    H     H_    0.486693 0.765248 0.305688 0.112577
H10   H     H_    0.515670 0.407622 0.695284 0.114978
H11   H     H_    0.629945 0.744074 0.608938 0.133067
H12   H     H_    0.373406 0.457659 0.391768 0.128969
H13   H     H_    0.963441 0.000984 0.524828 0.112405
H14   H     H_    0.033300 0.293644 0.474128 0.112423
H15   H     H_    0.013302 0.973504 0.693855 0.105337
H16   H     H_    0.984343 0.330690 0.305163 0.104380
H17   H     H_    0.836623 0.822342 0.736371 0.103800
H18   H     H_    0.165314 0.423708 0.263415 0.099903
H19   H     H_    0.759337 0.957284 0.321437 0.124175
H20   H     H_    0.237917 0.296576 0.678555 0.126146
H21   H     H_    0.536538 0.738009 0.474732 0.114187
H22   H     H_    0.466712 0.444920 0.526327 0.114187
O11   O     O_R   0.036450 0.233070 0.130130 -0.536514
O12   O     O_R   0.963550 0.733070 0.869870 -0.537420
O13   O     O_R   0.912470 0.560570 0.006790 -0.541565
O14   O     O_R   0.087530 0.060570 0.993210 -0.540909
C49   C     C_R   0.887276 0.391988 0.003561 0.700773
C50   C     C_R   0.112715 0.891655 0.996441 0.701996
O15   O     O_R   0.032920 0.562940 0.138050 -0.539590
O16   O     O_R   0.967080 0.062940 0.861950 -0.539544
O17   O     O_R   0.084790 0.730500 0.002090 -0.537817
O18   O     O_R   0.915210 0.230500 0.997910 -0.537279
C51   C     C_R   0.044743 0.393498 0.174378 0.684576
C52   C     C_R   0.955154 0.895410 0.825491 0.684404
O19   O     O_3   0.016820 0.396170 0.955260 -0.378141
O20   O     O_3   0.983180 0.896170 0.044740 -0.378057
V3    V     V_3+5 0.996880 0.672090 0.008300 1.430902
V4    V     V_3+5 0.003120 0.172090 0.991700 1.433275
H23   H     H_    0.740623 0.782096 0.678151 0.136407
H24   H     H_    0.262068 0.442662 0.321922 0.132524
H25   H     H_    0.297263 0.583369 0.984071 0.120447
H26   H     H_    0.703918 0.083322 0.018931 0.117709
F1    F     F_    0.304910 0.032567 0.036209 -0.693896
F2    F     F_    0.694314 0.531910 0.961741 -0.694804

loop_
_geom_bond_atom_site_label_1
_geom_bond_atom_site_label_2
_ccdc_geom_bond_type
C39   C43   A    
C15   C45   A    
C6    C10   S    
C31   H19   S    
O2    C4    A    
C2    O7    A    
O19   V4    S    
O18   V4    S    
C23   C25   A    
O5    C3    A    
C19   H15   S    
C33   H5    S    
O12   V3    S    
C48   H8    S    
C14   C51   S    
C13   C52   S    
O14   C50   A    
O11   C51   A    
C8    C49   S    
C46   H10   S    
C44   C46   A    
C29   C31   A    
C11   F1    S    
C4    C11   S    
C20   H16   S    
C17   C19   A    
C44   H22   S    
C8    H4    S    
C28   C30   A    
O11   V4    S    
C18   C26   A    
O16   C52   A    
C18   C20   A    
C1    C16   S    
C28   C36   A    
C32   C34   A    
C2    C15   S    
O6    V2    S    
C49   O18   A    
C30   C42   A    
C42   C48   A    
C9    H25   S    
C25   C33   A    
C36   C38   A    
C41   C47   A    
C38   C40   A    
C37   C39   A    
C35   H23   S    
C47   H7    S    
C43   C45   A    
O13   C49   A    
C15   C47   A    
C16   C48   A    
O4    C2    A    
C7    C50   S    
C23   C27   A    
C22   H18   S    
C21   H17   S    
C36   H24   S    
C5    H1    S    
C40   C44   A    
O15   V3    S    
C35   C37   A    
O4    V2    S    
C7    H3    S    
C27   C29   A    
C12   F2    S    
C50   O17   A    
O6    C4    A    
C29   C41   A    
O20   V3    S    
O1    V2    S    
O12   C52   A    
O17   V3    S    
O2    V1    S    
C34   H6    S    
C26   C34   A    
C17   H13   S    
C18   H14   S    
C39   C41   A    
C37   H11   S    
O3    V1    S    
C45   H9    S    
C6    H2    S    
C43   H21   S    
C24   C26   A    
O3    C1    A    
C9    C11   D    
C13   C19   A    
C10   C12   D    
C14   C20   A    
C5    C9    S    
C32   H20   S    
O7    V1    S    
C17   C25   A    
C1    O8    A    
C21   C23   A    
O8    V2    S    
C31   C33   A    
C10   H26   S    
C22   C24   A    
C27   C35   A    
C3    C12   S    
O5    V1    S    
C5    C7    D    
C40   C42   A    
C6    C8    D    
O15   C51   A    
O14   V4    S    
O13   V3    S    
C16   C46   A    
C30   C32   A    
C24   C28   A    
C38   H12   S    
O9    V2    S    
C13   C21   A    
O10   V1    S    
O1    C3    A    
C14   C22   A    
O16   V4    S    
