data_mof_unit_17072.cif
_audit_creation_date              2012-12-10T17:43:51-0500
_audit_creation_method            fapswitch 2.2
_symmetry_space_group_name_H-M    P1
_symmetry_Int_Tables_number       1
_space_group_crystal_system       triclinic
_cell_length_a                    15.861972
_cell_length_b                    14.936838
_cell_length_c                    13.883492
_cell_angle_alpha                 88.869866
_cell_angle_beta                  90.87285
_cell_angle_gamma                 86.560746
_cell_volume                      3282.37672479

loop_
_atom_site_label
_atom_site_type_symbol
_atom_type_description
_atom_site_fract_x
_atom_site_fract_y
_atom_site_fract_z
_atom_type_partial_charge
C1    C     C_R   0.500207 0.329214 0.500717 0.803370
C2    C     C_R   0.499803 0.670786 0.499284 0.803361
C3    C     C_R   0.499500 0.767053 0.498234 -0.010323
C4    C     C_R   0.500519 0.232946 0.501770 -0.010311
C5    C     C_R   0.573428 0.808458 0.477213 -0.242788
C6    C     C_R   0.426599 0.191537 0.522811 -0.242755
C7    C     C_R   0.574285 0.901483 0.479011 0.097132
C8    C     C_R   0.425745 0.098513 0.521017 0.097124
C9    C     C_R   0.499537 0.953082 0.500151 0.041314
C10   C     C_R   0.500492 0.046915 0.499869 0.041313
C11   C     C_R   0.423851 0.910710 0.520678 0.048073
C12   C     C_R   0.576174 0.089289 0.479327 0.048066
C13   C     C_R   0.649138 0.943146 0.460907 -0.258325
C14   C     C_R   0.350892 0.056851 0.539121 -0.258322
C15   C     C_R   0.651413 0.036509 0.461906 -0.009235
C16   C     C_R   0.348611 0.963491 0.538091 -0.009213
C17   C     C_R   0.553602 0.440333 0.796823 0.125579
C18   C     C_R   0.446397 0.559666 0.203177 0.125601
C19   C     C_R   0.445933 0.558788 0.792108 0.134266
C20   C     C_R   0.554064 0.441210 0.207892 0.134274
C21   C     C_R   0.442028 0.556011 0.894596 -0.081696
C22   C     C_R   0.557970 0.443988 0.105404 -0.081694
C23   C     C_R   0.340111 0.501772 0.499261 0.807765
C24   C     C_R   0.659889 0.498228 0.500739 0.807751
C25   C     C_R   0.501228 0.501149 0.948429 0.067311
C26   C     C_R   0.498771 0.498850 0.051571 0.067305
C27   C     C_R   0.562429 0.448105 0.899255 -0.093609
C28   C     C_R   0.437570 0.551893 0.100745 -0.093601
C29   C     C_R   0.378559 0.605130 0.944283 -0.229821
C30   C     C_R   0.621438 0.394866 0.055718 -0.229819
C31   C     C_R   0.373441 0.600575 0.044859 0.003252
C32   C     C_R   0.626554 0.399420 0.955142 0.003261
C33   C     C_3   0.978593 0.422283 0.538427 -0.022633
C34   C     C_3   0.021404 0.577747 0.461566 -0.022583
C35   C     C_3   0.033804 0.432009 0.448434 -0.070133
C36   C     C_3   0.966192 0.568022 0.551558 -0.070155
C37   C     C_1   0.250633 0.504451 0.497755 -0.146648
C38   C     C_1   0.749366 0.495555 0.502243 -0.146663
C39   C     C_3   0.029135 0.492222 0.591817 -0.067912
C40   C     C_3   0.970861 0.507808 0.408174 -0.067812
C41   C     C_3   0.083984 0.502360 0.501404 0.015141
C42   C     C_3   0.916012 0.497670 0.498588 0.015189
C43   C     C_1   0.175224 0.505205 0.498422 -0.006316
C44   C     C_1   0.824774 0.494813 0.501573 -0.006346
C45   C     C_R   0.425559 0.816866 0.520585 -0.188017
C46   C     C_R   0.574461 0.183135 0.479411 -0.188050
Cu1   Cu    Cu3+1 0.500010 0.499990 0.597420 0.972178
Cu2   Cu    Cu3+1 0.499990 0.500010 0.402580 0.972195
H1    H     H_    0.328917 0.643714 0.904759 0.179342
H2    H     H_    0.671077 0.356278 0.095242 0.179322
H3    H     H_    0.369488 0.781368 0.535122 0.148123
H4    H     H_    0.630528 0.218635 0.464865 0.148127
H5    H     H_    0.630341 0.767955 0.460939 0.123380
H6    H     H_    0.369686 0.232039 0.539091 0.123377
H7    H     H_    0.706498 0.902746 0.446380 0.154621
H8    H     H_    0.293533 0.097249 0.553655 0.154575
N1    N     N_R   0.499960 0.499930 0.743810 -0.241374
N2    N     N_R   0.500040 0.500070 0.256190 -0.241375
O1    O     O_R   0.500020 0.370250 0.582280 -0.586280
O2    O     O_R   0.499980 0.629750 0.417720 -0.586277
O3    O     O_R   0.500010 0.370270 0.417740 -0.554142
O4    O     O_R   0.499990 0.629730 0.582260 -0.554148
O5    O     O_R   0.379080 0.499980 0.582260 -0.559187
O6    O     O_R   0.620920 0.500020 0.417740 -0.559179
O7    O     O_R   0.379070 0.500000 0.417710 -0.590727
O8    O     O_R   0.620930 0.500000 0.582290 -0.590748
C47   C     C_R   0.070489 0.350531 0.396892 0.123492
C48   C     C_R   0.028451 0.316530 0.316850 -0.170819
C49   C     C_R   0.061744 0.239962 0.271193 -0.150884
C50   C     C_R   0.136290 0.195470 0.306072 -0.105902
C51   C     C_R   0.177248 0.227041 0.387200 -0.136611
C52   C     C_R   0.144163 0.303577 0.433041 -0.082186
H9    H     H_    0.968984 0.347405 0.290608 0.146211
H10   H     H_    0.029029 0.214411 0.209511 0.140582
H11   H     H_    0.161737 0.135912 0.270994 0.128511
H12   H     H_    0.234385 0.191860 0.414932 0.126088
H13   H     H_    0.175637 0.325156 0.497434 0.132053
C53   C     C_R   0.929552 0.649505 0.603126 0.123555
C54   C     C_R   0.971728 0.683576 0.683030 -0.170829
C55   C     C_R   0.938500 0.760162 0.728706 -0.150929
C56   C     C_R   0.863876 0.804602 0.693977 -0.105904
C57   C     C_R   0.822775 0.772959 0.612981 -0.136628
C58   C     C_R   0.855798 0.696406 0.567122 -0.082145
H14   H     H_    0.031255 0.652741 0.709145 0.146165
H15   H     H_    0.971325 0.785771 0.790279 0.140579
H16   H     H_    0.838482 0.864176 0.729066 0.128519
H17   H     H_    0.765578 0.808102 0.585358 0.126124
H18   H     H_    0.824217 0.674785 0.502820 0.131942
C59   C     C_2   0.293814 0.637502 0.086356 0.818441
O9    O     O_2   0.252716 0.589989 0.138138 -0.625079
O10   O     O_R   0.263526 0.724970 0.062116 -0.756195
H19   H     H_    0.208106 0.742209 0.094286 0.334249
C60   C     C_2   0.706177 0.362482 0.913645 0.818448
O11   O     O_2   0.747289 0.409995 0.861879 -0.625083
O12   O     O_R   0.736444 0.275004 0.937867 -0.756187
H20   H     H_    0.791860 0.257754 0.905693 0.334262
C61   C     C_2   0.958285 0.333586 0.582091 0.830946
O13   O     O_2   0.015743 0.280217 0.608759 -0.604887
O14   O     O_R   0.874503 0.312830 0.593686 -0.779440
H21   H     H_    0.870362 0.252161 0.626577 0.324252
C62   C     C_2   0.041708 0.666441 0.417895 0.830866
O15   O     O_2   0.984246 0.719840 0.391308 -0.604858
O16   O     O_R   0.125488 0.687153 0.406184 -0.779466
H22   H     H_    0.129625 0.747810 0.373264 0.324260
C63   C     C_R   0.947194 0.522028 0.302716 0.086266
C64   C     C_R   0.011660 0.532277 0.235641 -0.105950
C65   C     C_R   0.992118 0.545748 0.137724 -0.128301
C66   C     C_R   0.908105 0.548613 0.105646 -0.129819
C67   C     C_R   0.843574 0.538225 0.171517 -0.101072
C68   C     C_R   0.862854 0.525374 0.269626 -0.119212
H23   H     H_    0.077164 0.529849 0.259334 0.163017
H24   H     H_    0.042135 0.554146 0.086788 0.150340
H25   H     H_    0.892945 0.559158 0.029853 0.140523
H26   H     H_    0.778447 0.540398 0.146602 0.152309
H27   H     H_    0.811558 0.518259 0.318401 0.172312
C69   C     C_R   0.052796 0.478024 0.697279 0.086342
C70   C     C_R   0.988321 0.467851 0.764359 -0.105841
C71   C     C_R   0.007856 0.454422 0.862284 -0.128270
C72   C     C_R   0.091870 0.451516 0.894362 -0.129834
C73   C     C_R   0.156410 0.461815 0.828483 -0.101042
C74   C     C_R   0.137137 0.474625 0.730368 -0.119196
H28   H     H_    0.922816 0.470313 0.740666 0.162932
H29   H     H_    0.957832 0.446092 0.913226 0.150329
H30   H     H_    0.107023 0.441009 0.970161 0.140543
H31   H     H_    0.221539 0.459604 0.853397 0.152307
H32   H     H_    0.188441 0.481663 0.681585 0.172249
C75   C     C_R   0.734546 0.075422 0.450449 0.108153
C76   C     C_R   0.798825 0.055653 0.519729 -0.172921
C77   C     C_R   0.878023 0.090553 0.509200 -0.133178
C78   C     C_R   0.893634 0.145396 0.429607 -0.069592
C79   C     C_R   0.830286 0.164888 0.359915 -0.146201
C80   C     C_R   0.751064 0.129535 0.369802 -0.145861
H33   H     H_    0.787423 0.013450 0.581976 0.125633
H34   H     H_    0.927237 0.075345 0.562930 0.149237
H35   H     H_    0.954891 0.172572 0.422116 0.156638
H36   H     H_    0.842694 0.207114 0.298100 0.134588
H37   H     H_    0.702671 0.144333 0.314978 0.172033
C81   C     C_R   0.265468 0.924586 0.549472 0.108156
C82   C     C_R   0.248890 0.870467 0.630093 -0.145874
C83   C     C_R   0.169656 0.835125 0.639901 -0.146232
C84   C     C_R   0.106356 0.854634 0.570156 -0.069576
C85   C     C_R   0.122029 0.909480 0.490585 -0.133221
C86   C     C_R   0.201239 0.944370 0.480135 -0.172956
H38   H     H_    0.297244 0.855657 0.684957 0.171998
H39   H     H_    0.157201 0.792895 0.701697 0.134528
H40   H     H_    0.045090 0.827468 0.577584 0.156734
H41   H     H_    0.072854 0.924698 0.436812 0.149234
H42   H     H_    0.212689 0.986575 0.417906 0.125626
C87   C     C_R   0.577463 0.351055 0.757134 0.133636
C88   C     C_R   0.527395 0.279395 0.780982 -0.139907
C89   C     C_R   0.551148 0.192126 0.753619 -0.099832
C90   C     C_R   0.625101 0.175398 0.702264 -0.102658
C91   C     C_R   0.674334 0.246179 0.676373 -0.179129
C92   C     C_R   0.651299 0.333702 0.704155 -0.051571
H43   H     H_    0.470528 0.291117 0.822285 0.125909
H44   H     H_    0.512432 0.137417 0.772640 0.138623
H45   H     H_    0.643662 0.107748 0.681236 0.133913
H46   H     H_    0.730309 0.232749 0.634732 0.159974
H47   H     H_    0.692672 0.386524 0.687532 0.183347
C93   C     C_R   0.422536 0.648945 0.242865 0.133624
C94   C     C_R   0.348702 0.666297 0.295849 -0.051548
C95   C     C_R   0.325668 0.753819 0.323635 -0.179152
C96   C     C_R   0.374900 0.824601 0.297741 -0.102668
C97   C     C_R   0.448849 0.807875 0.246379 -0.099835
C98   C     C_R   0.472602 0.720606 0.219014 -0.139919
H48   H     H_    0.307330 0.613475 0.312474 0.183374
H49   H     H_    0.269696 0.767247 0.365283 0.160017
H50   H     H_    0.356341 0.892251 0.318773 0.133911
H51   H     H_    0.487564 0.862584 0.227356 0.138624
H52   H     H_    0.529466 0.708885 0.177707 0.125914
C99   C     C_2   0.389315 0.624938 0.738587 0.876586
O17   O     O_2   0.411250 0.701234 0.725602 -0.612725
O18   O     O_R   0.307269 0.603637 0.714090 -0.796661
H53   H     H_    0.273687 0.655264 0.680283 0.317053
C100  C     C_2   0.610674 0.375053 0.261412 0.876576
O19   O     O_2   0.588735 0.298759 0.274389 -0.612736
O20   O     O_R   0.692721 0.396347 0.285920 -0.796671
H54   H     H_    0.726296 0.344716 0.319729 0.317070

loop_
_geom_bond_atom_site_label_1
_geom_bond_atom_site_label_2
_ccdc_geom_bond_type
C7    C13   A    
C14   H8    S    
C99   O17   D    
C60   O11   D    
C65   H24   S    
C36   C42   S    
O12   H20   S    
C63   C68   A    
C76   C77   A    
Cu1   O4    S    
C61   O13   D    
C39   C41   S    
C29   H1    S    
O18   H53   S    
C19   N1    A    
C99   O18   S    
C76   H33   S    
C33   C39   S    
C34   C40   S    
C33   C42   S    
C5    H5    S    
C97   C98   A    
C19   C21   A    
C19   C99   S    
C95   C96   A    
C2    C3    S    
C81   C86   A    
C1    O1    A    
Cu1   O5    S    
C51   H12   S    
C8    C10   A    
C2    O2    A    
Cu2   O6    S    
C20   C100  S    
C64   C65   A    
C45   H3    S    
C57   H17   S    
C46   H4    S    
C66   C67   A    
C47   C52   A    
C82   H38   S    
C91   H46   S    
C71   C72   A    
C52   H13   S    
C75   C80   A    
C84   C85   A    
C53   C58   A    
C18   N2    A    
C96   C97   A    
C48   C49   A    
C31   C59   S    
C24   C38   S    
C65   C66   A    
C50   C51   A    
Cu2   O7    S    
C59   O10   S    
C9    C10   A    
Cu1   O8    S    
C33   C61   S    
C56   H16   S    
C24   O8    A    
C40   C42   S    
C32   C60   S    
C30   H2    S    
C60   O12   S    
C87   C92   A    
C15   C75   S    
C41   C43   S    
C97   H51   S    
C34   C41   S    
C42   C44   S    
C6    H6    S    
C95   H49   S    
C61   O14   S    
Cu2   O2    S    
C64   H23   S    
C28   C31   A    
C86   H42   S    
C16   C81   S    
C34   C62   S    
C69   C74   A    
C47   C48   A    
C17   C27   A    
C62   O15   D    
C18   C28   A    
C83   C84   A    
C100  O20   S    
C79   H36   S    
O10   H19   S    
C5    C7    A    
C53   C54   A    
C4    C46   A    
C48   H9    S    
C72   H30   S    
C21   C29   A    
C3    C45   A    
C56   C57   A    
C54   C55   A    
C66   H25   S    
C37   C43   T    
C70   H28   S    
C38   C44   T    
C55   H15   S    
Cu1   N1    S    
C11   C16   A    
C78   C79   A    
Cu1   Cu2   S    
C12   C15   A    
C35   C47   S    
C89   C90   A    
C49   H10   S    
C89   H44   S    
C72   C73   A    
C9    C11   A    
C10   C12   A    
C84   H40   S    
C67   H26   S    
C12   C46   A    
C78   H35   S    
C20   C22   A    
C39   C69   S    
C88   H43   S    
C13   C15   A    
C14   C16   A    
C11   C45   A    
C4    C6    A    
C20   N2    A    
C79   C80   A    
C59   O9    D    
C50   H11   S    
C73   C74   A    
C77   C78   A    
C62   O16   S    
C98   H52   S    
C7    C9    A    
C21   C25   A    
C90   H45   S    
C8    C14   A    
C22   C30   A    
C27   C32   A    
C73   H31   S    
C85   H41   S    
C36   C39   S    
C17   C87   S    
C94   H48   S    
C55   C56   A    
C3    C5    A    
C1    O3    A    
C83   H39   S    
C6    C8    A    
C82   C83   A    
Cu2   N2    S    
C25   C27   A    
C63   C64   A    
C26   C28   A    
C88   C89   A    
O14   H21   S    
C1    C4    S    
C93   C94   A    
C23   O7    A    
C93   C98   A    
C35   C40   S    
C25   C26   A    
C96   H50   S    
C92   H47   S    
C29   C31   A    
C100  O19   D    
C23   C37   S    
C87   C88   A    
C30   C32   A    
Cu2   O3    S    
C54   H14   S    
C94   C95   A    
C23   O5    A    
C33   C35   S    
C69   C70   A    
C58   H18   S    
C34   C36   S    
C71   H29   S    
C49   C50   A    
C35   C41   S    
C18   C93   S    
C81   C82   A    
Cu1   O1    S    
C77   H34   S    
C2    O4    A    
C74   H32   S    
C51   C52   A    
C90   C91   A    
C24   O6    A    
O20   H54   S    
C22   C26   A    
C67   C68   A    
O16   H22   S    
C85   C86   A    
C36   C53   S    
C80   H37   S    
C57   C58   A    
C91   C92   A    
C70   C71   A    
C68   H27   S    
C75   C76   A    
C17   N1    A    
C40   C63   S    
C13   H7    S    
