data_mof_unit_30321.cif
_audit_creation_date              2012-12-10T17:15:50-0500
_audit_creation_method            fapswitch 2.2
_symmetry_space_group_name_H-M    P1
_symmetry_Int_Tables_number       1
_space_group_crystal_system       triclinic
_cell_length_a                    10.169278
_cell_length_b                    10.754537
_cell_length_c                    10.543829
_cell_angle_alpha                 90.283856
_cell_angle_beta                  93.204715
_cell_angle_gamma                 83.219247
_cell_volume                      1143.27690875

loop_
_atom_site_label
_atom_site_type_symbol
_atom_type_description
_atom_site_fract_x
_atom_site_fract_y
_atom_site_fract_z
_atom_type_partial_charge
C1    C     C_R   0.447154 0.513746 0.265749 0.981914
C2    C     C_R   0.577094 0.056374 0.409102 0.103039
C3    C     C_R   0.487315 0.129434 0.485666 -0.157478
C4    C     C_R   0.402512 0.073095 0.563657 -0.082244
C5    C     C_R   0.407821 0.945222 0.561687 -0.177805
C6    C     C_R   0.511281 0.872858 0.504582 -0.096645
C7    C     C_2   0.425772 0.539073 0.130124 -0.326392
C8    C     C_2   0.512477 0.600672 0.069716 -0.090038
C9    C     C_2   0.577354 0.509345 0.870398 -0.332745
C10   C     C_2   0.507825 0.603021 0.932440 -0.076504
C11   C     C_2   0.069034 0.502110 0.478030 -0.074270
C12   C     C_R   0.496397 0.260779 0.496705 0.936879
C13   C     C_2   0.922627 0.523871 0.495671 -0.036920
C14   C     C_R   0.553339 0.494907 0.734363 0.979980
C15   C     C_R   0.503789 0.740020 0.501549 1.012702
C16   C     C_R   0.642476 0.105949 0.307415 -0.062401
C17   C     C_R   0.765858 0.043624 0.272655 -0.059698
C18   C     C_R   0.811809 0.928006 0.329182 -0.124815
C19   C     C_R   0.732360 0.869943 0.408152 -0.131439
C20   C     C_R   0.608018 0.930386 0.441248 0.105295
H1    H     H_    0.346816 0.498111 0.077208 0.200586
H2    H     H_    0.881603 0.603913 0.549330 0.160141
H3    H     H_    0.881962 0.367754 0.405395 0.191255
H4    H     H_    0.907515 0.879266 0.308090 0.191115
H5    H     H_    0.774134 0.780600 0.445777 0.165429
H6    H     H_    0.336156 0.901612 0.613477 0.230407
H7    H     H_    0.640822 0.436038 0.922261 0.164145
N1    N     N_2   0.157290 0.551390 0.551110 -0.205226
N2    N     N_2   0.842740 0.448550 0.448960 -0.191033
O1    O     O_R   0.568950 0.489660 0.307530 -0.624566
O2    O     O_R   0.348880 0.522640 0.340350 -0.617151
O3    O     O_R   0.610060 0.300270 0.483590 -0.632176
O4    O     O_R   0.389990 0.333260 0.516410 -0.636914
O5    O     O_R   0.651120 0.477360 0.659650 -0.588079
O6    O     O_R   0.431050 0.510340 0.692470 -0.588845
O7    O     O_R   0.610010 0.666740 0.483590 -0.633611
O8    O     O_R   0.389940 0.699730 0.516410 -0.591499
Zn1   Zn    Zn3+2 0.646940 0.477980 0.478090 0.986001
Zn2   Zn    Zn3+2 0.353060 0.522020 0.521910 1.029216
C21   C     C_2   0.311509 0.141366 0.652630 0.945700
O9    O     O_2   0.352842 0.215092 0.729485 -0.601200
O10   O     O_R   0.179829 0.115927 0.652679 -0.789973
H8    H     H_    0.127790 0.166785 0.718379 0.363173
C22   C     C_2   0.112832 0.426454 0.367100 0.480745
H9    H     H_    0.199207 0.357848 0.375045 0.131714
O11   O     O_2   0.051365 0.440424 0.264309 -0.559747
C23   C     C_2   0.120598 0.616560 0.664111 1.015918
O12   O     O_2   0.172113 0.710177 0.693942 -0.602046
O13   O     O_R   0.033075 0.569993 0.744735 -0.805624
H10   H     H_    0.017606 0.624073 0.822763 0.369582
C24   C     C_2   0.572314 0.209229 0.226868 0.409206
H11   H     H_    0.625806 0.269379 0.172149 0.047614
O14   O     O_2   0.451244 0.225654 0.217618 -0.569335
C25   C     C_2   0.848575 0.096602 0.179272 0.428516
H12   H     H_    0.828991 0.193330 0.149153 0.059393
O15   O     O_2   0.942430 0.032314 0.135522 -0.513558
C26   C     C_2   0.442088 0.719424 0.870792 1.001873
O16   O     O_2   0.488620 0.761279 0.778157 -0.669497
O17   O     O_R   0.332861 0.786185 0.925046 -0.742562
H13   H     H_    0.299285 0.866093 0.876908 0.371469
C27   C     C_2   0.606751 0.678131 0.134542 0.983678
O18   O     O_2   0.571677 0.744459 0.223463 -0.641051
O19   O     O_R   0.732548 0.680917 0.088292 -0.768374
H14   H     H_    0.787248 0.738753 0.138867 0.354773

loop_
_geom_bond_atom_site_label_1
_geom_bond_atom_site_label_2
_ccdc_geom_bond_type
N2    Zn1   S    
C14   O5    A    
O6    Zn2   S    
C9    C14   S    
N1    C23   S    
O3    Zn1   S    
C2    C16   A    
C6    C20   A    
C9    C10   D    
C23   O12   D    
C16   C24   S    
C1    O2    A    
C8    C27   S    
O7    Zn1   S    
C17   C18   A    
C6    C15   S    
C7    C8    D    
C23   O13   S    
C1    C7    S    
C12   O3    A    
C11   C13   S    
O1    Zn1   S    
C26   O16   D    
C27   O18   D    
C11   N1    D    
C18   H4    S    
H3    N2    S    
C21   O10   S    
C21   O9    D    
O2    Zn2   S    
C13   H2    S    
C2    C3    A    
C5    C6    A    
C19   H5    S    
C25   O15   D    
C11   C22   S    
C26   O17   S    
C16   C17   A    
O10   H8    S    
O19   H14   S    
C2    C20   A    
C5    H6    S    
C4    C21   S    
C15   O7    A    
O17   H13   S    
C10   C26   S    
C24   H11   S    
C22   H9    S    
C9    H7    S    
O8    Zn2   S    
O13   H10   S    
C13   N2    D    
C14   O6    A    
C27   O19   S    
C18   C19   A    
C25   H12   S    
C1    O1    A    
C3    C12   S    
N1    Zn2   S    
C12   O4    A    
C7    H1    S    
C17   C25   S    
O4    Zn2   S    
C8    C10   S    
C15   O8    A    
C3    C4    A    
C19   C20   A    
C22   O11   D    
C4    C5    A    
C24   O14   D    
O5    Zn1   S    
