data_mof_unit_17898.cif
_audit_creation_date              2012-12-10T17:27:50-0500
_audit_creation_method            fapswitch 2.2
_symmetry_space_group_name_H-M    P1
_symmetry_Int_Tables_number       1
_space_group_crystal_system       triclinic
_cell_length_a                    10.71606
_cell_length_b                    11.979054
_cell_length_c                    12.867598
_cell_angle_alpha                 93.322057
_cell_angle_beta                  91.182555
_cell_angle_gamma                 85.093121
_cell_volume                      1642.76770514

loop_
_atom_site_label
_atom_site_type_symbol
_atom_type_description
_atom_site_fract_x
_atom_site_fract_y
_atom_site_fract_z
_atom_type_partial_charge
C1    C     C_R   0.498873 0.522074 0.700476 0.875120
C2    C     C_R   0.550770 0.632388 0.860044 -0.189391
C3    C     C_R   0.482210 0.445143 0.868754 -0.216413
C4    C     C_R   0.740551 0.499218 0.508878 0.929228
C5    C     C_R   0.502173 0.449916 0.974774 0.107355
C6    C     C_R   0.547813 0.546979 0.025186 0.082855
C7    C     C_R   0.564972 0.551305 0.132855 0.318849
C8    C     C_R   0.487512 0.365470 0.137447 -0.154974
C9    C     C_R   0.477159 0.358287 0.030498 -0.159417
C10   C     C_R   0.404804 0.953368 0.385110 0.199248
C11   C     C_R   0.406576 0.836871 0.401286 0.575736
C12   C     C_R   0.949859 0.393863 0.490327 -0.064138
C13   C     C_R   0.541228 0.857992 0.549027 -0.065261
C14   C     C_R   0.536838 0.975445 0.540192 -0.060995
C15   C     C_R   0.467504 0.023688 0.457016 -0.099597
C16   C     C_R   0.510259 0.478000 0.299905 0.994803
C17   C     C_R   0.462810 0.141478 0.448623 0.035471
C18   C     C_R   0.591722 0.162138 0.598810 -0.086201
C19   C     C_R   0.600537 0.046051 0.611042 0.331041
C20   C     C_R   0.259967 0.500119 0.491938 0.967108
C21   C     C_R   0.910862 0.283981 0.494765 -0.246835
C22   C     C_R   0.975048 0.192421 0.440153 0.441522
C23   C     C_R   0.875313 0.494435 0.519763 -0.125728
C24   C     C_R   0.077093 0.211359 0.380520 -0.145607
C25   C     C_R   0.124500 0.316516 0.385669 0.322123
C26   C     C_R   0.068594 0.404539 0.451985 0.005689
C27   C     C_R   0.930492 0.595461 0.542231 0.460139
C28   C     C_R   0.057723 0.596967 0.527615 -0.295794
C29   C     C_R   0.126373 0.502347 0.483346 -0.105463
C30   C     C_R   0.523929 0.463923 0.188784 -0.163266
C31   C     C_R   0.507480 0.535353 0.811592 -0.056502
C32   C     C_R   0.571668 0.638089 0.966617 -0.100413
Cl1   Cl    Cl    0.333431 0.008295 0.271511 -0.601590
Cl2   Cl    Cl    0.691379 0.993658 0.715966 -0.607596
Cl3   Cl    Cl    0.234694 0.340959 0.292264 -0.621719
Cl4   Cl    Cl    0.642305 0.662735 0.196152 -0.548580
H1    H     H_    0.445078 0.282925 0.991738 0.179451
H2    H     H_    0.462162 0.295622 0.180021 0.232303
H3    H     H_    0.605191 0.714253 0.001943 0.216614
H4    H     H_    0.913258 0.753006 0.592421 0.359653
H5    H     H_    0.278898 0.808475 0.294612 0.372700
H6    H     H_    0.862271 0.086212 0.484188 0.346556
H7    H     H_    0.571637 0.702261 0.815355 0.190701
H8    H     H_    0.447746 0.370383 0.830476 0.167527
H9    H     H_    0.409992 0.181537 0.386792 0.215705
H10   H     H_    0.639606 0.216497 0.653432 0.168449
H11   H     H_    0.595630 0.817943 0.610310 0.218299
H12   H     H_    0.834683 0.266751 0.543244 0.177049
H13   H     H_    0.119207 0.144126 0.329877 0.239346
H14   H     H_    0.103337 0.671562 0.552557 0.175869
N1    N     N_R   0.523130 0.207800 0.519340 -0.138904
N2    N     N_R   0.476870 0.792180 0.480660 -0.145346
O1    O     O_R   0.506170 0.421690 0.658830 -0.635049
O2    O     O_3   0.340123 0.765110 0.338246 -0.691738
O3    O     O_3   0.936901 0.085270 0.439715 -0.715589
O4    O     O_R   0.491330 0.609320 0.646410 -0.634367
O5    O     O_R   0.690660 0.406170 0.506210 -0.657589
O6    O     O_R   0.675810 0.593790 0.493790 -0.545226
O7    O     O_R   0.508670 0.390680 0.353590 -0.617024
O8    O     O_R   0.493830 0.578310 0.341170 -0.514842
O9    O     O_R   0.324190 0.406210 0.506210 -0.608506
O10   O     O_R   0.309340 0.593830 0.493790 -0.595411
O11   O     O_3   0.859649 0.689614 0.582221 -0.731819
Zn1   Zn    Zn3+2 0.509910 0.374720 0.508290 0.972808
Zn2   Zn    Zn3+2 0.490090 0.625280 0.491710 1.067573

loop_
_geom_bond_atom_site_label_1
_geom_bond_atom_site_label_2
_ccdc_geom_bond_type
C4    O5    A    
C18   N1    A    
O9    Zn1   S    
C6    C32   A    
C13   C14   A    
C5    C9    A    
C22   O3    S    
C23   C27   A    
H6    O3    S    
C13   N2    A    
C7    Cl4   S    
C20   O9    A    
O6    Zn2   S    
C14   C15   A    
C1    C31   S    
C2    H7    S    
C10   C15   A    
C21   H12   S    
C8    C30   A    
C17   N1    A    
C9    H1    S    
C7    C30   A    
C21   C22   A    
C3    C31   A    
C11   O2    S    
C12   C23   A    
O7    Zn1   S    
C6    C7    A    
H4    O11   S    
C27   O11   S    
C25   Cl3   S    
C18   H10   S    
C28   C29   A    
C1    O4    A    
C17   H9    S    
O8    Zn2   S    
C10   Cl1   S    
C20   C29   S    
C8    H2    S    
C20   O10   A    
C5    C6    A    
H5    O2    S    
O1    Zn1   S    
C22   C24   A    
C3    H8    S    
C10   C11   A    
N1    Zn1   S    
C16   C30   S    
O4    Zn2   S    
C12   C21   A    
C24   H13   S    
C24   C25   A    
O5    Zn1   S    
C2    C32   A    
C18   C19   A    
C16   O8    A    
C32   H3    S    
C4    O6    A    
C27   C28   A    
C13   H11   S    
C4    C23   S    
C1    O1    A    
C26   C29   A    
C2    C31   A    
C11   N2    A    
O10   Zn2   S    
C25   C26   A    
C15   C17   A    
C28   H14   S    
C14   C19   A    
C16   O7    A    
N2    Zn2   S    
C12   C26   A    
C8    C9    A    
C3    C5    A    
C19   Cl2   S    
