data_mof_unit_6615.cif
_audit_creation_date              2012-12-10T16:46:48-0500
_audit_creation_method            fapswitch 2.2
_symmetry_space_group_name_H-M    P1
_symmetry_Int_Tables_number       1
_space_group_crystal_system       triclinic
_cell_length_a                    15.82399
_cell_length_b                    8.904101
_cell_length_c                    7.609626
_cell_angle_alpha                 103.875848
_cell_angle_beta                  93.261189
_cell_angle_gamma                 92.72015
_cell_volume                      1037.14274037

loop_
_atom_site_label
_atom_site_type_symbol
_atom_type_description
_atom_site_fract_x
_atom_site_fract_y
_atom_site_fract_z
_atom_type_partial_charge
C1    C     C_R   0.496497 0.200615 0.452992 0.777191
C2    C     C_3   0.952201 0.427705 0.638217 0.205459
C3    C     C_3   0.915934 0.502198 0.484074 -0.170529
C4    C     C_3   0.947878 0.681722 0.540587 0.467552
C5    C     C_3   0.048959 0.682654 0.527269 -0.177189
C6    C     C_1   0.823100 0.489160 0.478341 0.137320
C7    C     C_1   0.176819 0.520875 0.513742 0.134301
C8    C     C_1   0.252320 0.516210 0.514622 -0.065535
C9    C     C_2   0.491104 0.032442 0.424866 0.014589
C10   C     C_2   0.503764 0.967463 0.567475 -0.326295
C11   C     C_R   0.341148 0.504892 0.504529 0.784927
C12   C     C_R   0.501861 0.799619 0.546247 0.880645
C13   C     C_R   0.658810 0.495153 0.495429 0.815696
C14   C     C_3   0.051321 0.445626 0.651574 -0.519884
C15   C     C_3   0.050730 0.394482 0.314366 0.552588
C16   C     C_3   0.951214 0.406812 0.297287 -0.173799
C17   C     C_1   0.747691 0.488567 0.484288 -0.015249
C18   C     C_3   0.083916 0.513404 0.497232 -0.000730
Cu1   Cu    Cu3+1 0.509300 0.517380 0.684380 1.048816
Cu2   Cu    Cu3+1 0.490700 0.482620 0.315620 1.066810
H1    H     H_    0.074616 0.525029 0.781102 0.276184
H2    H     H_    0.932554 0.488419 0.771211 0.244188
H3    H     H_    0.517285 0.039698 0.704055 0.145982
H4    H     H_    0.424504 0.400268 0.958610 0.187645
H5    H     H_    0.081558 0.336584 0.654006 0.259027
H6    H     H_    0.922252 0.287387 0.269048 0.243216
H7    H     H_    0.078838 0.746031 0.662003 0.193263
N1    N     N_2   0.476670 0.456430 0.038530 -0.195254
N2    N     N_2   0.523330 0.543570 0.961470 0.047911
O1    O     O_R   0.506050 0.286130 0.619770 -0.608372
O2    O     O_R   0.490330 0.256780 0.308370 -0.596804
O3    O     O_R   0.387300 0.514690 0.655770 -0.621117
O4    O     O_R   0.371580 0.485340 0.344370 -0.554511
O5    O     O_R   0.509670 0.743220 0.691630 -0.606269
O6    O     O_R   0.493950 0.713870 0.380230 -0.500420
O7    O     O_R   0.628420 0.514660 0.655630 -0.504004
O8    O     O_R   0.612700 0.485310 0.344230 -0.515354
S1    S     S_3+6 0.906772 0.237455 0.634998 0.076704
O9    O     O_2   0.851153 0.170470 0.464831 -0.254231
O10   O     O_2   0.976504 0.132673 0.651788 -0.196247
O11   O     O_3   0.846764 0.250591 0.812818 -0.474457
H8    H     H_    0.800732 0.168041 0.772960 0.404857
S2    S     S_3+6 0.885138 0.797425 0.409858 0.098527
O12   O     O_2   0.938665 0.915823 0.348377 -0.223708
O13   O     O_2   0.833894 0.703249 0.245556 -0.256213
O14   O     O_3   0.812646 0.892291 0.540636 -0.396970
H9    H     H_    0.763812 0.816478 0.531722 0.355361
N3    N     N_3   0.470314 0.939955 0.243382 -0.508668
H10   H     H_    0.516212 0.966123 0.159909 0.235110
H11   H     H_    0.411799 0.971188 0.197065 0.221795
S3    S     S_3+6 0.623426 0.628398 0.050156 0.213786
O15   O     O_2   0.626586 0.729077 0.238866 -0.278427
O16   O     O_2   0.684603 0.503270 0.042354 -0.221835
O17   O     O_3   0.658529 0.745662 0.922680 -0.430498
H12   H     H_    0.630140 0.843472 0.963872 0.338448
S4    S     S_3+6 0.107459 0.415530 0.118632 -0.010298
O18   O     O_2   0.058054 0.315688 0.955683 -0.263726
O19   O     O_2   0.121167 0.577014 0.096236 -0.314113
O20   O     O_3   0.203069 0.342198 0.130999 -0.528180
H13   H     H_    0.226172 0.339107 0.011982 0.363971
N4    N     N_3   0.069656 0.234590 0.323533 -0.562753
H14   H     H_    0.026243 0.186393 0.393394 0.257804
H15   H     H_    0.061918 0.158518 0.194666 0.282654
N5    N     N_3   0.924206 0.456556 0.135179 -0.432225
H16   H     H_    0.949767 0.566764 0.138821 0.317107
H17   H     H_    0.858136 0.447106 0.116289 0.315920
N6    N     N_3   0.082948 0.767885 0.402527 -0.502976
H18   H     H_    0.085482 0.886818 0.462908 0.267196
H19   H     H_    0.043802 0.747249 0.284554 0.312340
S5    S     S_3+6 0.927236 0.772125 0.781744 0.033722
O21   O     O_2   0.924900 0.944488 0.819544 -0.146979
O22   O     O_2   0.842618 0.711555 0.825057 -0.218359
O23   O     O_3   0.001060 0.737539 0.932484 -0.579940
H20   H     H_    0.038912 0.833181 0.970622 0.373507

loop_
_geom_bond_atom_site_label_1
_geom_bond_atom_site_label_2
_ccdc_geom_bond_type
C2    H2    S    
C15   C18   S    
S3    O16   D    
S2    O12   D    
Cu1   O5    S    
S5    O21   D    
C4    S2    S    
C10   H3    S    
Cu2   N1    S    
O11   H8    S    
C14   C18   S    
C13   O8    A    
Cu1   Cu2   S    
S4    O20   S    
C13   C17   S    
C5    N6    S    
C3    C6    S    
N5    H16   S    
S3    O17   S    
S5    O23   S    
C4    S5    S    
C2    C3    S    
C15   N4    S    
O20   H13   S    
C5    H7    S    
C15   S4    S    
C12   O6    A    
S1    O10   D    
Cu2   O8    S    
S2    O13   D    
N4    H14   S    
C10   C12   S    
S1    O11   S    
C8    C11   S    
Cu2   O4    S    
C14   H1    S    
N3    H11   S    
N3    H10   S    
S4    O19   D    
C11   O3    A    
C1    O1    A    
C9    N3    S    
Cu1   O7    S    
C14   H5    S    
N2    S3    S    
S1    O9    D    
C2    C14   S    
S2    O14   S    
C3    C16   S    
C15   C16   S    
Cu1   O3    S    
C12   O5    A    
N6    H18   S    
Cu1   N2    S    
O23   H20   S    
H4    N1    S    
C1    O2    A    
C7    C8    T    
C7    C18   S    
C1    C9    S    
S4    O18   D    
C13   O7    A    
C9    C10   D    
C11   O4    A    
N4    H15   S    
C6    C17   T    
C2    S1    S    
O14   H9    S    
N1    N2    D    
S5    O22   D    
C5    C18   S    
C16   N5    S    
C16   H6    S    
O17   H12   S    
Cu1   O1    S    
Cu2   O6    S    
C3    C4    S    
S3    O15   D    
C4    C5    S    
N6    H19   S    
Cu2   O2    S    
N5    H17   S    
