data_mof_unit_28330.cif
_audit_creation_date              2012-12-11T14:34:00-0500
_audit_creation_method            fapswitch 2.2
_symmetry_space_group_name_H-M    P1
_symmetry_Int_Tables_number       1
_space_group_crystal_system       triclinic
_cell_length_a                    13.85877
_cell_length_b                    13.99487
_cell_length_c                    27.365069
_cell_angle_alpha                 89.912422
_cell_angle_beta                  89.902783
_cell_angle_gamma                 119.614957
_cell_volume                      4614.13714045

loop_
_atom_site_label
_atom_site_type_symbol
_atom_type_description
_atom_site_fract_x
_atom_site_fract_y
_atom_site_fract_z
_atom_type_partial_charge
C1    C     C_R   0.234084 0.786824 0.568909 0.540075
C2    C     C_R   0.212489 0.446683 0.568816 0.542556
C3    C     C_R   0.552763 0.765170 0.568963 0.539917
C4    C     C_3   0.683076 0.740816 0.787757 -0.014619
C5    C     C_3   0.247407 0.953959 0.783179 -0.015007
C6    C     C_3   0.038349 0.296169 0.783490 -0.016383
C7    C     C_3   0.654830 0.725324 0.732276 -0.209361
C8    C     C_3   0.266925 0.931906 0.729440 -0.209491
C9    C     C_3   0.058826 0.333234 0.728904 -0.208353
C10   C     C_1   0.714210 0.864573 0.859127 -0.049579
C11   C     C_1   0.113677 0.881208 0.852806 -0.047430
C12   C     C_1   0.111916 0.231529 0.852351 -0.049185
C13   C     C_1   0.631470 0.814292 0.658379 -0.072065
C14   C     C_1   0.178782 0.817343 0.657007 -0.072342
C15   C     C_1   0.177035 0.359692 0.656556 -0.073115
C16   C     C_1   0.602336 0.796205 0.616344 -0.012385
C17   C     C_1   0.200006 0.804834 0.615679 -0.012148
C18   C     C_1   0.192439 0.393996 0.615348 -0.011898
C19   C     C_R   0.065376 0.152046 0.096287 0.563985
C20   C     C_R   0.776123 0.883741 0.087521 0.550727
C21   C     C_R   0.116631 0.892823 0.087512 0.562298
C22   C     C_R   0.069388 0.160503 0.943300 0.532770
C23   C     C_R   0.780625 0.887548 0.950496 0.547823
C24   C     C_R   0.090765 0.929900 0.943457 0.528714
C25   C     C_R   0.631838 0.897206 0.361301 -0.133464
C26   C     C_R   0.101344 0.734080 0.361339 -0.132091
C27   C     C_R   0.256430 0.348416 0.365539 -0.133650
C28   C     C_R   0.656794 0.912136 0.311372 0.009683
C29   C     C_R   0.086066 0.744492 0.311477 0.016799
C30   C     C_R   0.233744 0.302181 0.318641 0.016417
C31   C     C_R   0.693773 0.934533 0.210178 0.004339
C32   C     C_R   0.063109 0.759956 0.210378 0.017607
C33   C     C_R   0.194550 0.225125 0.221785 0.015125
C34   C     C_R   0.233721 0.787886 0.431219 0.546487
C35   C     C_R   0.211485 0.444537 0.431649 0.549632
C36   C     C_R   0.554350 0.765924 0.431271 0.546931
C37   C     C_R   0.693805 0.019253 0.237216 -0.100222
C38   C     C_R   0.977488 0.675474 0.237578 -0.107808
C39   C     C_R   0.287850 0.237463 0.247212 -0.098394
C40   C     C_R   0.674264 0.007955 0.287451 -0.111215
C41   C     C_R   0.989445 0.666935 0.287733 -0.126225
C42   C     C_R   0.307740 0.276267 0.295178 -0.117212
C43   C     C_R   0.718232 0.948120 0.160372 -0.138659
C44   C     C_R   0.049721 0.771603 0.160612 -0.121079
C45   C     C_R   0.177014 0.190897 0.172986 -0.124521
C46   C     C_R   0.718350 0.862831 0.134074 -0.012714
C47   C     C_R   0.136649 0.855781 0.134146 -0.019569
C48   C     C_R   0.084604 0.181531 0.148016 -0.016795
C49   C     C_R   0.625471 0.720677 0.357978 -0.122432
C50   C     C_R   0.278651 0.903257 0.357856 -0.123240
C51   C     C_R   0.082677 0.351334 0.364200 -0.123870
C52   C     C_R   0.643181 0.731268 0.308034 -0.016605
C53   C     C_R   0.267795 0.910869 0.307969 -0.016821
C54   C     C_R   0.062476 0.311856 0.316898 -0.017473
C55   C     C_R   0.658601 0.826899 0.284379 0.058380
C56   C     C_R   0.171693 0.831272 0.284408 0.059701
C57   C     C_R   0.137913 0.287164 0.293713 0.059283
C58   C     C_R   0.639620 0.644488 0.281423 -0.134721
C59   C     C_R   0.354787 0.994329 0.281360 -0.139012
C60   C     C_R   0.973023 0.306949 0.291371 -0.138609
C61   C     C_R   0.651205 0.650715 0.230658 0.054309
C62   C     C_R   0.349011 0.000279 0.230564 0.040188
C63   C     C_R   0.958383 0.280361 0.241802 0.042387
C64   C     C_R   0.668631 0.747830 0.206475 -0.008999
C65   C     C_R   0.251713 0.920358 0.206438 -0.012769
C66   C     C_R   0.027579 0.244673 0.219445 -0.001658
C67   C     C_3   0.562806 0.840770 0.737832 -0.202449
C68   C     C_3   0.136264 0.729570 0.739222 -0.205265
C69   C     C_3   0.263352 0.403209 0.738548 -0.200976
C70   C     C_R   0.673735 0.836349 0.233675 0.041796
C71   C     C_R   0.162227 0.837336 0.233742 0.041771
C72   C     C_R   0.119262 0.251065 0.245127 0.041500
C73   C     C_R   0.683022 0.760421 0.156041 -0.105940
C74   C     C_R   0.239794 0.921291 0.155963 -0.116672
C75   C     C_R   0.008138 0.203036 0.172158 -0.096952
C76   C     C_R   0.611739 0.799319 0.384201 0.001759
C77   C     C_R   0.199819 0.811289 0.384131 0.000829
C78   C     C_R   0.182358 0.376346 0.387675 0.000998
C79   C     C_3   0.768582 0.931103 0.721879 -0.227330
C80   C     C_3   0.062100 0.854605 0.714319 -0.225516
C81   C     C_3   0.136711 0.206857 0.713752 -0.225264
C82   C     C_3   0.788990 0.945602 0.777882 -0.247875
C83   C     C_3   0.041430 0.866695 0.769070 -0.249689
C84   C     C_3   0.118225 0.172680 0.768271 -0.249952
C85   C     C_1   0.739035 0.874907 0.901713 0.008514
C86   C     C_1   0.102675 0.901915 0.894421 0.009407
C87   C     C_1   0.095197 0.199977 0.894083 0.005190
C88   C     C_3   0.654825 0.828205 0.711138 0.040069
C89   C     C_3   0.160786 0.832793 0.708613 0.039651
C90   C     C_3   0.159325 0.326104 0.708069 0.039550
C91   C     C_3   0.585161 0.855106 0.793541 -0.196747
C92   C     C_3   0.118766 0.746911 0.793908 -0.197619
C93   C     C_3   0.246315 0.366784 0.792873 -0.195687
C94   C     C_3   0.691700 0.850577 0.806234 0.034848
C95   C     C_3   0.130928 0.862278 0.801424 0.038259
C96   C     C_3   0.128527 0.267458 0.800916 0.035544
Cr1   Cr    Cr6+3 0.164410 0.584450 0.499910 1.022147
Cr2   Cr    Cr6+3 0.415550 0.579960 0.499910 1.022221
Cr3   Cr    Cr6+3 0.420040 0.835590 0.499910 1.021172
Cr4   Cr    Cr6+3 0.155170 0.075460 0.019960 1.064664
Cr5   Cr    Cr6+3 0.924540 0.079710 0.019960 1.044966
Cr6   Cr    Cr6+3 0.920290 0.844830 0.019960 1.050126
H1    H     H_    0.595648 0.936007 0.804899 0.133145
H2    H     H_    0.034442 0.682285 0.805591 0.130460
H3    H     H_    0.309812 0.343876 0.803397 0.131512
H4    H     H_    0.480232 0.767138 0.731232 0.139895
H5    H     H_    0.206319 0.712383 0.735869 0.145127
H6    H     H_    0.279879 0.489411 0.735920 0.152769
H7    H     H_    0.512472 0.791289 0.813930 0.195530
H8    H     H_    0.178284 0.736053 0.817023 0.189141
H9    H     H_    0.259620 0.436292 0.816665 0.189634
H10   H     H_    0.766760 0.748941 0.791936 0.097131
H11   H     H_    0.246260 0.032717 0.783323 0.093902
H12   H     H_    0.956477 0.219180 0.785527 0.095694
H13   H     H_    0.742842 0.026357 0.142785 0.122570
H14   H     H_    0.970516 0.719385 0.143194 0.158809
H15   H     H_    0.235187 0.172694 0.154405 0.168140
H16   H     H_    0.622113 0.958526 0.381496 0.120901
H17   H     H_    0.039789 0.663406 0.381576 0.121775
H18   H     H_    0.333080 0.366685 0.383724 0.120497
H19   H     H_    0.707735 0.093515 0.219133 0.193730
H20   H     H_    0.901856 0.615273 0.220002 0.174987
H21   H     H_    0.347047 0.219899 0.229667 0.183302
H22   H     H_    0.672651 0.073868 0.307500 0.140533
H23   H     H_    0.923251 0.599790 0.307918 0.122116
H24   H     H_    0.381795 0.287589 0.313617 0.125488
H25   H     H_    0.675630 0.693780 0.133615 0.188819
H26   H     H_    0.307485 0.978129 0.133155 0.191792
H27   H     H_    0.933254 0.187442 0.153369 0.166546
H28   H     H_    0.627050 0.570968 0.300347 0.133725
H29   H     H_    0.428174 0.055126 0.300405 0.138238
H30   H     H_    0.919799 0.332788 0.309261 0.141082
H31   H     H_    0.559311 0.913198 0.723112 0.127033
H32   H     H_    0.060694 0.656395 0.725041 0.128715
H33   H     H_    0.337662 0.402030 0.723801 0.127276
H34   H     H_    0.611871 0.645334 0.375393 0.136474
H35   H     H_    0.354436 0.964590 0.375164 0.136146
H36   H     H_    0.023953 0.371257 0.381053 0.136697
H37   H     H_    0.836306 0.922638 0.704138 0.113506
H38   H     H_    0.079990 0.930987 0.694319 0.115441
H39   H     H_    0.062058 0.149731 0.692318 0.114484
H40   H     H_    0.770866 0.005751 0.706370 0.123968
H41   H     H_    0.985726 0.785762 0.698172 0.123186
H42   H     H_    0.208117 0.199985 0.699237 0.123404
H43   H     H_    0.867566 0.946536 0.786774 0.097216
H44   H     H_    0.042281 0.945228 0.774739 0.096583
H45   H     H_    0.034291 0.100637 0.772784 0.097848
H46   H     H_    0.572436 0.651330 0.725717 0.145895
H47   H     H_    0.337526 0.915308 0.726682 0.143204
H48   H     H_    0.073946 0.418704 0.724550 0.147507
H49   H     H_    0.717353 0.711583 0.712636 0.098018
H50   H     H_    0.289756 0.006616 0.707009 0.099656
H51   H     H_    0.983120 0.279379 0.707311 0.098723
O1    O     O_R   0.137150 0.468200 0.553200 -0.510049
O2    O     O_R   0.531800 0.668950 0.553200 -0.509319
O3    O     O_R   0.331050 0.862850 0.553200 -0.508237
O4    O     O_R   0.179100 0.982980 0.967000 -0.480474
O5    O     O_R   0.017020 0.196120 0.967000 -0.456798
O6    O     O_R   0.803880 0.820900 0.967000 -0.494599
O7    O     O_R   0.173970 0.688730 0.549930 -0.499927
O8    O     O_R   0.311270 0.485240 0.549930 -0.499914
O9    O     O_R   0.514760 0.826030 0.549930 -0.498514
O10   O     O_R   0.140110 0.470540 0.446010 -0.524377
O11   O     O_R   0.529460 0.669570 0.446010 -0.523544
O12   O     O_R   0.330430 0.859890 0.446010 -0.522743
O13   O     O_R   0.176710 0.690910 0.450560 -0.501574
O14   O     O_R   0.309090 0.485800 0.450560 -0.501155
O15   O     O_R   0.514200 0.823290 0.450560 -0.500689
O16   O     O_3   0.333333 0.666667 0.499990 -0.266443
O17   O     O_R   0.176750 0.985260 0.074180 -0.516967
O18   O     O_R   0.014740 0.191490 0.074180 -0.475575
O19   O     O_R   0.808510 0.823250 0.074180 -0.501758
O20   O     O_R   0.146100 0.172630 0.068980 -0.464600
O21   O     O_R   0.827370 0.973470 0.068980 -0.520945
O22   O     O_R   0.026530 0.853900 0.068980 -0.486628
O23   O     O_3   1.000000 0.000000 0.020040 -0.306969
O24   O     O_R   0.148270 0.170520 0.969620 -0.483837
O25   O     O_R   0.829480 0.977750 0.969620 -0.522672
O26   O     O_R   0.022250 0.851730 0.969620 -0.477800
C97   C     C_2   0.647213 0.555099 0.205118 0.558773
O27   O     O_2   0.577543 0.461781 0.217107 -0.505101
O28   O     O_R   0.725619 0.570768 0.169208 -0.739635
H52   H     H_    0.714946 0.498952 0.155457 0.346810
C98   C     C_2   0.444891 0.093402 0.205238 0.549053
O29   O     O_2   0.538846 0.126447 0.220621 -0.502495
O30   O     O_R   0.428573 0.148054 0.166046 -0.735901
H53   H     H_    0.500576 0.211299 0.153178 0.360783
C99   C     C_2   0.879741 0.303838 0.214096 0.539488
O31   O     O_2   0.799781 0.300163 0.234948 -0.508640
O32   O     O_R   0.900835 0.337833 0.165275 -0.693809
H54   H     H_    0.842463 0.353432 0.151088 0.346368
H55   H     H_    0.798717 0.026124 0.789376 0.131169
H56   H     H_    0.957514 0.799880 0.779805 0.126147
H57   H     H_    0.179809 0.148534 0.779813 0.123192
C100  C     C_2   0.603567 0.640906 0.817281 0.564235
O33   O     O_2   0.639478 0.591666 0.841380 -0.496767
O34   O     O_R   0.489917 0.604772 0.817210 -0.728586
H58   H     H_    0.447500 0.540356 0.840165 0.338949
C101  C     C_2   0.342202 0.970327 0.816107 0.565662
O35   O     O_2   0.395182 0.057148 0.837990 -0.499195
O36   O     O_R   0.369062 0.887034 0.821804 -0.731511
H59   H     H_    0.429376 0.906291 0.847006 0.337621
C102  C     C_2   0.029900 0.380029 0.815506 0.567261
O37   O     O_2   0.947797 0.351402 0.841206 -0.494758
O38   O     O_R   0.114442 0.489815 0.815384 -0.725899
H60   H     H_    0.099005 0.536649 0.838845 0.340929

loop_
_geom_bond_atom_site_label_1
_geom_bond_atom_site_label_2
_ccdc_geom_bond_type
C4    C100  S    
C79   H37   S    
C102  O37   D    
C10   C85   T    
O32   H54   S    
C82   C94   S    
C2    C18   S    
C33   C45   A    
O36   H59   S    
C15   C18   T    
C48   C75   A    
C27   C78   A    
C92   H8    S    
C25   H16   S    
C82   H43   S    
C6    C9    S    
C53   C59   A    
C50   H35   S    
C39   H21   S    
C5    C101  S    
C54   C60   A    
O38   H60   S    
C25   C28   A    
C102  O38   S    
C59   H29   S    
C67   C88   S    
C33   C39   A    
C31   C43   A    
C60   C63   A    
C67   H31   S    
C19   O18   A    
Cr3   O15   S    
C37   C40   A    
C69   C93   S    
C22   O24   A    
C34   C77   S    
C91   C94   S    
C100  O34   S    
C53   C56   A    
C79   H40   S    
C28   C40   A    
C11   C86   T    
Cr6   O23   S    
Cr1   O13   S    
Cr3   O9    S    
C30   C57   A    
C36   O15   A    
Cr1   O16   S    
C98   O29   D    
C99   O32   S    
C84   C96   S    
C80   C89   S    
O28   H52   S    
C6    H12   S    
C23   O25   A    
Cr5   O25   S    
C36   C76   S    
C33   C72   A    
C43   H13   S    
Cr2   O16   S    
Cr4   O4    S    
C28   C55   A    
C31   C70   A    
C66   C72   A    
C84   H57   S    
C21   O22   A    
C23   O6    A    
Cr4   O23   S    
C35   O14   A    
C64   C73   A    
C26   C29   A    
C68   H5    S    
C32   C38   A    
C39   C42   A    
C34   O12   A    
Cr2   O14   S    
C3    O9    A    
C44   C47   A    
C93   H3    S    
C49   C52   A    
C58   C61   A    
C81   H39   S    
C4    H10   S    
C63   C66   A    
C9    H51   S    
C101  O35   D    
C69   H33   S    
C27   C30   A    
Cr6   O26   S    
C14   C17   T    
C60   H30   S    
Cr5   O21   S    
C82   H55   S    
C80   C83   S    
Cr4   O24   S    
C2    O8    A    
C3    O2    A    
C79   C88   S    
C5    C95   S    
C69   H6    S    
C97   O28   S    
C32   C71   A    
C81   H42   S    
Cr6   O19   S    
C40   H22   S    
C74   H26   S    
C9    H48   S    
C26   C77   A    
Cr4   O17   S    
C50   C53   A    
Cr1   O7    S    
C41   H23   S    
C26   H17   S    
C38   C41   A    
C92   H2    S    
C24   O4    A    
C22   O5    A    
C4    C7    S    
Cr6   O22   S    
C73   H25   S    
Cr6   O6    S    
C92   C95   S    
C35   O10   A    
C65   C74   A    
C31   C37   A    
C99   O31   D    
C83   H56   S    
C1    O3    A    
C64   C70   A    
C19   O20   A    
C14   C89   S    
C80   H41   S    
C79   C82   S    
C83   H44   S    
Cr1   O10   S    
C5    H11   S    
C7    C88   S    
C27   H18   S    
C56   C71   A    
C83   C95   S    
Cr3   O3    S    
C24   O26   A    
C67   C91   S    
C68   C89   S    
C32   C44   A    
C49   C76   A    
C22   C87   S    
C38   H20   S    
C52   C58   A    
C93   H9    S    
C7    H49   S    
C81   C90   S    
Cr3   O12   S    
Cr2   O8    S    
C20   O19   A    
C49   H34   S    
Cr5   O5    S    
C93   C96   S    
C6    C96   S    
C37   H19   S    
C69   C90   S    
C50   C77   A    
C81   C84   S    
C97   O27   D    
C36   O11   A    
C7    H46   S    
C45   C48   A    
C45   H15   S    
Cr2   O2    S    
C59   C62   A    
C62   C65   A    
C8    H50   S    
C19   C48   S    
C1    O7    A    
C30   C42   A    
C47   C74   A    
C91   H1    S    
Cr1   O1    S    
C9    C90   S    
C5    C8    S    
Cr2   O11   S    
C52   C55   A    
C67   H4    S    
Cr3   O16   S    
C29   C56   A    
C84   H45   S    
C35   C78   S    
C1    C17   S    
C51   C54   A    
C25   C76   A    
C68   H32   S    
C8    H47   S    
C51   C78   A    
C6    C102  S    
C12   C87   T    
C80   H38   S    
C61   C64   A    
C91   H7    S    
C4    C94   S    
C58   H28   S    
C66   C75   A    
C13   C88   S    
C68   C92   S    
C98   O30   S    
Cr5   O18   S    
C57   C72   A    
O34   H58   S    
C43   C46   A    
C20   O21   A    
C55   C70   A    
C42   H24   S    
C62   C98   S    
C100  O33   D    
C51   H36   S    
C75   H27   S    
C65   C71   A    
C11   C95   S    
C44   H14   S    
C61   C97   S    
C2    O1    A    
C63   C99   S    
C23   C85   S    
C13   C16   T    
Cr4   O20   S    
C101  O36   S    
C10   C94   S    
C29   C41   A    
C12   C96   S    
Cr5   O23   S    
C8    C89   S    
C21   C47   S    
O30   H53   S    
C34   O13   A    
C24   C86   S    
C46   C73   A    
C20   C46   S    
C3    C16   S    
C21   O17   A    
C15   C90   S    
C54   C57   A    
