data_mof_unit_13061.cif
_audit_creation_date              2012-12-10T19:46:26-0500
_audit_creation_method            fapswitch 2.2
_symmetry_space_group_name_H-M    P1
_symmetry_Int_Tables_number       1
_space_group_crystal_system       triclinic
_cell_length_a                    10.896667
_cell_length_b                    10.880456
_cell_length_c                    10.424239
_cell_angle_alpha                 91.161473
_cell_angle_beta                  90.404269
_cell_angle_gamma                 89.347191
_cell_volume                      1235.54221036

loop_
_atom_site_label
_atom_site_type_symbol
_atom_type_description
_atom_site_fract_x
_atom_site_fract_y
_atom_site_fract_z
_atom_type_partial_charge
C1    C     C_R   0.503156 0.261442 0.498628 0.804573
C2    C     C_R   0.496844 0.738558 0.501372 0.804574
C3    C     C_R   0.872015 0.503320 0.502665 -0.084548
C4    C     C_R   0.127985 0.496680 0.497335 -0.084548
C5    C     C_R   0.939643 0.533419 0.615103 -0.015338
C6    C     C_R   0.060357 0.466581 0.384897 -0.015338
C7    C     C_R   0.550016 0.152285 0.041023 -0.211624
C8    C     C_R   0.449984 0.847715 0.958976 -0.211623
C9    C     C_R   0.506008 0.109776 0.157336 -0.127232
C10   C     C_R   0.493992 0.890224 0.842664 -0.127232
C11   C     C_R   0.581299 0.110679 0.266754 0.128533
C12   C     C_R   0.418701 0.889321 0.733246 0.128533
C13   C     C_R   0.702973 0.149667 0.257781 -0.228321
C14   C     C_R   0.297027 0.850333 0.742219 -0.228321
C15   C     C_R   0.749658 0.186418 0.139593 0.054899
C16   C     C_R   0.250342 0.813582 0.860407 0.054899
C17   C     C_R   0.671695 0.189899 0.031648 -0.089536
C18   C     C_R   0.328305 0.810100 0.968352 -0.089536
C19   C     C_R   0.531694 0.930437 0.391371 -0.203412
C20   C     C_R   0.468306 0.069563 0.608629 -0.203412
C21   C     C_R   0.495852 0.872091 0.503241 -0.055252
C22   C     C_R   0.504148 0.127909 0.496759 -0.055252
C23   C     C_R   0.261479 0.497874 0.499123 0.791616
C24   C     C_R   0.738520 0.502125 0.500877 0.791615
C25   C     C_R   0.463100 0.942554 0.613207 0.041429
C26   C     C_R   0.536900 0.057446 0.386793 0.041429
C27   C     C_1   0.500019 0.499999 0.071935 0.080698
C28   C     C_1   0.499981 0.500001 0.928065 0.080699
C29   C     C_R   0.161553 0.474785 0.039662 -0.114116
C30   C     C_R   0.838447 0.525215 0.960338 -0.114116
C31   C     C_R   0.114187 0.509433 0.159277 -0.105510
C32   C     C_R   0.885813 0.490567 0.840723 -0.105510
C33   C     C_R   0.117672 0.427355 0.261649 0.014700
C34   C     C_R   0.882328 0.572645 0.738351 0.014700
C35   C     C_R   0.169763 0.308326 0.242803 0.044082
C36   C     C_R   0.830237 0.691674 0.757197 0.044082
C37   C     C_R   0.214276 0.274482 0.120442 -0.041828
C38   C     C_R   0.785724 0.725518 0.879558 -0.041828
C39   C     C_R   0.210893 0.357390 0.020145 -0.142298
C40   C     C_R   0.789107 0.642610 0.979855 -0.142298
C41   C     C_R   0.933135 0.471231 0.389019 -0.241504
C42   C     C_R   0.066865 0.528769 0.610981 -0.241504
Cu1   Cu    Cu3+1 0.500000 0.500000 0.625300 0.982451
Cu2   Cu    Cu3+1 0.500000 0.500000 0.374700 0.982451
H1    H     H_    0.245673 0.330103 0.926672 0.135040
H2    H     H_    0.754327 0.669898 0.073328 0.135040
H3    H     H_    0.762454 0.146185 0.341489 0.123754
H4    H     H_    0.237546 0.853815 0.658511 0.123754
H5    H     H_    0.558707 0.876857 0.307077 0.147593
H6    H     H_    0.441293 0.123143 0.692923 0.147593
H7    H     H_    0.158641 0.538141 0.961179 0.159673
H8    H     H_    0.841358 0.461859 0.038821 0.159673
H9    H     H_    0.074031 0.600298 0.172301 0.178820
H10   H     H_    0.925968 0.399701 0.827699 0.178820
H11   H     H_    0.249080 0.182815 0.100967 0.152088
H12   H     H_    0.750921 0.817185 0.899033 0.152088
H13   H     H_    0.881624 0.447125 0.302887 0.151994
H14   H     H_    0.118376 0.552875 0.697113 0.151994
H15   H     H_    0.705352 0.219337 0.939834 0.168739
H16   H     H_    0.294648 0.780663 0.060166 0.168739
H17   H     H_    0.490802 0.152772 0.957209 0.142809
H18   H     H_    0.509198 0.847228 0.042790 0.142808
H19   H     H_    0.414393 0.073366 0.162058 0.163937
H20   H     H_    0.585607 0.926634 0.837941 0.163937
N1    N     N_1   0.500010 0.499990 0.186410 -0.144700
N2    N     N_1   0.499990 0.500010 0.813590 -0.144700
O1    O     O_R   0.499990 0.319650 0.605810 -0.590101
O2    O     O_R   0.500010 0.680350 0.394190 -0.590102
O3    O     O_R   0.499990 0.319640 0.394190 -0.563891
O4    O     O_R   0.500010 0.680360 0.605810 -0.563891
O5    O     O_R   0.319640 0.500010 0.605810 -0.588389
O6    O     O_R   0.680360 0.499990 0.394190 -0.588389
O7    O     O_R   0.319650 0.500010 0.394190 -0.568367
O8    O     O_R   0.680350 0.499990 0.605810 -0.568367
C43   C     C_2   0.881067 0.214960 0.129746 0.319905
H21   H     H_    0.937422 0.217674 0.215696 0.075056
O9    O     O_2   0.928321 0.232801 0.026042 -0.562845
C44   C     C_2   0.118933 0.785040 0.870254 0.319905
H22   H     H_    0.062578 0.782326 0.784304 0.075056
O10   O     O_2   0.071679 0.767199 0.973958 -0.562845
C45   C     C_2   0.174070 0.217992 0.347807 0.297572
H23   H     H_    0.136494 0.241121 0.441338 0.079817
O11   O     O_2   0.219637 0.115913 0.331123 -0.560967
C46   C     C_2   0.825930 0.782008 0.652193 0.297572
H24   H     H_    0.863505 0.758879 0.558662 0.079817
O12   O     O_2   0.780363 0.884088 0.668877 -0.560967

loop_
_geom_bond_atom_site_label_1
_geom_bond_atom_site_label_2
_ccdc_geom_bond_type
C15   C43   S    
C5    C42   A    
C43   H21   S    
C42   H14   S    
C45   H23   S    
C3    C24   S    
C40   H2    S    
C38   C40   A    
C46   O12   D    
C2    O2    A    
C44   O10   D    
C20   C25   A    
C15   C17   A    
C19   C26   A    
C7    H17   S    
C20   H6    S    
C1    O1    A    
C7    C17   A    
C6    C41   A    
C31   C33   A    
C34   C36   A    
C39   H1    S    
Cu1   O8    S    
C1    C22   S    
Cu2   N1    S    
C23   O7    A    
C32   H10   S    
C45   O11   D    
C35   C45   S    
C23   O5    A    
C46   H24   S    
C4    C6    A    
C13   H3    S    
C4    C23   S    
C44   H22   S    
C14   H4    S    
C11   C26   S    
C8    C18   A    
C32   C34   A    
C28   N2    T    
Cu1   Cu2   S    
Cu1   O1    S    
C27   N1    T    
C43   O9    D    
C19   H5    S    
C5    C34   S    
C29   C39   A    
C2    C21   S    
C30   C40   A    
Cu2   O3    S    
C16   C18   A    
C31   H9    S    
C9    C11   A    
C10   C12   A    
C17   H15   S    
C18   H16   S    
C12   C14   A    
Cu1   O4    S    
C13   C15   A    
C14   C16   A    
Cu2   O2    S    
C24   O6    A    
C29   H7    S    
C35   C37   A    
C7    C9    A    
C21   C25   A    
C3    C41   A    
Cu1   O5    S    
C19   C21   A    
C9    H19   S    
C8    C10   A    
C10   H20   S    
C20   C22   A    
C3    C5    A    
C6    C33   S    
C12   C25   S    
C36   C38   A    
C41   H13   S    
C37   C39   A    
C30   C32   A    
C11   C13   A    
C24   O8    A    
C4    C42   A    
C36   C46   S    
Cu1   N2    S    
C33   C35   A    
Cu2   O6    S    
C16   C44   S    
Cu2   O7    S    
C1    O3    A    
C37   H11   S    
C38   H12   S    
C29   C31   A    
C22   C26   A    
C27   C28   S    
C2    O4    A    
C8    H18   S    
C30   H8    S    
