data_mof_unit_59502.cif
_audit_creation_date              2012-10-26T19:52:24-0400
_audit_creation_method            fapswitch 2.2
_symmetry_space_group_name_H-M    P1
_symmetry_Int_Tables_number       1
_space_group_crystal_system       triclinic
_cell_length_a                    9.533886
_cell_length_b                    10.870411
_cell_length_c                    13.542159
_cell_angle_alpha                 90.417542
_cell_angle_beta                  73.800777
_cell_angle_gamma                 89.649978
_cell_volume                      1347.66660985

loop_
_atom_site_label
_atom_site_type_symbol
_atom_type_description
_atom_site_fract_x
_atom_site_fract_y
_atom_site_fract_z
_atom_type_partial_charge
C1    C     C_R   0.499453 0.737477 0.500806 0.556514
C2    C     C_R   0.387916 0.455556 0.809398 -0.062751
C3    C     C_R   0.380962 0.937654 0.490807 0.036181
C4    C     C_R   0.424733 0.486636 0.698659 0.530619
C5    C     C_R   0.500402 0.870532 0.501596 -0.061830
C6    C     C_R   0.618673 0.932238 0.520604 -0.141336
C7    C     C_R   0.616088 0.059911 0.533488 -0.025813
C8    C     C_R   0.497719 0.128490 0.515074 -0.035236
C9    C     C_R   0.379677 0.065197 0.496733 0.018492
C10   C     C_3   0.225052 0.065557 0.564464 0.290806
C11   C     C_3   0.227012 0.927050 0.555444 0.317774
C12   C     C_R   0.449554 0.450097 0.973842 -0.018306
C13   C     C_R   0.961291 0.471763 0.412414 0.161081
C14   C     C_R   0.893218 0.546166 0.581136 -0.001224
C15   C     C_R   0.041883 0.544905 0.581674 0.029738
C16   C     C_R   0.498120 0.262477 0.507286 0.551209
C17   C     C_R   0.108409 0.471459 0.412554 0.171136
C18   C     C_3   0.138821 0.354971 0.351469 -0.255564
C19   C     C_3   0.980195 0.356551 0.349605 -0.258299
C20   C     C_R   0.577089 0.502689 0.300797 0.555758
C21   C     C_R   0.806786 0.516591 0.026620 -0.070728
C22   C     C_R   0.620714 0.503989 0.188526 -0.002331
C23   C     C_R   0.495665 0.451020 0.864912 0.010943
C24   C     C_R   0.242467 0.428484 0.861333 -0.114871
C25   C     C_R   0.202910 0.403884 0.966035 0.355085
C26   C     C_R   0.302552 0.420689 0.022673 -0.083419
C27   C     C_3   0.729736 0.113690 0.580685 -0.232982
C28   C     C_3   0.659813 0.153559 0.691905 -0.427902
C29   C     C_R   0.554029 0.473389 0.029043 0.033786
C30   C     C_R   0.703411 0.487151 0.974749 0.058756
C31   C     C_R   0.749218 0.466456 0.869611 -0.136830
C32   C     C_R   0.647685 0.443319 0.816513 -0.123232
C33   C     C_R   0.514810 0.486068 0.136284 -0.128700
C34   C     C_R   0.766542 0.522110 0.133243 -0.094788
Cu1   Cu    Cu3+1 0.359330 0.500020 0.500010 0.999185
Cu2   Cu    Cu3+1 0.640670 0.499980 0.499990 0.944437
F1    F     F_    0.128428 0.119231 0.518003 -0.621842
F2    F     F_    0.137135 0.882980 0.498803 -0.574539
F3    F     F_    0.067257 0.362650 0.013497 -0.662139
H1    H     H_    0.849257 0.540550 0.172217 0.148077
H2    H     H_    0.916530 0.278302 0.390457 0.167422
H3    H     H_    0.919117 0.533758 0.984378 0.160659
H4    H     H_    0.402389 0.483287 0.180647 0.117059
H5    H     H_    0.160043 0.422536 0.820329 0.137724
H6    H     H_    0.263113 0.403971 0.103749 0.119562
H7    H     H_    0.693424 0.412309 0.738768 0.149383
H8    H     H_    0.708728 0.879723 0.533687 0.168655
H9    H     H_    0.576154 0.226274 0.696133 0.156227
H10   H     H_    0.607097 0.073735 0.738060 0.153256
H11   H     H_    0.745200 0.189606 0.725571 0.155036
H12   H     H_    0.213696 0.100791 0.643661 0.062291
H13   H     H_    0.815524 0.044244 0.581584 0.200068
H14   H     H_    0.790391 0.190116 0.535765 0.197417
H15   H     H_    0.215018 0.878481 0.629306 0.052724
H16   H     H_    0.811906 0.584223 0.646572 0.119001
H17   H     H_    0.070609 0.579665 0.648385 0.112948
H18   H     H_    0.216272 0.367513 0.274781 0.112904
H19   H     H_    0.167238 0.277777 0.395087 0.238854
H20   H     H_    0.967443 0.373152 0.271651 0.161839
H21   H     H_    0.864464 0.465504 0.828351 0.101144
N1    N     N_R   0.852320 0.499070 0.499340 -0.239154
N2    N     N_R   0.148230 0.499110 0.499340 -0.220319
O1    O     O_R   0.381190 0.680360 0.500000 -0.464985
O2    O     O_R   0.618780 0.680320 0.499990 -0.498965
O3    O     O_R   0.323230 0.500000 0.650990 -0.522709
O4    O     O_R   0.560820 0.499960 0.650980 -0.527654
O5    O     O_R   0.381220 0.319680 0.500010 -0.479177
O6    O     O_R   0.618810 0.319640 0.500000 -0.517771
O7    O     O_R   0.439180 0.500040 0.349020 -0.505073
O8    O     O_R   0.676770 0.500000 0.349010 -0.503278

loop_
_geom_bond_atom_site_label_1
_geom_bond_atom_site_label_2
_ccdc_geom_bond_type
C31   H21   S    
C11   F2    S    
C2    C4    S    
C24   C25   A    
C27   H14   S    
C6    C7    A    
C3    C9    A    
Cu1   O5    S    
C12   C29   A    
C21   C30   A    
C18   H18   S    
C31   C32   A    
C13   C17   A    
C30   C31   A    
C15   H17   S    
Cu2   O6    S    
C17   C18   S    
C13   N1    A    
C7    C8    A    
C8    C16   S    
C16   O5    A    
Cu2   O2    S    
C25   F3    S    
C22   C34   A    
C4    O4    A    
C12   C23   A    
C20   O8    A    
C29   C30   A    
C11   H15   S    
C32   H7    S    
Cu1   Cu2   S    
C10   F1    S    
C16   O6    A    
C10   H12   S    
C1    O1    A    
C6    H8    S    
C15   N2    A    
Cu2   O8    S    
C14   H16   S    
Cu1   N2    S    
Cu2   O4    S    
C2    C24   A    
C5    C6    A    
C24   H5    S    
C1    C5    S    
C20   O7    A    
C3    C11   S    
C10   C11   S    
C13   C19   S    
Cu2   N1    S    
C33   H4    S    
C17   N2    A    
C29   C33   A    
C27   C28   S    
C7    C27   S    
C27   H13   S    
Cu1   O7    S    
C18   C19   S    
C9    C10   S    
C12   C26   A    
C19   H2    S    
C2    C23   A    
C22   C33   A    
Cu1   O3    S    
C4    O3    A    
C28   H9    S    
Cu1   O1    S    
C21   C34   A    
C26   H6    S    
C19   H20   S    
C25   C26   A    
C14   C15   A    
C14   N1    A    
C28   H11   S    
C1    O2    A    
C18   H19   S    
C34   H1    S    
C21   H3    S    
C23   C32   A    
C20   C22   S    
C8    C9    A    
C3    C5    A    
C28   H10   S    
