data_mof_unit_11773.cif
_audit_creation_date              2012-12-10T16:55:04-0500
_audit_creation_method            fapswitch 2.2
_symmetry_space_group_name_H-M    P1
_symmetry_Int_Tables_number       1
_space_group_crystal_system       triclinic
_cell_length_a                    9.668287
_cell_length_b                    10.926707
_cell_length_c                    15.64883
_cell_angle_alpha                 89.780228
_cell_angle_beta                  73.252937
_cell_angle_gamma                 89.653359
_cell_volume                      1583.03153766

loop_
_atom_site_label
_atom_site_type_symbol
_atom_type_description
_atom_site_fract_x
_atom_site_fract_y
_atom_site_fract_z
_atom_type_partial_charge
C1    C     C_R   0.998779 0.265634 0.503671 0.860306
C2    C     C_R   0.661624 0.442393 0.899665 0.087325
C3    C     C_R   0.757798 0.391255 0.943872 0.169915
C4    C     C_R   0.511219 0.449198 0.944721 0.065544
C5    C     C_R   0.464150 0.422091 0.036975 0.064194
C6    C     C_R   0.558346 0.357801 0.075035 -0.204287
C7    C     C_R   0.703827 0.344736 0.029964 -0.239495
C8    C     C_R   0.405556 0.477641 0.901139 -0.232206
C9    C     C_R   0.259615 0.482904 0.948621 -0.234715
C10   C     C_R   0.216400 0.472607 0.041576 0.151209
C11   C     C_R   0.321001 0.452788 0.087393 0.039795
C12   C     C_R   0.915993 0.496871 0.671809 0.794915
C13   C     C_R   0.070921 0.486569 0.089383 -0.213353
C14   C     C_R   0.029562 0.488393 0.182167 -0.217063
C15   C     C_R   0.282465 0.476221 0.180628 -0.086964
C16   C     C_2   0.883796 0.935728 0.525273 -0.034443
C17   C     C_2   0.002781 0.866727 0.485293 -0.197780
C18   C     C_2   0.882551 0.068378 0.512597 -0.212100
C19   C     C_2   0.996016 0.134920 0.516108 -0.314699
C20   C     C_2   0.402913 0.418435 0.542068 -0.083106
C21   C     C_2   0.558893 0.418182 0.541838 -0.079440
C22   C     C_R   0.000211 0.734817 0.498207 0.817613
C23   C     C_R   0.084794 0.498409 0.327593 0.801270
C24   C     C_R   0.867109 0.474074 0.768078 -0.047194
C25   C     C_R   0.133622 0.487910 0.228983 -0.095781
C26   C     C_R   0.906215 0.383267 0.900316 -0.221232
C27   C     C_R   0.960755 0.424657 0.812847 -0.205021
C28   C     C_R   0.719612 0.485704 0.812352 -0.260773
Cu1   Cu    Cu3+1 0.138640 0.500020 0.499980 0.940644
Cu2   Cu    Cu3+1 0.861360 0.499980 0.500020 0.937695
H1    H     H_    0.774127 0.298223 0.062610 0.142713
H2    H     H_    0.988975 0.497238 0.055043 0.148186
H3    H     H_    0.785088 0.111477 0.505102 0.165371
H4    H     H_    0.088736 0.092612 0.530549 0.157457
H5    H     H_    0.334891 0.345600 0.578363 0.151239
H6    H     H_    0.408249 0.569596 0.467925 0.206612
H7    H     H_    0.594198 0.344819 0.577625 0.154927
H8    H     H_    0.620054 0.570612 0.469164 0.194414
H9    H     H_    0.915766 0.496807 0.217106 0.168490
H10   H     H_    0.181073 0.501074 0.912789 0.146146
H11   H     H_    0.979557 0.342339 0.933283 0.135928
H12   H     H_    0.074823 0.413299 0.779172 0.150511
H13   H     H_    0.651574 0.528351 0.776995 0.153869
H14   H     H_    0.518453 0.312293 0.138412 0.140027
H15   H     H_    0.431490 0.489797 0.829854 0.141983
N1    N     N_2   0.346430 0.498660 0.500980 -0.280339
N2    N     N_2   0.652550 0.498630 0.501000 -0.285459
O1    O     O_R   0.117050 0.321960 0.499980 -0.583595
O2    O     O_R   0.882890 0.321920 0.500020 -0.579775
O3    O     O_R   0.052910 0.500040 0.629810 -0.583436
O4    O     O_R   0.818750 0.499990 0.629840 -0.568556
O5    O     O_R   0.117110 0.678080 0.499980 -0.583290
O6    O     O_R   0.882950 0.678040 0.500020 -0.566145
O7    O     O_R   0.181250 0.500010 0.370160 -0.563322
O8    O     O_R   0.947090 0.499960 0.370190 -0.589272
C29   C     C_R   0.752163 0.883175 0.588263 0.165547
C30   C     C_R   0.755271 0.841539 0.672715 -0.132089
C31   C     C_R   0.632416 0.788834 0.731013 -0.141001
C32   C     C_R   0.506474 0.776236 0.705066 -0.101805
C33   C     C_R   0.502589 0.817840 0.621179 -0.140724
C34   C     C_R   0.624706 0.871982 0.563032 -0.144672
H16   H     H_    0.852850 0.849528 0.693053 0.107411
H17   H     H_    0.635041 0.757321 0.796177 0.127770
H18   H     H_    0.411905 0.734357 0.749992 0.121830
H19   H     H_    0.405062 0.807777 0.601198 0.120256
H20   H     H_    0.620916 0.903099 0.497945 0.103284
C35   C     C_R   0.129648 0.915523 0.414924 0.119994
C36   C     C_R   0.268910 0.909398 0.425809 -0.128393
C37   C     C_R   0.387629 0.954300 0.359351 -0.144054
C38   C     C_R   0.368491 0.005328 0.281502 -0.124584
C39   C     C_R   0.230637 0.011147 0.269840 -0.146489
C40   C     C_R   0.111624 0.966037 0.336026 -0.127966
H21   H     H_    0.285242 0.871355 0.486126 0.122762
H22   H     H_    0.494484 0.949655 0.368250 0.114212
H23   H     H_    0.460486 0.040220 0.230175 0.116231
H24   H     H_    0.216019 0.050465 0.209425 0.128650
H25   H     H_    0.005491 0.970416 0.325919 0.123355
C41   C     C_R   0.396585 0.523457 0.218836 0.138570
C42   C     C_R   0.459681 0.449381 0.271385 -0.081375
C43   C     C_R   0.575970 0.492661 0.298516 -0.172954
C44   C     C_R   0.625519 0.612054 0.277568 -0.160251
C45   C     C_R   0.560606 0.687581 0.227851 -0.123215
C46   C     C_R   0.447389 0.643309 0.197972 -0.116837
H26   H     H_    0.420989 0.357249 0.289289 0.119581
H27   H     H_    0.627165 0.433579 0.336126 0.148044
H28   H     H_    0.714282 0.646011 0.299771 0.134051
H29   H     H_    0.599157 0.779989 0.211537 0.124893
H30   H     H_    0.399980 0.701965 0.157885 0.124509

loop_
_geom_bond_atom_site_label_1
_geom_bond_atom_site_label_2
_ccdc_geom_bond_type
Cu2   O4    S    
C13   H2    S    
C24   C27   A    
C4    C8    A    
C44   C45   A    
C30   H16   S    
C26   C27   A    
C43   H27   S    
C5    C11   A    
C3    C7    A    
C42   H26   S    
C15   C25   A    
C15   C41   S    
Cu1   O7    S    
C45   H29   S    
C29   C30   A    
C18   C19   D    
C8    H15   S    
C14   H9    S    
C36   C37   A    
C20   H5    S    
C11   C15   A    
C34   H20   S    
C8    C9    A    
H6    N1    S    
C38   C39   A    
Cu1   Cu2   S    
C9    C10   A    
C44   H28   S    
C46   H30   S    
C32   C33   A    
C6    H14   S    
C13   C14   A    
C41   C46   A    
C22   O6    A    
Cu1   O3    S    
Cu2   O6    S    
C17   C35   S    
C7    H1    S    
Cu1   O1    S    
C35   C36   A    
Cu2   N2    S    
C35   C40   A    
C41   C42   A    
C16   C17   D    
C36   H21   S    
C1    C19   S    
C10   C13   A    
C9    H10   S    
C33   C34   A    
C2    C4    A    
C16   C29   S    
C40   H25   S    
C32   H18   S    
C37   H22   S    
H8    N2    S    
Cu2   O2    S    
C33   H19   S    
C39   H24   S    
C12   O4    A    
C23   O7    A    
C22   O5    A    
C31   H17   S    
C3    C26   A    
C24   C28   A    
C43   C44   A    
C19   H4    S    
C12   O3    A    
C1    O1    A    
C23   O8    A    
C6    C7    A    
Cu2   O8    S    
C12   C24   S    
C28   H13   S    
C17   C22   S    
Cu1   N1    S    
C2    C3    A    
C31   C32   A    
C39   C40   A    
C27   H12   S    
C30   C31   A    
C5    C6    A    
C23   C25   S    
C14   C25   A    
C37   C38   A    
C18   H3    S    
C10   C11   A    
C42   C43   A    
C4    C5    A    
C21   H7    S    
C20   C21   S    
C16   C18   S    
C45   C46   A    
C38   H23   S    
C29   C34   A    
C2    C28   A    
C1    O2    A    
C20   N1    D    
C26   H11   S    
C21   N2    D    
Cu1   O5    S    
