data_mof_unit_61625.cif
_audit_creation_date              2012-12-10T19:26:40-0500
_audit_creation_method            fapswitch 2.2
_symmetry_space_group_name_H-M    P1
_symmetry_Int_Tables_number       1
_space_group_crystal_system       triclinic
_cell_length_a                    17.872787
_cell_length_b                    16.502585
_cell_length_c                    11.717558
_cell_angle_alpha                 89.999979
_cell_angle_beta                  92.190166
_cell_angle_gamma                 90.000153
_cell_volume                      3453.53608101

loop_
_atom_site_label
_atom_site_type_symbol
_atom_type_description
_atom_site_fract_x
_atom_site_fract_y
_atom_site_fract_z
_atom_type_partial_charge
C1    C     C_R   0.355187 0.500000 0.505533 0.923664
C2    C     C_R   0.644813 0.500000 0.494467 0.923665
C3    C     C_R   0.768916 0.574211 0.480826 0.314388
C4    C     C_R   0.231084 0.425789 0.519173 0.314388
C5    C     C_R   0.231085 0.574211 0.519185 0.314385
C6    C     C_R   0.768915 0.425789 0.480815 0.314385
C7    C     C_R   0.728168 0.500000 0.485400 -0.355418
C8    C     C_R   0.271832 0.500000 0.514600 -0.355418
C9    C     C_R   0.886205 0.499999 0.490424 -0.235149
C10   C     C_R   0.113795 0.500001 0.509576 -0.235149
C11   C     C_1   0.966451 0.500000 0.497157 0.229904
C12   C     C_1   0.033549 0.500000 0.502843 0.229904
C13   C     C_R   0.499836 0.500000 0.283641 0.843945
C14   C     C_R   0.500163 0.500000 0.716359 0.843946
C15   C     C_R   0.545646 0.829852 0.577241 -0.235791
C16   C     C_R   0.454354 0.170148 0.422759 -0.235791
C17   C     C_R   0.454354 0.829852 0.422759 -0.235792
C18   C     C_R   0.545646 0.170148 0.577241 -0.235792
C19   C     C_R   0.545165 0.744289 0.576554 0.550748
C20   C     C_R   0.454835 0.255711 0.423446 0.550747
C21   C     C_R   0.454834 0.744289 0.423446 0.550744
C22   C     C_R   0.545166 0.255711 0.576554 0.550744
C23   C     C_1   0.500000 0.962880 0.500000 0.077168
C24   C     C_1   0.500000 0.037120 0.500000 0.077168
C25   C     C_1   0.499874 0.500000 0.162136 -0.072998
C26   C     C_1   0.500126 0.500000 0.837864 -0.072998
C27   C     C_1   0.499946 0.500000 0.059805 0.066847
C28   C     C_1   0.500054 0.500000 0.940195 0.066847
C29   C     C_R   0.500000 0.873695 0.500000 -0.008333
C30   C     C_R   0.500000 0.126305 0.500000 -0.008333
C31   C     C_R   0.847457 0.573588 0.485621 0.333974
C32   C     C_R   0.152543 0.426411 0.514378 0.333974
C33   C     C_R   0.152544 0.573590 0.514392 0.333978
C34   C     C_R   0.847456 0.426410 0.485608 0.333978
Cu1   Cu    Cu3+1 0.500000 0.580420 0.500000 1.111269
Cu2   Cu    Cu3+1 0.500000 0.419580 0.500000 1.111269
N1    N     N_R   0.500000 0.701220 0.500000 -0.249587
N2    N     N_R   0.500000 0.298780 0.500000 -0.249587
O1    O     O_R   0.391260 0.567930 0.500000 -0.520139
O2    O     O_R   0.608740 0.432070 0.500000 -0.520139
O3    O     O_R   0.608740 0.567930 0.500000 -0.520142
O4    O     O_R   0.391260 0.432070 0.500000 -0.520142
O5    O     O_R   0.500010 0.567910 0.337200 -0.549431
O6    O     O_R   0.499990 0.432090 0.662800 -0.549431
O7    O     O_R   0.499990 0.567910 0.662800 -0.549428
O8    O     O_R   0.500010 0.432090 0.337200 -0.549428
H1    H     H_    0.581765 0.861930 0.638346 0.202904
H2    H     H_    0.418235 0.138070 0.361654 0.202904
H3    H     H_    0.418235 0.861929 0.361654 0.202904
H4    H     H_    0.581765 0.138070 0.638346 0.202904
Cl1   Cl    Cl    0.604889 0.696149 0.677946 -0.483245
Cl2   Cl    Cl    0.395111 0.303851 0.322054 -0.483245
Cl3   Cl    Cl    0.395109 0.696148 0.322057 -0.483250
Cl4   Cl    Cl    0.604891 0.303852 0.677943 -0.483250
Cl5   Cl    Cl    0.897986 0.665973 0.485067 -0.359677
Cl6   Cl    Cl    0.102014 0.334027 0.514933 -0.359677
Cl7   Cl    Cl    0.102016 0.665975 0.514966 -0.359672
Cl8   Cl    Cl    0.897984 0.334025 0.485034 -0.359672
Cl9   Cl    Cl    0.724950 0.669694 0.461087 -0.419384
Cl10  Cl    Cl    0.275050 0.330306 0.538913 -0.419384
Cl11  Cl    Cl    0.275053 0.669692 0.538935 -0.419389
Cl12  Cl    Cl    0.724947 0.330308 0.461065 -0.419389

loop_
_geom_bond_atom_site_label_1
_geom_bond_atom_site_label_2
_ccdc_geom_bond_type
C20   N2    A    
C5    C8    A    
Cu1   O1    S    
C11   C12   T    
Cu2   O8    S    
C6    C7    A    
C18   C30   A    
C2    O2    A    
C25   C27   T    
C1    C8    S    
C17   C29   A    
Cu2   O4    S    
C2    C7    S    
C15   H1    S    
C16   C20   A    
C13   C25   S    
C16   H2    S    
Cu2   N2    S    
C5    Cl11  S    
C20   Cl2   S    
C18   C22   A    
C14   C26   S    
C3    C31   A    
C21   Cl3   S    
C9    C11   S    
C6    Cl12  S    
C4    C32   A    
C10   C12   S    
C19   Cl1   S    
C23   C29   S    
C27   C28   S    
Cu1   N1    S    
C9    C34   A    
C15   C29   A    
C14   O7    A    
C3    C7    A    
C22   Cl4   S    
C13   O8    A    
Cu1   O3    S    
C24   C30   S    
Cu2   O6    S    
C19   N1    A    
C9    C31   A    
C2    O3    A    
C16   C30   A    
C22   N2    A    
C5    C33   A    
C10   C32   A    
C1    O4    A    
C13   O5    A    
Cu1   O5    S    
C18   H4    S    
C21   N1    A    
C14   O6    A    
C10   C33   A    
C17   H3    S    
C4    C8    A    
C34   Cl8   S    
C1    O1    A    
Cu2   O2    S    
C33   Cl7   S    
C23   C24   T    
C31   Cl5   S    
C15   C19   A    
C26   C28   T    
C32   Cl6   S    
C17   C21   A    
C6    C34   A    
C3    Cl9   S    
C4    Cl10  S    
Cu1   Cu2   S    
Cu1   O7    S    
