data_mof_unit_20587.cif
_audit_creation_date              2012-12-10T16:42:58-0500
_audit_creation_method            fapswitch 2.2
_symmetry_space_group_name_H-M    P1
_symmetry_Int_Tables_number       1
_space_group_crystal_system       triclinic
_cell_length_a                    7.527495
_cell_length_b                    8.798019
_cell_length_c                    12.932586
_cell_angle_alpha                 85.073248
_cell_angle_beta                  79.153127
_cell_angle_gamma                 102.824836
_cell_volume                      812.879954645

loop_
_atom_site_label
_atom_site_type_symbol
_atom_type_description
_atom_site_fract_x
_atom_site_fract_y
_atom_site_fract_z
_atom_type_partial_charge
C1    C     C_R   0.453610 0.200233 0.504200 0.853949
C2    C     C_R   0.546836 0.799841 0.496388 0.855310
C3    C     C_R   0.465418 0.491978 0.701383 0.881488
C4    C     C_R   0.533941 0.508280 0.298868 0.887956
C5    C     C_R   0.549745 0.533079 0.184863 -0.212346
C6    C     C_R   0.443933 0.478267 0.816204 -0.215775
C7    C     C_R   0.333277 0.316331 0.987414 0.342217
C8    C     C_R   0.571227 0.717175 0.029555 0.345636
C9    C     C_R   0.340817 0.336659 0.878398 0.168615
C10   C     C_R   0.595463 0.687300 0.133254 0.163972
C11   C     C_R   0.524701 0.606663 0.863214 0.239931
C12   C     C_R   0.475306 0.406616 0.135413 0.243106
C13   C     C_R   0.512443 0.588925 0.974370 -0.116461
C14   C     C_R   0.440327 0.435022 0.032977 -0.116305
C15   C     C_2   0.429067 0.032683 0.517651 -0.040321
C16   C     C_2   0.573755 0.967842 0.484118 -0.015985
Cu1   Cu    Cu3+1 0.686350 0.517570 0.488220 1.115218
Cu2   Cu    Cu3+1 0.313650 0.482430 0.511780 1.111414
N1    N     N_2   0.033570 0.455950 0.529530 -0.003083
N2    N     N_2   0.966430 0.544050 0.470470 -0.004608
O1    O     O_R   0.621060 0.286250 0.492350 -0.585129
O2    O     O_R   0.378940 0.713750 0.507650 -0.582993
O3    O     O_R   0.306310 0.256580 0.512240 -0.549404
O4    O     O_R   0.693690 0.743420 0.487760 -0.546068
O5    O     O_R   0.631800 0.512400 0.642670 -0.563418
O6    O     O_R   0.368200 0.487600 0.357330 -0.576301
O7    O     O_R   0.317060 0.482730 0.662570 -0.556710
O8    O     O_R   0.682940 0.517270 0.337430 -0.551920
Br1   Br    Br    0.463760 0.198609 0.203523 -0.339776
Br2   Br    Br    0.674003 0.792854 0.768908 -0.361896
Br3   Br    Br    0.687306 0.858640 0.206792 -0.323513
Br4   Br    Br    0.220304 0.164604 0.813688 -0.321356
Br5   Br    Br    0.140993 0.144283 0.072778 -0.233194
Br6   Br    Br    0.567052 0.931120 0.981958 -0.240118
I1    I     I_    0.871204 0.289901 0.655524 -0.004289
I2    I     I_    0.127696 0.711947 0.345313 -0.016444
I3    I     I_    0.157689 0.908890 0.608884 -0.071512
I4    I     I_    0.851501 0.091850 0.398446 -0.059887

loop_
_geom_bond_atom_site_label_1
_geom_bond_atom_site_label_2
_ccdc_geom_bond_type
C2    O2    A    
C4    O6    A    
C1    O1    A    
C8    C13   A    
C1    C15   S    
C12   Br1   S    
C2    C16   S    
N1    N2    D    
Cu2   O6    S    
C3    C6    S    
Cu1   O5    S    
C6    C9    A    
C3    O7    A    
Cu1   Cu2   S    
C5    C10   A    
N1    I1    S    
C13   C14   A    
C11   C13   A    
C4    O8    A    
C12   C14   A    
C1    O3    A    
C2    O4    A    
Cu1   O4    S    
C7    Br5   S    
Cu2   O3    S    
N2    I2    S    
C3    O5    A    
Cu1   N2    S    
C5    C12   A    
C8    C10   A    
Cu2   N1    S    
C6    C11   A    
C7    C9    A    
C15   I3    S    
C8    Br6   S    
C9    Br4   S    
Cu2   O2    S    
Cu1   O8    S    
C10   Br3   S    
C7    C14   A    
Cu1   O1    S    
Cu2   O7    S    
C15   C16   D    
C11   Br2   S    
C16   I4    S    
C4    C5    S    
