data_mof_unit_66756.cif
_audit_creation_date              2013-03-05T15:40:47-0500
_audit_creation_method            fapswitch 2.2
_symmetry_space_group_name_H-M    P1
_symmetry_Int_Tables_number       1
_space_group_crystal_system       triclinic
_cell_length_a                    8.277655
_cell_length_b                    12.631477
_cell_length_c                    15.012604
_cell_angle_alpha                 95.185492
_cell_angle_beta                  99.784781
_cell_angle_gamma                 97.155478
_cell_volume                      1524.80050853

loop_
_atom_site_label
_atom_site_type_symbol
_atom_site_description
_atom_site_fract_x
_atom_site_fract_y
_atom_site_fract_z
_atom_type_partial_charge
P1    P     P_3+3 0.998660 0.747790 0.570900 0.452850
O1    O     O_2   0.168170 0.764170 0.543850 -0.343447
O2    O     O_3   0.898670 0.629780 0.545890 -0.360459
O3    O     O_3   0.365980 0.695510 0.380810 -0.336118
O4    O     O_2   0.314609 0.882350 0.453565 -0.392282
O5    O     O_3   0.057371 0.747598 0.689853 -0.613351
O6    O     O_3   0.306931 0.872552 0.281286 -0.503330
C1    C     C_3   0.339659 0.931159 0.137881 -0.941924
H1    H     H_    0.210863 0.895450 0.106411 0.269811
H2    H     H_    0.339858 0.015989 0.164885 0.275738
P2    P     P_3+3 0.306970 0.411860 0.294270 0.449239
P3    P     P_3+3 0.883294 0.629580 0.217316 0.464532
O7    O     O_2   0.136040 0.444100 0.280280 -0.404266
O8    O     O_3   0.934510 0.640480 0.335500 -0.375710
O9    O     O_2   0.999856 0.560394 0.176318 -0.382057
O10   O     O_3   0.291740 0.271484 0.276490 -0.637381
O11   O     O_3   0.931111 0.755686 0.181615 -0.511377
C2    C     C_3   0.870223 0.832726 0.235522 0.494632
H3    H     H_    0.963626 0.861302 0.298164 0.128860
H4    H     H_    0.751464 0.801336 0.255462 -0.014692
C3    C     C_3   0.840080 0.926815 0.181469 -0.975292
H5    H     H_    0.808921 0.993763 0.225696 0.250594
H6    H     H_    0.952291 0.955153 0.154251 0.306797
C4    C     C_3   0.711680 0.308189 0.269336 0.437937
H7    H     H_    0.624861 0.347012 0.305317 0.119256
H8    H     H_    0.822707 0.367156 0.268974 0.098093
C5    C     C_3   0.626268 0.269865 0.171503 -1.035621
H9    H     H_    0.502285 0.224116 0.170213 0.279469
H10   H     H_    0.612434 0.339029 0.132010 0.231857
H11   H     H_    0.699925 0.216704 0.137753 0.271584
Ba1   Ba    Ba6+2 0.153570 0.551840 0.456200 1.571562
C6    C     C_3   0.083211 0.849981 0.740806 1.021693
H12   H     H_    0.005502 0.904259 0.705475 -0.071966
C7    C     C_3   0.264130 0.901462 0.754901 -0.902822
H13   H     H_    0.321871 0.871381 0.698652 0.260624
H14   H     H_    0.338586 0.884463 0.819265 0.257880
H15   H     H_    0.268894 0.989579 0.757770 0.211305
C8    C     C_3   0.127189 0.219591 0.253943 1.092830
H16   H     H_    0.048719 0.255366 0.297747 0.019314
C9    C     C_3   0.057658 0.225093 0.153517 -1.036332
H17   H     H_    0.951263 0.160679 0.128908 0.246334
H18   H     H_    0.153879 0.213388 0.111623 0.241767
H19   H     H_    0.013621 0.303267 0.143495 0.228578
P4    P     P_3+3 0.811620 0.252200 0.429030 0.456832
O12   O     O_2   0.642110 0.235770 0.456130 -0.347253
O13   O     O_3   0.911620 0.370210 0.454030 -0.415480
O14   O     O_3   0.444310 0.304480 0.619110 -0.385945
O15   O     O_3   0.758318 0.219305 0.310916 -0.588091
P5    P     P_3+3 0.912669 0.369704 0.784018 0.478784
O16   O     O_3   0.400800 0.556680 0.607590 -0.358659
O17   O     O_3   0.875770 0.359510 0.664420 -0.343322
O18   O     O_2   0.780478 0.429973 0.818701 -0.400904
O19   O     O_3   0.868746 0.241241 0.817086 -0.488668
Ba2   Ba    Ba6+2 0.656590 0.448150 0.543720 1.563908
P6    P     P_3+3 0.409453 0.835320 0.383297 0.462167
C10   C     C_3   0.407738 0.868245 0.214974 0.502575
H20   H     H_    0.535737 0.907844 0.243290 0.038547
H21   H     H_    0.418062 0.930266 0.084740 0.214635
O20   O     O_3   0.409490 0.443300 0.392340 -0.363808
C11   C     C_3   0.661623 0.786208 0.780220 1.093166
H22   H     H_    0.764037 0.753112 0.753368 0.023292
C12   C     C_3   0.680753 0.776457 0.882319 -0.981011
H23   H     H_    0.730691 0.701637 0.897748 0.193129
H24   H     H_    0.770552 0.844129 0.921786 0.270566
H25   H     H_    0.560187 0.777508 0.905272 0.226552
P7    P     P_3+3 0.498550 0.593009 0.720554 0.430651
O21   O     O_2   0.674250 0.555830 0.719690 -0.368906
O22   O     O_3   0.507697 0.732977 0.733163 -0.622458
H26   H     H_    0.736001 0.901405 0.123277 0.235851
C13   C     C_3   0.011450 0.190687 0.825394 0.337260
H27   H     H_    0.029943 0.159108 0.756828 0.073523
H28   H     H_    0.123024 0.244853 0.861858 0.061596
C14   C     C_3   0.990310 0.098537 0.882634 -0.901768
H29   H     H_    0.878568 0.041589 0.851479 0.313969
H30   H     H_    0.100304 0.055883 0.887834 0.239589
H31   H     H_    0.976652 0.129801 0.952108 0.250425
P8    P     P_3+3 0.401236 0.165368 0.617949 0.449672
C15   C     C_3   0.448314 0.217082 0.790398 0.551108
H32   H     H_    0.318645 0.233485 0.775875 -0.069448
O23   O     O_2   0.513224 0.114899 0.558555 -0.379707
O24   O     O_3   0.475422 0.134733 0.727525 -0.513225
H33   H     H_    0.531534 0.291892 0.787586 0.157596
H34   H     H_    0.466251 0.251115 0.936015 0.219889
C16   C     C_3   0.485181 0.185171 0.886352 -0.970396
H35   H     H_    0.615418 0.169651 0.902821 0.298797
H36   H     H_    0.401435 0.111605 0.892559 0.248384
C17   C     C_R   0.077426 0.185893 0.537979 -0.467911
C18   C     C_R   0.730890 0.816402 0.464525 -0.403467
C19   C     C_R   0.693822 0.996088 0.430115 -0.225972
C20   C     C_R   0.631215 0.886964 0.425397 0.148183
C21   C     C_R   0.889293 0.852559 0.514615 0.167305
C22   C     C_R   0.954913 0.964325 0.520609 -0.064624
C23   C     C_R   0.854856 0.037425 0.478516 -0.022597
C24   C     C_R   0.919221 0.149610 0.487627 0.290513
C25   C     C_R   0.180007 0.114383 0.572502 0.186815
C26   C     C_R   0.118500 0.005134 0.564530 -0.279004
H37   H     H_    0.613768 0.047585 0.397387 0.172622
H38   H     H_    0.202754 0.952891 0.589491 0.185062
H39   H     H_    0.127206 0.269929 0.543269 0.163479
H40   H     H_    0.679969 0.732629 0.460923 0.172640
C27   C     C_R   0.211846 0.487812 0.769177 -0.279575
C28   C     C_R   0.119689 0.444386 0.830023 0.222573
C29   C     C_R   0.188255 0.452233 0.922554 -0.355196
C30   C     C_R   0.357544 0.493125 0.954418 0.118602
C31   C     C_R   0.452934 0.523747 0.888643 -0.323358
C32   C     C_R   0.379882 0.526328 0.798077 0.221656
C33   C     C_R   0.596892 0.559120 0.086472 -0.295574
C34   C     C_R   0.666542 0.571297 0.178676 0.233616
C35   C     C_R   0.414621 0.480219 0.212995 0.349029
C36   C     C_R   0.345676 0.464646 0.119954 -0.286150
C37   C     C_R   0.433774 0.505556 0.054409 0.083587
C38   C     C_R   0.573213 0.536553 0.242177 -0.478294
H41   H     H_    0.673434 0.593364 0.042204 0.148585
H42   H     H_    0.107422 0.423412 0.966951 0.156455
H43   H     H_    0.224952 0.418255 0.100546 0.143155
H44   H     H_    0.584332 0.546518 0.905771 0.157251
H45   H     H_    0.628115 0.546948 0.313714 0.160549
N1    N     N_3   0.409621 0.756448 0.180195 -0.200177
H46   H     H_    0.479727 0.755402 0.128469 0.064642
H47   H     H_    0.288736 0.721152 0.151284 0.177854
O25   O     O_3   0.037667 0.843437 0.827537 -0.662863
C39   C     C_3   0.083544 0.751360 0.867435 -0.194614
H48   H     H_    0.995849 0.678577 0.835928 0.165217
H49   H     H_    0.076450 0.762446 0.940754 0.162690
H50   H     H_    0.211800 0.737492 0.862440 0.138683
O26   O     O_3   0.122316 0.109762 0.266583 -0.685846
C40   C     C_3   0.217659 0.095706 0.350771 -0.029113
H51   H     H_    0.233654 0.166178 0.402866 0.086060
H52   H     H_    0.342064 0.079730 0.340327 0.173989
H53   H     H_    0.155950 0.025466 0.377075 0.163955
O27   O     O_3   0.669840 0.896770 0.769409 -0.654960
C41   C     C_3   0.665700 0.914832 0.677538 -0.048997
H54   H     H_    0.762944 0.982484 0.674392 0.140916
H55   H     H_    0.545629 0.939297 0.649158 0.193117
H56   H     H_    0.683987 0.843944 0.633212 0.043012
N2    N     N_3   0.130974 0.493720 0.678267 -0.135467
H57   H     H_    0.148933 0.572402 0.662723 0.214313
H58   H     H_    0.174918 0.440736 0.633773 0.149508

loop_
_geom_bond_atom_site_label_1
_geom_bond_atom_site_label_2
_geom_bond_distance
_ccdc_geom_bond_type
C1    H1    1.110757 S    
P7    O22   1.751760 S    
C23   C24   1.436222 A    
C5    H10   1.106047 S    
C2    C3    1.520735 S    
C14   H29   1.103690 S    
C18   C20   1.390448 A    
C31   H44   1.070279 S    
O5    C6    1.414218 S    
C25   C26   1.397239 A    
C4    C5    1.524674 S    
O6    P6    1.753444 S    
O8    Ba1   2.753330 S    
C1    C10   1.531262 S    
O16   Ba2   2.908172 S    
C4    H8    1.109661 S    
P1    O1    1.520880 D    
P6    C20   1.851344 S    
C41   H56   1.108073 S    
C8    H16   1.105960 S    
O2    Ba2   2.845890 S    
C27   N2    1.427124 S    
P2    C35   1.843022 S    
C7    H15   1.105491 S    
C17   C24   1.395639 A    
P1    Ba1   3.392116 S    
C10   H20   1.109038 S    
C11   C12   1.531702 S    
C7    H13   1.100145 S    
Ba1   O20   2.909085 S    
O7    Ba1   2.831779 S    
C36   C37   1.417389 A    
C33   H41   1.075646 S    
C12   H24   1.111185 S    
C1    H21   1.110839 S    
N1    H46   1.045548 S    
C9    H19   1.108363 S    
C26   H38   1.064345 S    
C41   H54   1.108726 S    
P5    O17   1.759431 S    
Ba1   O13   2.845243 S    
C17   C25   1.389840 A    
P3    O11   1.746606 S    
C33   C34   1.392944 A    
P3    O9    1.545382 D    
C13   H27   1.112062 S    
C7    H14   1.108022 S    
C9    H18   1.111122 S    
P7    O21   1.584749 D    
P2    Ba1   3.388219 S    
P1    C21   1.877636 S    
C3    H5    1.110653 S    
C5    H11   1.106748 S    
C14   H30   1.109521 S    
C33   C37   1.416064 A    
O6    C10   1.405052 S    
P7    C32   1.840774 S    
P2    O20   1.559227 S    
O19   C13   1.403896 S    
C11   O27   1.415064 S    
C30   C31   1.416380 A    
C8    O26   1.413685 S    
P4    O13   1.591836 S    
C17   H39   1.080530 S    
Ba2   O20   2.777739 S    
C22   C26   1.412552 A    
P1    O5    1.769555 S    
C4    O15   1.397135 S    
C27   C28   1.392980 A    
C29   H42   1.076686 S    
C4    H7    1.104807 S    
N2    H58   1.043474 S    
C35   C38   1.391792 A    
P5    C28   1.838664 S    
P3    C34   1.826915 S    
C15   H32   1.107516 S    
C2    H3    1.111042 S    
Ba2   O21   2.831967 S    
P8    C25   1.853611 S    
C34   C38   1.392741 A    
C19   H37   1.076180 S    
C11   H22   1.109021 S    
P1    O2    1.591817 S    
C6    C7    1.528139 S    
C40   H52   1.107556 S    
C12   H23   1.105476 S    
C15   C16   1.522132 S    
P2    O10   1.754582 S    
C15   H33   1.106434 S    
H34   C16   1.110957 S    
C18   C21   1.395318 A    
P8    O24   1.750383 S    
P5    O18   1.541933 D    
O13   Ba2   2.912570 S    
C13   C14   1.518253 S    
O11   C2    1.405146 S    
C16   H35   1.110220 S    
O2    Ba1   2.911662 S    
O16   P7    1.744060 S    
O25   C39   1.419285 S    
C18   H40   1.082182 S    
O14   Ba2   2.813335 S    
C41   H55   1.105101 S    
C9    H17   1.109368 S    
P3    O8    1.741344 S    
O12   Ba2   2.858125 S    
C3    H6    1.109255 S    
O3    P6    1.753533 S    
C14   H31   1.110541 S    
O14   P8    1.746833 S    
Ba1   O16   2.778502 S    
C39   H49   1.109401 S    
C40   H51   1.109579 S    
C21   C22   1.437226 A    
P4    O12   1.521235 D    
P8    O23   1.544735 D    
C27   C32   1.395630 A    
C12   H25   1.110986 S    
C10   N1    1.463564 S    
C6    O25   1.422274 S    
O4    P6    1.538342 D    
C16   H36   1.108991 S    
N2    H57   1.039824 S    
C30   C37   1.512272 S    
C31   C32   1.395997 A    
O17   Ba2   2.753924 S    
C6    H12   1.106717 S    
C39   H50   1.111054 S    
C19   C20   1.401947 A    
C40   H53   1.105914 S    
P4    O15   1.751220 S    
C35   C36   1.402440 A    
C8    C9    1.530718 S    
P2    O7    1.506619 D    
C15   O24   1.405679 S    
C38   H45   1.082090 S    
O26   C40   1.410046 S    
P5    O19   1.752627 S    
C22   C23   1.433874 A    
C2    H4    1.112467 S    
Ba1   Ba2   4.601233 S    
C19   C23   1.416435 A    
C28   C29   1.398134 A    
N1    H47   1.046281 S    
O3    Ba1   2.813993 S    
P4    C24   1.863798 S    
P4    Ba2   3.392589 S    
C11   O22   1.403347 S    
C1    H2    1.110553 S    
C3    H26   1.110431 S    
C29   C30   1.416501 A    
O1    Ba1   2.857740 S    
C13   H28   1.106263 S    
C39   H48   1.111004 S    
C36   H43   1.072937 S    
O27   C41   1.413593 S    
O10   C8    1.407234 S    
C5    H9    1.109537 S    
