data_mof_unit_48546.cif
_audit_creation_date              2012-12-10T17:37:22-0500
_audit_creation_method            fapswitch 2.2
_symmetry_space_group_name_H-M    P1
_symmetry_Int_Tables_number       1
_space_group_crystal_system       triclinic
_cell_length_a                    12.226668
_cell_length_b                    12.685443
_cell_length_c                    16.561421
_cell_angle_alpha                 94.769233
_cell_angle_beta                  83.287627
_cell_angle_gamma                 96.613329
_cell_volume                      2527.77674069

loop_
_atom_site_label
_atom_site_type_symbol
_atom_type_description
_atom_site_fract_x
_atom_site_fract_y
_atom_site_fract_z
_atom_type_partial_charge
C1    C     C_R   0.525706 0.700716 0.493335 0.877790
C2    C     C_R   0.521701 0.134429 0.558946 -0.011503
C3    C     C_R   0.457815 0.973134 0.478211 -0.008835
C4    C     C_R   0.535181 0.028107 0.530442 0.006954
C5    C     C_R   0.943828 0.371413 0.448707 -0.189795
C6    C     C_R   0.057277 0.628507 0.548738 -0.184014
C7    C     C_R   0.833546 0.391257 0.445129 0.008975
C8    C     C_R   0.165569 0.606532 0.556530 0.028536
C9    C     C_R   0.862548 0.552813 0.527955 0.184484
C10   C     C_R   0.138658 0.447352 0.470700 0.163970
C11   C     C_R   0.980162 0.546912 0.517594 -0.040235
C12   C     C_R   0.473973 0.299747 0.507831 0.912183
C13   C     C_R   0.021161 0.453277 0.479284 -0.030892
C14   C     C_R   0.485441 0.500105 0.653722 0.887359
C15   C     C_R   0.516181 0.509385 0.346396 0.852203
C16   C     C_R   0.479761 0.511753 0.742275 -0.034879
C17   C     C_R   0.528000 0.555675 0.265225 -0.109508
C18   C     C_R   0.552467 0.592762 0.773922 -0.235200
C19   C     C_R   0.430312 0.585232 0.240990 -0.214255
C20   C     C_R   0.555595 0.610898 0.856596 -0.177314
C21   C     C_R   0.430080 0.636728 0.171309 -0.137631
C22   C     C_R   0.483388 0.549682 0.910154 0.146205
C23   C     C_R   0.447684 0.187126 0.523368 -0.182012
C24   C     C_R   0.528286 0.661523 0.122735 0.156381
C25   C     C_R   0.402444 0.470780 0.880681 0.106828
C26   C     C_R   0.630757 0.646227 0.148559 0.138576
C27   C     C_R   0.400412 0.451380 0.794634 0.069677
C28   C     C_R   0.631253 0.586200 0.217713 0.041900
C29   C     C_2   0.498267 0.564779 0.996852 -0.237618
C30   C     C_2   0.518417 0.660682 0.035819 -0.271965
C31   C     C_2   0.237066 0.682960 0.605131 1.048294
C32   C     C_2   0.759640 0.307229 0.404576 1.044624
C33   C     C_2   0.970324 0.260295 0.429631 0.941561
C34   C     C_R   0.549182 0.814704 0.481487 -0.192658
C35   C     C_2   0.033543 0.740733 0.559941 0.996698
C36   C     C_3   0.737963 0.544066 0.231804 -0.398878
C37   C     C_3   0.809074 0.621687 0.285578 -0.317735
C38   C     C_3   0.922089 0.582738 0.288765 -0.870860
C39   C     C_3   0.313029 0.371125 0.758707 -0.415183
C40   C     C_3   0.201002 0.417430 0.766926 -0.307310
C41   C     C_3   0.117050 0.349150 0.718990 -0.893559
C42   C     C_3   0.318095 0.411697 0.941508 -0.441199
C43   C     C_3   0.237496 0.486341 0.987764 -0.338552
C44   C     C_3   0.133632 0.424088 0.027612 -0.887039
C45   C     C_R   0.629188 0.978542 0.545338 -0.012591
C46   C     C_3   0.736367 0.692636 0.099308 -0.463718
C47   C     C_3   0.745025 0.814705 0.105982 -0.328434
C48   C     C_3   0.850679 0.862366 0.057856 -0.858685
C49   C     C_2   0.557527 0.181087 0.638382 0.884692
C50   C     C_2   0.415608 0.812463 0.380610 0.911417
C51   C     C_3   0.237981 0.157293 0.525926 -0.383298
C52   C     C_3   0.193298 0.100703 0.603835 -0.338561
C53   C     C_3   0.067383 0.094794 0.619946 -0.779606
C54   C     C_3   0.758025 0.849011 0.477812 -0.386993
C55   C     C_3   0.796349 0.907482 0.399877 -0.394907
C56   C     C_R   0.364398 0.023469 0.463233 -0.138013
C57   C     C_3   0.918436 0.899953 0.371116 -0.719595
C58   C     C_2   0.720031 0.033749 0.590782 0.928659
C59   C     C_2   0.271057 0.968823 0.420505 0.950137
C60   C     C_3   0.191903 0.373597 0.404351 -0.392315
C61   C     C_3   0.171893 0.401002 0.318946 -0.346191
C62   C     C_3   0.243573 0.341703 0.252596 -0.860069
C63   C     C_3   0.811571 0.623020 0.598128 -0.393960
C64   C     C_3   0.829758 0.584714 0.681290 -0.345218
C65   C     C_3   0.834931 0.675099 0.748417 -0.852952
C66   C     C_R   0.641674 0.874950 0.511109 0.008969
C67   C     C_R   0.353916 0.127753 0.495389 -0.028878
C68   C     C_R   0.470120 0.866436 0.450620 -0.049537
H1    H     H_    0.606394 0.643469 0.733597 0.165256
H2    H     H_    0.022721 0.873363 0.634666 0.349041
H3    H     H_    0.912291 0.499336 0.306130 0.275080
H4    H     H_    0.971591 0.586912 0.228232 0.252892
H5    H     H_    0.967895 0.633048 0.334511 0.262754
H6    H     H_    0.821634 0.701795 0.261475 0.217837
H7    H     H_    0.766638 0.629709 0.348339 0.251450
H8    H     H_    0.719573 0.466817 0.257475 0.275292
H9    H     H_    0.785964 0.522308 0.172894 0.184342
H10   H     H_    0.147627 0.344379 0.653165 0.274143
H11   H     H_    0.101952 0.268517 0.742060 0.269529
H12   H     H_    0.351381 0.566444 0.275082 0.180646
H13   H     H_    0.037629 0.385313 0.726838 0.253046
H14   H     H_    0.165488 0.424315 0.831465 0.224285
H15   H     H_    0.212485 0.498127 0.744546 0.281489
H16   H     H_    0.337796 0.348100 0.693693 0.209198
H17   H     H_    0.305733 0.294344 0.787373 0.183260
H18   H     H_    0.084490 0.381525 0.980213 0.262241
H19   H     H_    0.156306 0.365230 0.066978 0.267656
H20   H     H_    0.081571 0.479695 0.065535 0.250628
H21   H     H_    0.278572 0.536238 0.036057 0.229224
H22   H     H_    0.212118 0.540459 0.945562 0.228649
H23   H     H_    0.524582 0.734290 0.005732 0.171988
H24   H     H_    0.269431 0.343468 0.912316 0.215704
H25   H     H_    0.361303 0.374829 0.985443 0.186939
H26   H     H_    0.924764 0.838958 0.081961 0.262926
H27   H     H_    0.851800 0.834713 0.992355 0.264001
H28   H     H_    0.854214 0.950497 0.063529 0.257894
H29   H     H_    0.672821 0.842481 0.082241 0.230071
H30   H     H_    0.745361 0.844400 0.171080 0.230634
H31   H     H_    0.813032 0.670403 0.119416 0.213735
H32   H     H_    0.736507 0.662194 0.034396 0.211202
H33   H     H_    0.571970 0.157671 0.755528 0.346389
H34   H     H_    0.490924 0.494400 0.031141 0.164558
H35   H     H_    0.285060 0.717736 0.342034 0.333555
H36   H     H_    0.039224 0.174898 0.622356 0.286060
H37   H     H_    0.028527 0.043444 0.571134 0.297667
H38   H     H_    0.039466 0.060682 0.679414 0.237672
H39   H     H_    0.216333 0.018057 0.599544 0.269882
H40   H     H_    0.230961 0.144103 0.656639 0.214850
H41   H     H_    0.234549 0.243207 0.540677 0.223325
H42   H     H_    0.182166 0.134622 0.477756 0.235692
H43   H     H_    0.970868 0.942951 0.416374 0.306626
H44   H     H_    0.935664 0.815721 0.362100 0.281198
H45   H     H_    0.351414 0.649077 0.151440 0.141999
H46   H     H_    0.940191 0.936923 0.312107 0.232589
H47   H     H_    0.745896 0.872516 0.350623 0.222842
H48   H     H_    0.783930 0.993182 0.410569 0.275777
H49   H     H_    0.816793 0.872644 0.523853 0.242171
H50   H     H_    0.763163 0.763370 0.462390 0.227019
H51   H     H_    0.830215 0.162543 0.606526 0.357967
H52   H     H_    0.314528 0.051119 0.320611 0.304741
H53   H     H_    0.332579 0.358926 0.261646 0.253909
H54   H     H_    0.219513 0.254616 0.253480 0.279287
H55   H     H_    0.231919 0.367572 0.192174 0.248706
H56   H     H_    0.616769 0.671769 0.878695 0.153189
H57   H     H_    0.084046 0.380321 0.308297 0.251365
H58   H     H_    0.189357 0.487893 0.313715 0.216237
H59   H     H_    0.279977 0.378100 0.407237 0.269395
H60   H     H_    0.168463 0.288877 0.412878 0.184500
H61   H     H_    0.919219 0.718122 0.745589 0.302675
H62   H     H_    0.775319 0.733045 0.742851 0.267168
H63   H     H_    0.816307 0.641699 0.808995 0.241008
H64   H     H_    0.761334 0.522890 0.699371 0.250571
H65   H     H_    0.907706 0.546497 0.677586 0.225852
H66   H     H_    0.838489 0.708104 0.593647 0.195722
H67   H     H_    0.316872 0.830732 0.618781 0.333149
H68   H     H_    0.723217 0.623598 0.595770 0.243047
H69   H     H_    0.673192 0.259013 0.309580 0.328839
H70   H     H_    0.985177 0.136426 0.346024 0.349986
N1    N     N_R   0.206400 0.519440 0.514690 -0.154585
N2    N     N_R   0.793600 0.480560 0.485310 -0.153125
O1    O     O_R   0.421320 0.658850 0.503920 -0.556327
O2    O     O_R   0.269583 0.785441 0.579899 -0.743345
O3    O     O_2   0.736587 0.220945 0.433641 -0.593999
O4    O     O_R   0.721771 0.322956 0.331108 -0.839290
O5    O     O_2   0.993261 0.209978 0.483787 -0.659110
O6    O     O_R   0.964889 0.212090 0.350914 -0.814016
O7    O     O_2   0.001770 0.781484 0.503915 -0.636602
O8    O     O_R   0.046836 0.799634 0.633861 -0.815298
O9    O     O_2   0.593523 0.274769 0.647097 -0.614569
O10   O     O_R   0.546132 0.117439 0.704504 -0.808433
O11   O     O_2   0.451078 0.835757 0.311557 -0.645157
O12   O     O_R   0.578680 0.341150 0.496080 -0.553505
O13   O     O_R   0.321894 0.739135 0.393483 -0.725061
O14   O     O_2   0.749990 0.990959 0.646744 -0.636706
O15   O     O_R   0.772194 0.132757 0.569336 -0.739043
O16   O     O_2   0.204106 0.904124 0.455070 -0.507403
O17   O     O_R   0.255208 0.995152 0.342759 -0.780953
O18   O     O_R   0.609840 0.646370 0.494500 -0.672373
O19   O     O_R   0.390160 0.353630 0.505500 -0.675084
O20   O     O_R   0.394600 0.506990 0.621070 -0.589792
O21   O     O_R   0.605400 0.493010 0.378930 -0.594450
O22   O     O_R   0.583120 0.494520 0.611640 -0.607562
O23   O     O_R   0.416880 0.505480 0.388360 -0.624222
O24   O     O_2   0.263673 0.658222 0.669122 -0.662581
Zn1   Zn    Zn3+2 0.374120 0.508330 0.506290 0.957193
Zn2   Zn    Zn3+2 0.625880 0.491670 0.493710 0.960261

loop_
_geom_bond_atom_site_label_1
_geom_bond_atom_site_label_2
_ccdc_geom_bond_type
C37   H6    S    
C48   H27   S    
C42   H25   S    
C59   O17   S    
C12   O12   A    
C10   C60   S    
C3    C68   A    
C62   H54   S    
C46   H31   S    
C34   C66   A    
C65   H62   S    
C57   H43   S    
C12   C23   S    
C43   H21   S    
C47   H30   S    
C48   H26   S    
C49   O10   S    
C8    N1    A    
C15   O23   A    
C36   C37   S    
O23   Zn1   S    
C24   C26   A    
C39   H16   S    
C36   H9    S    
C7    N2    A    
C9    N2    A    
C57   H44   S    
C55   H48   S    
C53   H36   S    
H33   O10   S    
C6    C35   S    
C46   C47   S    
C23   C67   A    
N1    Zn1   S    
C32   O3    D    
C36   H8    S    
C54   C55   S    
C50   O11   D    
H35   O13   S    
H67   O2    S    
C64   H64   S    
C52   H39   S    
C27   C39   S    
C22   C25   A    
C5    C33   S    
C61   H58   S    
C44   H19   S    
C58   O14   D    
C5    C13   A    
O21   Zn2   S    
C18   H1    S    
C37   H7    S    
C51   H41   S    
O22   Zn2   S    
C17   C28   A    
C40   H15   S    
C19   H12   S    
C44   H18   S    
C53   H38   S    
C62   H55   S    
C65   H63   S    
C1    C34   S    
C4    C45   A    
N2    Zn2   S    
C38   H4    S    
C45   C58   S    
C43   H22   S    
C20   H56   S    
C51   C52   S    
C63   H66   S    
C40   H14   S    
C60   H60   S    
C21   H45   S    
C58   O15   S    
C34   C68   A    
C6    C11   A    
C5    C7    A    
C6    C8    A    
O19   Zn1   S    
C14   O20   A    
C60   C61   S    
C45   C66   A    
C14   O22   A    
C2    C4    A    
C43   C44   S    
C37   C38   S    
C2    C49   S    
C3    C56   A    
O12   Zn2   S    
C47   C48   S    
C41   H13   S    
C35   O7    D    
O20   Zn1   S    
C9    C11   A    
C52   H40   S    
C33   O5    D    
C40   C41   S    
H69   O4    S    
C20   C22   A    
C51   H42   S    
C54   H50   S    
H52   O17   S    
C14   C16   S    
C21   C24   A    
H2    O8    S    
C42   C43   S    
C39   H17   S    
C3    C4    A    
C41   H10   S    
C52   C53   S    
O18   Zn2   S    
C64   H65   S    
C15   C17   S    
C46   H32   S    
C31   O24   D    
C1    O18   A    
H51   O15   S    
C7    C32   S    
C48   H28   S    
C42   H24   S    
C19   C21   A    
C9    C63   S    
C8    C31   S    
O1    Zn1   S    
C15   O21   A    
C60   H59   S    
C30   H23   S    
C10   C13   A    
C25   C42   S    
C41   H11   S    
C65   H61   S    
C59   O16   D    
C57   H46   S    
C54   C66   S    
C25   C27   A    
C56   C67   A    
C26   C28   A    
C47   H29   S    
C56   C59   S    
C49   O9    D    
H70   O6    S    
C63   H68   S    
C31   O2    S    
C55   C57   S    
C64   C65   S    
C11   C13   A    
C51   C67   S    
C55   H47   S    
C16   C27   A    
C17   C19   A    
C29   H34   S    
C18   C20   A    
C35   O8    S    
C12   O19   A    
C61   C62   S    
C24   C30   S    
C32   O4    S    
C1    O1    A    
C33   O6    S    
C26   C46   S    
C29   C30   D    
C63   C64   S    
C39   C40   S    
C53   H37   S    
C28   C36   S    
C16   C18   A    
C10   N1    A    
C54   H49   S    
C22   C29   S    
C2    C23   A    
C61   H57   S    
C50   O13   S    
C44   H20   S    
C50   C68   S    
C62   H53   S    
C38   H3    S    
C38   H5    S    
