data_mof_unit_51202.cif
_audit_creation_date              2013-03-05T16:31:38-0500
_audit_creation_method            fapswitch 2.2
_symmetry_space_group_name_H-M    P1
_symmetry_Int_Tables_number       1
_space_group_crystal_system       triclinic
_cell_length_a                    9.562614
_cell_length_b                    10.842635
_cell_length_c                    15.376724
_cell_angle_alpha                 89.609686
_cell_angle_beta                  73.944894
_cell_angle_gamma                 90.62124
_cell_volume                      1531.96472436

loop_
_atom_site_label
_atom_site_type_symbol
_atom_site_description
_atom_site_fract_x
_atom_site_fract_y
_atom_site_fract_z
_atom_type_partial_charge
O1    O     O_R   0.118810 0.319640 0.500000 -0.577525
O2    O     O_R   0.881230 0.319680 0.499990 -0.505210
C1    C     C_R   0.997795 0.262427 0.502934 0.906120
O3    O     O_R   0.055580 0.499970 0.629840 -0.595761
O4    O     O_R   0.818000 0.500010 0.629830 -0.585761
C2    C     C_R   0.917864 0.500541 0.672344 0.833004
Cu1   Cu    Cu3+1 0.140670 0.499980 0.500000 0.996286
Cu2   Cu    Cu3+1 0.859330 0.500020 0.500000 1.089733
O5    O     O_R   0.118770 0.680320 0.500010 -0.595702
O6    O     O_R   0.881190 0.680360 0.500000 -0.539799
O7    O     O_R   0.182000 0.499990 0.370170 -0.584890
O8    O     O_R   0.944420 0.500030 0.370160 -0.518954
C3    C     C_R   0.999472 0.737739 0.502440 0.844737
C4    C     C_R   0.081877 0.495964 0.327514 0.902770
C5    C     C_R   0.872090 0.522067 0.769918 -0.109325
C6    C     C_R   0.125208 0.484753 0.228272 -0.234326
C7    C     C_R   0.880657 0.662795 0.889833 -0.080542
C8    C     C_R   0.943585 0.615118 0.804472 -0.195719
C9    C     C_R   0.741462 0.469535 0.824644 0.285696
C10   C     C_R   0.664498 0.533769 0.903300 0.031492
C11   C     C_R   0.739784 0.625778 0.938264 0.021050
C12   C     C_R   0.514576 0.511231 0.947194 -0.070178
C13   C     C_R   0.452107 0.558447 0.034933 -0.018377
C14   C     C_R   0.531172 0.649577 0.068214 0.632982
C15   C     C_R   0.672171 0.682729 0.019786 -0.158475
C16   C     C_R   0.422631 0.451837 0.902705 -0.184355
C17   C     C_R   0.278389 0.423622 0.947103 0.669100
C18   C     C_R   0.221124 0.451067 0.039438 -0.197790
C19   C     C_R   0.310916 0.515828 0.084399 0.014754
C20   C     C_R   0.079639 0.410755 0.089401 0.258673
C21   C     C_R   0.033856 0.426938 0.183309 0.600023
C22   C     C_R   0.262273 0.527131 0.178873 -0.173700
H1    H     H_    0.728117 0.755119 0.045790 0.203559
H2    H     H_    0.333675 0.561690 0.216256 0.225571
H3    H     H_    0.938196 0.734421 0.915386 0.163072
H4    H     H_    0.045425 0.654706 0.763795 0.162991
H5    H     H_    0.460319 0.429236 0.831733 0.173669
C23   C     C_R   0.117016 0.065794 0.514294 -0.081545
C24   C     C_R   0.991341 0.129412 0.514020 -0.165497
C25   C     C_R   0.859779 0.061980 0.528482 0.648827
C26   C     C_R   0.861978 0.933194 0.528344 -0.204034
H6    H     H_    0.760725 0.883257 0.535735 0.235491
C27   C     C_R   0.994739 0.870755 0.513545 -0.136326
C28   C     C_R   0.118928 0.938947 0.514699 -0.010677
C29   C     C_3   0.270776 0.936958 0.453958 -0.424375
C30   C     C_3   0.267900 0.076712 0.453189 0.546832
H7    H     H_    0.348450 0.901335 0.489797 0.178962
H8    H     H_    0.277356 0.895414 0.387015 0.242338
H9    H     H_    0.345779 0.121549 0.485402 0.115025
C31   C     C_R   0.608241 0.531979 0.423534 0.193271
N1    N     N_R   0.648210 0.500930 0.499430 -0.198640
C32   C     C_R   0.541467 0.455983 0.572113 0.002558
H10   H     H_    0.569435 0.421560 0.631155 0.177564
C33   C     C_R   0.392905 0.456155 0.572158 -0.055633
H11   H     H_    0.310957 0.422248 0.631179 0.165777
N2    N     N_R   0.352300 0.500890 0.499430 -0.181633
C34   C     C_R   0.460582 0.531661 0.423642 0.161571
C35   C     C_3   0.475235 0.651622 0.374398 -0.537389
C36   C     C_3   0.633650 0.653651 0.374729 0.773622
H12   H     H_    0.457902 0.642978 0.306541 0.232298
H13   H     H_    0.409736 0.723070 0.416951 0.207998
N3    N     N_R   0.981920 0.351064 0.046673 0.219192
O9    O     O_R   0.925177 0.243878 0.076042 -0.218316
O10   O     O_R   0.929768 0.412742 0.990140 -0.279390
F1    F     F_    0.730820 0.118989 0.537769 -0.617136
F2    F     F_    0.271035 0.124706 0.368925 -0.599393
N4    N     N_R   0.735844 0.647348 0.284297 0.137992
O11   O     O_R   0.847406 0.722325 0.261687 -0.286650
O12   O     O_R   0.714431 0.569651 0.224937 -0.332384
F3    F     F_    0.665733 0.748664 0.426032 -0.653060
F4    F     F_    0.902365 0.380418 0.231108 -0.573207
F5    F     F_    0.199804 0.362067 0.899687 -0.607210
N5    N     N_R   0.702830 0.343260 0.810580 0.113818
O13   O     O_R   0.651964 0.270709 0.880253 -0.266126
O14   O     O_R   0.738344 0.294429 0.730535 -0.356475
F6    F     F_    0.468199 0.719068 0.141287 -0.656933

loop_
_geom_bond_atom_site_label_1
_geom_bond_atom_site_label_2
_geom_bond_distance
_ccdc_geom_bond_type
C5    C8    1.400334 A    
N5    O14   1.300825 A    
C26   H6    1.081894 S    
C9    C10   1.421191 A    
Cu1   Cu2   2.690350 S    
C29   C30   1.515868 S    
C32   H10   1.080236 S    
C6    C21   1.400784 A    
Cu1   O7    1.924900 S    
C30   H9    1.111658 S    
C16   C17   1.389022 A    
C31   C36   1.497112 S    
C13   C19   1.424301 A    
C18   C19   1.424844 A    
C30   F2    1.385476 S    
C19   C22   1.404149 A    
C20   C21   1.401077 A    
O7    C4    1.302163 A    
C35   H12   1.105273 S    
N2    C34   1.364306 A    
N5    O13   1.301984 A    
O5    C3    1.297131 A    
N3    O10   1.300273 A    
C36   N4    1.464364 S    
C2    C5    1.463184 S    
C13   C14   1.419352 A    
C35   H13   1.100606 S    
C21   F4    1.358566 S    
C1    C24   1.449760 S    
C26   C27   1.408122 A    
Cu1   N2    2.021247 S    
O3    Cu1   1.936382 S    
C32   C33   1.420480 A    
C31   N1    1.365839 A    
C29   H7    1.110999 S    
C23   C24   1.393144 A    
C33   N2    1.368771 A    
N4    O11   1.300795 A    
C9    N5    1.447442 S    
C14   C15   1.390029 A    
O3    C2    1.298322 A    
C24   C25   1.410625 A    
C14   F6    1.356464 S    
C35   C36   1.516192 S    
C7    C11   1.399894 A    
N1    C32   1.370876 A    
N4    O12   1.301883 A    
C22   H2    1.073096 S    
C5    C9    1.410508 A    
C27   C28   1.396462 A    
C23   C28   1.375668 A    
N3    O9    1.301015 A    
Cu2   O8    1.936382 S    
C7    C8    1.389703 A    
Cu2   N1    2.021433 S    
C25   C26   1.396773 A    
C10   C12   1.423223 A    
C25   F1    1.357774 S    
C20   N3    1.433885 S    
C4    C6    1.472774 S    
C3    C27   1.453195 S    
C28   C29   1.494031 S    
C29   H8    1.112455 S    
Cu1   O5    1.968796 S    
C11   C15   1.393420 A    
C33   H11   1.081076 S    
O1    Cu1   1.964248 S    
C31   C34   1.411513 A    
O2    Cu2   1.968795 S    
O8    C4    1.297929 A    
O6    C3    1.294745 A    
O4    Cu2   1.924897 S    
C16   H5    1.081163 S    
C6    C22   1.391960 A    
C18   C20   1.421075 A    
O2    C1    1.293221 A    
C34   C35   1.486191 S    
O4    C2    1.297913 A    
C23   C30   1.491160 S    
C36   F3    1.384145 S    
C10   C11   1.417187 A    
Cu2   O6    1.964248 S    
C12   C16   1.407884 A    
C17   C18   1.408370 A    
C12   C13   1.417526 A    
C7    H3    1.083858 S    
O1    C1    1.296604 A    
C8    H4    1.083614 S    
C17   F5    1.356675 S    
C15   H1    1.084281 S    
