data_mof_unit_50047.cif
_audit_creation_date              2012-12-10T16:51:44-0500
_audit_creation_method            fapswitch 2.2
_symmetry_space_group_name_H-M    P1
_symmetry_Int_Tables_number       1
_space_group_crystal_system       triclinic
_cell_length_a                    15.173288
_cell_length_b                    15.72226
_cell_length_c                    9.84168
_cell_angle_alpha                 89.917782
_cell_angle_beta                  88.767588
_cell_angle_gamma                 89.871123
_cell_volume                      2347.26392689

loop_
_atom_site_label
_atom_site_type_symbol
_atom_type_description
_atom_site_fract_x
_atom_site_fract_y
_atom_site_fract_z
_atom_type_partial_charge
C1    C     C_R   0.380378 0.884642 0.502373 0.711967
C2    C     C_R   0.381245 0.115276 0.501850 0.728889
C3    C     C_R   0.880231 0.384775 0.502363 0.711137
C4    C     C_R   0.881289 0.615339 0.501892 0.729267
C5    C     C_R   0.617357 0.116714 0.497896 0.800879
C6    C     C_R   0.617185 0.883692 0.498431 0.785432
C7    C     C_R   0.117394 0.616673 0.497885 0.801066
C8    C     C_R   0.117232 0.383725 0.498427 0.785418
C9    C     C_2   0.763898 0.825519 0.451271 0.201163
C10   C     C_2   0.704306 0.232116 0.388246 0.216510
C11   C     C_2   0.264673 0.326161 0.455134 0.201749
C12   C     C_2   0.204750 0.731756 0.388069 0.215478
C13   C     C_2   0.679136 0.814786 0.491059 -0.277498
C14   C     C_2   0.690460 0.175494 0.490473 -0.317972
C15   C     C_2   0.179333 0.314925 0.490976 -0.275912
C16   C     C_2   0.190618 0.675299 0.490456 -0.318152
C17   C     C_2   0.321606 0.250089 0.436543 -0.237619
C18   C     C_2   0.284149 0.784988 0.394164 -0.244522
C19   C     C_2   0.820699 0.749277 0.433774 -0.238690
C20   C     C_2   0.783731 0.285332 0.394103 -0.245174
C21   C     C_2   0.312057 0.179120 0.511762 0.298225
C22   C     C_2   0.306069 0.824656 0.509210 0.278770
C23   C     C_2   0.812354 0.679451 0.511970 0.298433
C24   C     C_2   0.805617 0.325086 0.509083 0.280573
C25   C     C_2   0.429293 0.999281 0.925023 -0.067997
C26   C     C_2   0.929297 0.499289 0.925031 -0.067254
C27   C     C_2   0.428142 0.007684 0.078383 0.214199
C28   C     C_2   0.928119 0.507545 0.078406 0.214182
Cu1   Cu    Cu3+1 0.500020 0.000000 0.638630 0.951631
Cu2   Cu    Cu3+1 0.000020 0.500000 0.638630 0.951819
Cu3   Cu    Cu3+1 0.499980 0.000000 0.361370 0.900893
Cu4   Cu    Cu3+1 0.999980 0.500000 0.361370 0.901150
H1    H     H_    0.649650 0.752708 0.501556 0.153705
H2    H     H_    0.737583 0.169066 0.570734 0.147172
H3    H     H_    0.149749 0.252708 0.497154 0.152623
H4    H     H_    0.237587 0.668850 0.570916 0.148144
H5    H     H_    0.376415 0.253996 0.364055 0.123256
H6    H     H_    0.322920 0.793377 0.301058 0.138230
H7    H     H_    0.874485 0.752207 0.359400 0.124754
H8    H     H_    0.822562 0.293514 0.301003 0.137692
H9    H     H_    0.366236 0.000610 0.875362 0.116824
H10   H     H_    0.866249 0.500648 0.875406 0.115429
H11   H     H_    0.538303 0.949839 0.126267 0.181887
H12   H     H_    0.038362 0.449875 0.126308 0.182073
N1    N     N_2   0.498660 0.000000 0.846910 -0.137828
N2    N     N_2   0.998660 0.500000 0.846910 -0.137805
N3    N     N_2   0.498630 0.000000 0.153040 -0.322105
N4    N     N_2   0.998630 0.500000 0.153040 -0.322253
O1    O     O_R   0.410990 0.910970 0.617040 -0.580345
O2    O     O_R   0.410990 0.089030 0.617040 -0.554699
O3    O     O_R   0.910990 0.410970 0.617040 -0.580008
O4    O     O_R   0.910990 0.589030 0.617040 -0.554630
O5    O     O_R   0.410950 0.910970 0.382900 -0.609340
O6    O     O_R   0.410950 0.089030 0.382900 -0.597599
O7    O     O_R   0.910950 0.410970 0.382900 -0.609462
O8    O     O_R   0.910950 0.589030 0.382900 -0.597772
O9    O     O_R   0.589050 0.089030 0.617100 -0.558347
O10   O     O_R   0.589050 0.910970 0.617100 -0.558525
O11   O     O_R   0.089050 0.589030 0.617100 -0.558348
O12   O     O_R   0.089050 0.410970 0.617100 -0.558309
O13   O     O_R   0.589010 0.089030 0.382960 -0.581848
O14   O     O_R   0.589010 0.910970 0.382960 -0.584566
O15   O     O_R   0.089010 0.589030 0.382960 -0.581991
O16   O     O_R   0.089010 0.410970 0.382960 -0.584250
C29   C     C_3   0.799335 0.914625 0.421530 -0.374901
C30   C     C_3   0.898401 0.919132 0.390990 -0.875576
H13   H     H_    0.935551 0.888297 0.473758 0.265885
H14   H     H_    0.914891 0.888108 0.292366 0.250084
H15   H     H_    0.918830 0.986803 0.383745 0.245811
H16   H     H_    0.764178 0.942058 0.333715 0.206834
H17   H     H_    0.785280 0.955641 0.511428 0.183176
C31   C     C_3   0.640695 0.243627 0.271498 -0.324960
C32   C     C_3   0.655919 0.324316 0.186900 -0.909669
H18   H     H_    0.655360 0.381419 0.253266 0.263800
H19   H     H_    0.719558 0.320618 0.129414 0.239777
H20   H     H_    0.602419 0.331098 0.112383 0.245982
H21   H     H_    0.645875 0.187956 0.202343 0.211738
H22   H     H_    0.572236 0.247273 0.313860 0.204916
C33   C     C_3   0.300579 0.415644 0.430645 -0.376914
C34   C     C_3   0.399953 0.420438 0.403222 -0.874231
H23   H     H_    0.436043 0.388131 0.485722 0.265747
H24   H     H_    0.417618 0.391063 0.303745 0.250184
H25   H     H_    0.420539 0.488157 0.399521 0.245567
H26   H     H_    0.266534 0.444790 0.343139 0.205456
H27   H     H_    0.285469 0.455007 0.522041 0.183304
C35   C     C_3   0.141474 0.743043 0.270799 -0.324584
C36   C     C_3   0.157580 0.822988 0.184744 -0.910473
H28   H     H_    0.157642 0.880568 0.250003 0.264015
H29   H     H_    0.221184 0.818250 0.127359 0.239810
H30   H     H_    0.104170 0.829767 0.110072 0.246276
H31   H     H_    0.146311 0.686910 0.202561 0.212214
H32   H     H_    0.072978 0.747486 0.312813 0.205230
O17   O     O_3   0.250902 0.176580 0.619746 -0.607197
C37   C     C_3   0.211863 0.095120 0.638108 0.045165
H33   H     H_    0.160615 0.102071 0.719705 0.174996
H34   H     H_    0.259746 0.047924 0.676863 0.149358
C38   C     C_3   0.167299 0.060951 0.509792 -0.421757
H35   H     H_    0.129436 0.112070 0.459554 0.218654
H36   H     H_    0.218380 0.037265 0.436602 0.197022
C39   C     C_3   0.104408 0.988196 0.544269 -0.881909
H37   H     H_    0.137250 0.939749 0.607533 0.295364
H38   H     H_    0.083001 0.957676 0.448987 0.260087
H39   H     H_    0.045443 0.012698 0.600602 0.248718
O18   O     O_3   0.247106 0.819489 0.620810 -0.627946
C40   C     C_3   0.285036 0.815221 0.751166 0.071915
H40   H     H_    0.230402 0.800463 0.824352 0.153938
H41   H     H_    0.308244 0.878309 0.784011 0.156230
C41   C     C_3   0.354877 0.744616 0.767164 -0.364771
H42   H     H_    0.323805 0.681381 0.754640 0.197370
H43   H     H_    0.408821 0.750829 0.689919 0.215840
C42   C     C_3   0.395263 0.747993 0.907760 -0.904383
H44   H     H_    0.428954 0.809812 0.922720 0.259100
H45   H     H_    0.444515 0.696116 0.917478 0.253322
H46   H     H_    0.343423 0.739637 0.988059 0.244043
O19   O     O_3   0.752785 0.678496 0.622093 -0.606776
C43   C     C_3   0.713408 0.597535 0.644463 0.044147
H47   H     H_    0.662234 0.606245 0.725735 0.174475
H48   H     H_    0.761142 0.551059 0.685603 0.149920
C44   C     C_3   0.668618 0.560746 0.518151 -0.422287
H49   H     H_    0.631064 0.610909 0.464998 0.217662
H50   H     H_    0.719555 0.535176 0.446353 0.196727
C45   C     C_3   0.605398 0.489031 0.556894 -0.875842
H51   H     H_    0.637558 0.442655 0.624802 0.291745
H52   H     H_    0.584918 0.455514 0.463658 0.261716
H53   H     H_    0.545943 0.515202 0.609915 0.246898
O20   O     O_3   0.746320 0.320266 0.620310 -0.625904
C46   C     C_3   0.783799 0.316571 0.751001 0.070483
H54   H     H_    0.728858 0.302493 0.823987 0.153684
H55   H     H_    0.807227 0.379718 0.783111 0.155726
C47   C     C_3   0.853153 0.245689 0.768463 -0.363563
H56   H     H_    0.821735 0.182573 0.756488 0.197372
H57   H     H_    0.907369 0.251238 0.691539 0.216087
C48   C     C_3   0.893071 0.249500 0.909357 -0.904315
H58   H     H_    0.927165 0.311155 0.923804 0.259087
H59   H     H_    0.941903 0.197349 0.920155 0.253501
H60   H     H_    0.840903 0.241883 0.989341 0.243975
C49   C     C_3   0.587595 0.999667 0.908119 -0.110553
C50   C     C_3   0.670042 0.028293 0.828202 -0.738261
H61   H     H_    0.684944 0.992185 0.735007 0.264717
H62   H     H_    0.670181 0.098231 0.811799 0.237117
H63   H     H_    0.727920 0.016590 0.893145 0.176306
H64   H     H_    0.589969 0.048410 0.988912 0.162561
H65   H     H_    0.602921 0.933711 0.941029 0.143310
C51   C     C_3   0.087586 0.499706 0.908140 -0.110385
C52   C     C_3   0.170029 0.528340 0.828240 -0.739015
H66   H     H_    0.184899 0.492215 0.735071 0.264171
H67   H     H_    0.170173 0.598277 0.811813 0.237392
H68   H     H_    0.227911 0.516636 0.893173 0.176410
H69   H     H_    0.089935 0.548465 0.988913 0.162584
H70   H     H_    0.102933 0.433756 0.941060 0.143484
C53   C     C_3   0.337419 0.025836 0.138493 -0.326840
C54   C     C_3   0.312451 0.119363 0.121409 -0.821122
H71   H     H_    0.365026 0.161405 0.159675 0.266347
H72   H     H_    0.302473 0.134103 0.012379 0.245622
H73   H     H_    0.250145 0.132810 0.178760 0.227778
H74   H     H_    0.288087 0.986634 0.085032 0.144566
H75   H     H_    0.329599 0.005295 0.244613 0.243522
C55   C     C_3   0.837321 0.525398 0.138520 -0.326723
C56   C     C_3   0.811852 0.618733 0.120706 -0.822708
H76   H     H_    0.864421 0.661104 0.158051 0.266121
H77   H     H_    0.801404 0.633002 0.011635 0.244951
H78   H     H_    0.749699 0.632152 0.178475 0.228296
H79   H     H_    0.788201 0.485757 0.085408 0.144315
H80   H     H_    0.829602 0.505238 0.244837 0.244064

loop_
_geom_bond_atom_site_label_1
_geom_bond_atom_site_label_2
_ccdc_geom_bond_type
C30   H14   S    
C36   H28   S    
O17   C37   S    
C32   H19   S    
C32   H18   S    
C6    O10   A    
C19   C23   D    
C42   H44   S    
C49   H64   S    
C38   C39   S    
C38   H35   S    
Cu1   O1    S    
C43   H47   S    
C40   H41   S    
C31   H21   S    
C4    O4    A    
C53   H75   S    
Cu2   O3    S    
C35   H31   S    
C33   H26   S    
C20   H8    S    
C9    C13   D    
C30   H15   S    
C29   H16   S    
C22   O18   S    
C41   H42   S    
C15   H3    S    
Cu3   O13   S    
C31   H22   S    
C2    O2    A    
C38   H36   S    
C3    O7    A    
C9    C19   S    
C11   C17   S    
C20   C24   D    
C10   C20   S    
Cu2   O12   S    
C48   H60   S    
C51   H70   S    
C53   C54   S    
C56   H77   S    
H11   N3    S    
Cu4   O7    S    
C55   H80   S    
C30   H13   S    
C49   H65   S    
C1    C22   S    
Cu3   N3    S    
C4    O8    A    
C24   O20   S    
Cu4   N4    S    
Cu3   O14   S    
C3    C24   S    
C11   C15   D    
C34   H25   S    
C7    O11   A    
O18   C40   S    
C52   H67   S    
C52   H66   S    
Cu1   O2    S    
C44   H50   S    
C40   C41   S    
C12   C16   D    
Cu4   O16   S    
C34   H24   S    
C43   H48   S    
C2    O6    A    
C25   H9    S    
C4    C23   S    
C3    O3    A    
C35   C36   S    
C31   C32   S    
N2    C51   S    
C37   C38   S    
C29   H17   S    
C39   H39   S    
C17   C21   D    
Cu1   N1    S    
C47   H57   S    
C46   H55   S    
C13   H1    S    
C51   H69   S    
C1    O5    A    
C56   H76   S    
C54   H73   S    
Cu2   O11   S    
C2    C21   S    
C28   C55   S    
C56   H78   S    
C5    O13   A    
C42   H45   S    
C17   H5    S    
C53   H74   S    
Cu3   O5    S    
C37   H34   S    
C7    O15   A    
C5    C14   S    
C11   C33   S    
C55   H79   S    
C8    O16   A    
C7    C16   S    
C39   H38   S    
Cu1   O9    S    
C8    C15   S    
C36   H29   S    
C10   C14   D    
C55   C56   S    
C32   H20   S    
C47   C48   S    
C45   H52   S    
C46   H54   S    
C25   N1    D    
C33   H27   S    
C52   H68   S    
Cu1   O10   S    
C26   H10   S    
N1    C49   S    
C49   C50   S    
C44   C45   S    
C27   N3    D    
Cu2   O4    S    
C28   N4    D    
C27   C53   S    
C18   C22   D    
Cu2   N2    S    
Cu4   O15   S    
C54   H72   S    
C34   H23   S    
C50   H63   S    
C14   H2    S    
C44   H49   S    
C41   C42   S    
C50   H62   S    
C5    O9    A    
C25   C27   S    
C40   H40   S    
C26   C28   S    
C43   C44   S    
C12   C35   S    
C51   C52   S    
C6    O14   A    
C45   H53   S    
C47   H56   S    
C18   H6    S    
C46   C47   S    
Cu1   Cu3   S    
C35   H32   S    
C8    O12   A    
C6    C13   S    
Cu2   Cu4   S    
O19   C43   S    
C48   H58   S    
C21   O17   S    
O20   C46   S    
C39   H37   S    
C41   H43   S    
C42   H46   S    
Cu3   O6    S    
C37   H33   S    
C9    C29   S    
C50   H61   S    
C26   N2    D    
C23   O19   S    
C33   C34   S    
C54   H71   S    
C19   H7    S    
C29   C30   S    
C36   H30   S    
C12   C18   S    
C48   H59   S    
C45   H51   S    
C1    O1    A    
Cu4   O8    S    
C16   H4    S    
H12   N4    S    
C10   C31   S    
