data_mof_unit_39309.cif
_audit_creation_date              2012-12-10T19:24:55-0500
_audit_creation_method            fapswitch 2.2
_symmetry_space_group_name_H-M    P1
_symmetry_Int_Tables_number       1
_space_group_crystal_system       triclinic
_cell_length_a                    15.722121
_cell_length_b                    10.494312
_cell_length_c                    9.765849
_cell_angle_alpha                 89.615467
_cell_angle_beta                  89.843308
_cell_angle_gamma                 89.990405
_cell_volume                      1611.25286008

loop_
_atom_site_label
_atom_site_type_symbol
_atom_type_description
_atom_site_fract_x
_atom_site_fract_y
_atom_site_fract_z
_atom_type_partial_charge
C1    C     C_R   0.500035 0.257496 0.500512 0.856619
C2    C     C_R   0.499965 0.742504 0.499488 0.856618
C3    C     C_3   0.570006 0.957051 0.564210 -0.181292
C4    C     C_3   0.429994 0.042949 0.435790 -0.181292
C5    C     C_3   0.499972 0.877660 0.498395 0.031280
C6    C     C_3   0.500027 0.122340 0.501605 0.031280
C7    C     C_3   0.429982 0.957149 0.564849 -0.174442
C8    C     C_3   0.570017 0.042851 0.435151 -0.174441
C9    C     C_3   0.459437 0.402394 0.049527 -0.073156
C10   C     C_3   0.540562 0.597606 0.950473 -0.073156
C11   C     C_3   0.536101 0.398540 0.951884 -0.075095
C12   C     C_3   0.463899 0.601460 0.048116 -0.075096
C13   C     C_3   0.423264 0.503885 0.951840 -0.068620
C14   C     C_3   0.576736 0.496115 0.048159 -0.068620
C15   C     C_R   0.338099 0.500040 0.500148 0.891196
C16   C     C_R   0.661901 0.499960 0.499852 0.891196
C17   C     C_3   0.971182 0.384604 0.540621 -0.239037
C18   C     C_3   0.028818 0.615395 0.459379 -0.239036
C19   C     C_3   0.029279 0.409586 0.414296 -0.229663
C20   C     C_3   0.970721 0.590414 0.585704 -0.229663
C21   C     C_1   0.249203 0.500150 0.500625 -0.154093
C22   C     C_1   0.750797 0.499850 0.499375 -0.154093
C23   C     C_3   0.026292 0.475326 0.626576 0.030469
C24   C     C_3   0.973708 0.524674 0.373424 0.030469
C25   C     C_3   0.083036 0.499979 0.501884 0.127711
C26   C     C_3   0.916964 0.500021 0.498116 0.127711
C27   C     C_1   0.173917 0.500160 0.501251 0.014103
C28   C     C_1   0.826083 0.499840 0.498749 0.014103
C29   C     C_3   0.500018 0.039234 0.630833 -0.138806
C30   C     C_3   0.499982 0.960766 0.369167 -0.138807
H1    H     H_    0.054805 0.336282 0.343757 0.160183
H2    H     H_    0.945195 0.663718 0.656243 0.160183
H3    H     H_    0.946035 0.290642 0.574446 0.157429
H4    H     H_    0.053965 0.709358 0.425554 0.157428
H5    H     H_    0.626907 0.917193 0.616231 0.134860
H6    H     H_    0.373093 0.082807 0.383769 0.134860
H7    H     H_    0.500049 0.075228 0.737500 0.139497
H8    H     H_    0.499951 0.924772 0.262500 0.139497
H9    H     H_    0.373062 0.917383 0.617371 0.138524
H10   H     H_    0.626938 0.082616 0.382629 0.138524
H11   H     H_    0.566480 0.313073 0.906532 0.122600
H12   H     H_    0.433520 0.686927 0.093468 0.122600
H13   H     H_    0.425289 0.320187 0.096079 0.124323
H14   H     H_    0.574711 0.679813 0.903921 0.124323
H15   H     H_    0.358552 0.507135 0.906742 0.149643
H16   H     H_    0.641448 0.492865 0.093258 0.149643
N1    N     N_3   0.499940 0.500030 0.863290 -0.076228
N2    N     N_3   0.500060 0.499970 0.136710 -0.076228
O1    O     O_R   0.500000 0.313960 0.616610 -0.627049
O2    O     O_R   0.500000 0.686040 0.383390 -0.627048
O3    O     O_R   0.500040 0.313950 0.383350 -0.623424
O4    O     O_R   0.499960 0.686050 0.616650 -0.623424
O5    O     O_R   0.376760 0.499990 0.616610 -0.603311
O6    O     O_R   0.623240 0.500010 0.383390 -0.603311
O7    O     O_R   0.376790 0.499980 0.383350 -0.617140
O8    O     O_R   0.623210 0.500020 0.616650 -0.617140
Zn1   Zn    Zn3+2 0.499980 0.500010 0.655740 0.947667
Zn2   Zn    Zn3+2 0.500020 0.499990 0.344260 0.947667
C31   C     C_2   0.945477 0.552491 0.229867 0.916837
O9    O     O_2   0.998743 0.571978 0.140819 -0.597510
O10   O     O_R   0.858892 0.555972 0.198296 -0.812612
H17   H     H_    0.848146 0.575375 0.097984 0.348537
C32   C     C_2   0.054523 0.447509 0.770133 0.916837
O11   O     O_2   0.001257 0.428022 0.859181 -0.597510
O12   O     O_R   0.141108 0.444028 0.801704 -0.812613
H18   H     H_    0.151854 0.424625 0.902016 0.348537

loop_
_geom_bond_atom_site_label_1
_geom_bond_atom_site_label_2
_ccdc_geom_bond_type
C32   O12   S    
C7    C29   S    
C11   N1    S    
C12   N2    S    
C19   H1    S    
C4    H6    S    
C14   H16   S    
C17   C23   S    
C18   C24   S    
C17   C26   S    
C15   O5    A    
C24   C26   S    
C20   H2    S    
C11   C14   S    
O1    Zn1   S    
O8    Zn1   S    
C30   H8    S    
C3    C29   S    
C9    C13   S    
C12   H12   S    
C2    O2    A    
C23   C32   S    
C21   C27   T    
C31   O9    D    
C22   C28   T    
C18   C25   S    
C17   H3    S    
C4    C7    S    
C10   C12   S    
C31   O10   S    
C9    H13   S    
C10   H14   S    
C1    C6    S    
O2    Zn2   S    
C4    C6    S    
C3    C8    S    
C10   C14   S    
C5    C7    S    
O5    Zn1   S    
C6    C8    S    
C15   O7    A    
C16   O8    A    
N1    Zn1   S    
C18   H4    S    
C20   C23   S    
C3    H5    S    
O3    Zn2   S    
C1    O3    A    
C2    O4    A    
C9    C11   S    
C2    C5    S    
C13   N1    S    
C5    C30   S    
O6    Zn2   S    
C16   C22   S    
C3    C5    S    
C14   N2    S    
N2    Zn2   S    
C25   C27   S    
C26   C28   S    
C8    C30   S    
C19   C24   S    
C13   H15   S    
C20   C26   S    
C24   C31   S    
C17   C19   S    
C11   H11   S    
C18   C20   S    
C23   C25   S    
O10   H17   S    
C19   C25   S    
C16   O6    A    
O4    Zn1   S    
C32   O11   D    
C15   C21   S    
C6    C29   S    
C12   C13   S    
C9    N2    S    
O12   H18   S    
O7    Zn2   S    
C29   H7    S    
C10   N1    S    
C7    H9    S    
C8    H10   S    
C1    O1    A    
C4    C30   S    
