data_mof_unit_39761.cif
_audit_creation_date              2013-03-05T15:48:38-0500
_audit_creation_method            fapswitch 2.2
_symmetry_space_group_name_H-M    P1
_symmetry_Int_Tables_number       1
_space_group_crystal_system       triclinic
_cell_length_a                    10.210601
_cell_length_b                    10.640522
_cell_length_c                    23.037228
_cell_angle_alpha                 92.684037
_cell_angle_beta                  80.741661
_cell_angle_gamma                 96.749361
_cell_volume                      2452.18484086

loop_
_atom_site_label
_atom_site_type_symbol
_atom_site_description
_atom_site_fract_x
_atom_site_fract_y
_atom_site_fract_z
_atom_type_partial_charge
O1    O     O_R   0.431060 0.692470 0.504730 -0.600329
O2    O     O_R   0.568940 0.307530 0.495270 -0.616372
O3    O     O_R   0.651120 0.659650 0.489640 -0.529828
O4    O     O_R   0.348880 0.340350 0.510360 -0.543964
C1    C     C_R   0.556970 0.733788 0.492445 0.850535
C2    C     C_R   0.442986 0.266140 0.501913 0.887105
O5    O     O_R   0.389950 0.516450 0.591390 -0.554232
O6    O     O_R   0.610050 0.483550 0.408610 -0.578782
O7    O     O_R   0.610020 0.483630 0.576300 -0.582334
O8    O     O_R   0.389980 0.516370 0.423700 -0.563594
C3    C     C_R   0.499922 0.502580 0.610985 1.051455
C4    C     C_R   0.503022 0.503725 0.388830 0.957407
Zn1   Zn    Zn3+2 0.353060 0.521920 0.510080 1.184224
Zn2   Zn    Zn3+2 0.646940 0.478080 0.489920 1.170677
C5    C     C_R   0.638798 0.420122 0.112709 0.686182
C6    C     C_R   0.621394 0.598628 0.867656 0.655762
N1    N     N_R   0.628087 0.535993 0.140026 -0.308527
N2    N     N_R   0.569109 0.484115 0.846313 -0.322975
C7    C     C_R   0.640447 0.643800 0.108560 0.737112
C8    C     C_R   0.589087 0.376571 0.873188 0.662089
C9    C     C_R   0.661974 0.636747 0.046538 -0.176386
C10   C     C_R   0.606264 0.381238 0.932819 -0.155807
C11   C     C_R   0.644071 0.515253 0.019342 -0.050188
C12   C     C_R   0.631238 0.502537 0.959439 -0.048489
C13   C     C_R   0.637126 0.406410 0.052316 -0.090927
C14   C     C_R   0.645497 0.611509 0.925843 -0.089069
C15   C     C_R   0.693881 0.744502 0.010763 0.437346
C16   C     C_R   0.598877 0.271292 0.966990 0.441853
C17   C     C_R   0.682850 0.730569 0.950917 -0.137800
C18   C     C_R   0.619345 0.286317 0.025568 -0.150670
O9    O     O_2   0.643086 0.317875 0.144655 -0.491257
O10   O     O_2   0.653506 0.698804 0.832349 -0.467142
O11   O     O_2   0.623483 0.754950 0.137474 -0.411826
O12   O     O_2   0.603523 0.268807 0.841440 -0.403500
H1    H     H_    0.702125 0.813393 0.923977 0.253822
H2    H     H_    0.612399 0.203440 0.051737 0.240755
C19   C     C_R   0.493652 0.368128 0.758214 0.369311
C20   C     C_R   0.676181 0.601730 0.239421 0.356784
C21   C     C_R   0.516446 0.381119 0.697607 0.151285
C22   C     C_R   0.632631 0.605596 0.300320 0.146363
C23   C     C_R   0.496203 0.496490 0.674520 -0.367090
C24   C     C_R   0.520221 0.523377 0.325142 -0.375888
C25   C     C_R   0.456806 0.597806 0.713396 0.182478
C26   C     C_R   0.440632 0.451923 0.287823 0.210509
C27   C     C_R   0.452361 0.584005 0.774706 0.386955
C28   C     C_R   0.463609 0.478509 0.227437 0.331990
C29   C     C_R   0.505423 0.478524 0.793461 -0.065317
C30   C     C_R   0.588833 0.541058 0.202692 -0.052032
H3    H     H_    0.581485 0.112870 0.435847 0.216281
H4    H     H_    0.390528 0.876931 0.463080 0.227650
C31   C     C_2   0.589149 0.867740 0.477931 0.275980
C32   C     C_2   0.408994 0.130207 0.498486 0.302408
C33   C     C_2   0.488399 0.927654 0.465204 -0.165227
C34   C     C_2   0.496044 0.064027 0.463284 -0.215562
N3    N     N_2   0.842710 0.448880 0.476480 -0.052936
N4    N     N_2   0.157290 0.551120 0.523520 -0.053096
C35   C     C_2   0.921633 0.495442 0.513679 0.302598
C36   C     C_2   0.063271 0.467615 0.508301 0.277710
S1    S     S_3+6 0.768063 0.892013 0.036317 0.132808
O13   O     O_2   0.875398 0.867911 0.070737 -0.228524
O14   O     O_2   0.829418 0.974108 0.985446 -0.232821
O15   O     O_3   0.653025 0.968628 0.080071 -0.433157
H5    H     H_    0.704986 0.034214 0.101663 0.409753
S2    S     S_3+6 0.547497 0.114640 0.942463 0.139424
O16   O     O_2   0.656625 0.067635 0.897933 -0.168599
O17   O     O_2   0.516274 0.026235 0.993020 -0.249743
O18   O     O_3   0.408680 0.114163 0.912060 -0.450354
H6    H     H_    0.375375 0.023602 0.907397 0.408486
N5    N     N_R   0.132808 0.676709 0.523560 0.288708
O19   O     O_R   0.124331 0.743423 0.572449 -0.203464
O20   O     O_R   0.141061 0.732624 0.473883 -0.332825
N6    N     N_R   0.900895 0.414845 0.419952 0.310651
O21   O     O_R   0.836941 0.327773 0.390421 -0.257065
O22   O     O_R   0.997973 0.489503 0.391582 -0.264247
S3    S     S_3+6 0.367893 0.244879 0.783898 0.172078
O23   O     O_2   0.303916 0.275706 0.845552 -0.208447
O24   O     O_2   0.262638 0.231350 0.744567 -0.217976
O25   O     O_3   0.434311 0.107327 0.782030 -0.373316
H7    H     H_    0.358160 0.044422 0.796708 0.415317
S4    S     S_3+6 0.840734 0.669592 0.210737 0.171307
O26   O     O_2   0.839926 0.809818 0.205746 -0.155089
O27   O     O_2   0.935907 0.647076 0.251591 -0.145661
O28   O     O_3   0.896007 0.606204 0.144313 -0.550291
H8    H     H_    0.980193 0.659443 0.129802 0.410874
N7    N     N_R   0.541892 0.271622 0.660684 0.257456
O29   O     O_R   0.629867 0.200388 0.671486 -0.222331
O30   O     O_R   0.459966 0.229184 0.624863 -0.337943
N8    N     N_R   0.700750 0.695300 0.336881 0.223597
O31   O     O_R   0.795374 0.663013 0.362827 -0.248135
O32   O     O_R   0.682360 0.814110 0.336524 -0.312574
S5    S     S_3+6 0.423355 0.741519 0.684804 0.176604
O33   O     O_2   0.282734 0.725760 0.671822 -0.135896
O34   O     O_2   0.439238 0.851269 0.727328 -0.158648
O35   O     O_3   0.528517 0.776028 0.622303 -0.533152
H9    H     H_    0.618078 0.791993 0.634245 0.395500
S6    S     S_3+6 0.332908 0.315205 0.313059 0.182934
O36   O     O_2   0.194086 0.350806 0.331227 -0.092658
O37   O     O_2   0.330506 0.214973 0.264958 -0.158501
O38   O     O_3   0.383710 0.253040 0.370243 -0.542753
H10   H     H_    0.471988 0.225326 0.354173 0.348207
S7    S     S_3+6 0.349119 0.670615 0.828074 0.125516
O39   O     O_2   0.420066 0.797831 0.841703 -0.225263
O40   O     O_2   0.223105 0.689092 0.805206 -0.197729
O41   O     O_3   0.308438 0.588874 0.890405 -0.531868
H11   H     H_    0.259581 0.645941 0.919062 0.394525
S8    S     S_3+6 0.336367 0.439049 0.182654 0.133997
O42   O     O_2   0.349763 0.310395 0.153969 -0.216230
O43   O     O_2   0.200379 0.438693 0.219104 -0.142343
O44   O     O_3   0.350309 0.546215 0.129986 -0.553391
H12   H     H_    0.293010 0.507412 0.101611 0.394240
S9    S     S_3+6 0.267647 0.059043 0.545380 0.170468
O45   O     O_2   0.167369 0.998917 0.508503 -0.200679
O46   O     O_2   0.310018 0.959717 0.580497 -0.169897
O47   O     O_3   0.197689 0.167797 0.591876 -0.450448
H13   H     H_    0.122597 0.119463 0.617066 0.425457
S10   S     S_3+6 0.752351 0.946517 0.479058 0.157746
O48   O     O_2   0.795794 0.023223 0.424735 -0.208369
O49   O     O_2   0.750089 0.033571 0.532402 -0.181747
O50   O     O_3   0.862966 0.842469 0.481211 -0.427481
H14   H     H_    0.949997 0.885989 0.463137 0.437661
N9    N     N_R   0.087325 0.338619 0.496104 0.213740
O51   O     O_R   0.007204 0.249748 0.524395 -0.277499
O52   O     O_R   0.158832 0.309035 0.446714 -0.235196
N10   N     N_R   0.867552 0.555595 0.567748 0.210577
O53   O     O_R   0.888095 0.514438 0.617461 -0.321148
O54   O     O_R   0.824198 0.665421 0.567186 -0.287660

loop_
_geom_bond_atom_site_label_1
_geom_bond_atom_site_label_2
_geom_bond_distance
_ccdc_geom_bond_type
S7    O39   1.502857 D    
C15   C17   1.400816 A    
S9    O45   1.501487 D    
N1    C30   1.435011 S    
O7    Zn2   1.964270 S    
N2    C29   1.465519 S    
O47   H13   0.990579 S    
C21   C23   1.410237 A    
N7    O29   1.301138 A    
O5    C3    1.301805 A    
S8    O43   1.502323 D    
O1    C1    1.299194 A    
C7    C9    1.410037 A    
C12   C14   1.404570 A    
C5    C13   1.394731 A    
S8    O42   1.503199 D    
H3    C34   1.085120 S    
S6    O38   1.680541 S    
S10   O48   1.503666 D    
C27   C29   1.415492 A    
O4    Zn1   1.927741 S    
N5    O20   1.300662 A    
C4    C24   1.471195 S    
O38   H10   0.990640 S    
C26   C28   1.409447 A    
S1    O15   1.681500 S    
S6    O37   1.502621 D    
C11   C12   1.405847 A    
C19   C29   1.400903 A    
C20   C30   1.408723 A    
N3    N6    1.391921 S    
N6    O21   1.299744 A    
Zn1   N4    2.031244 S    
C8    O12   1.340893 S    
C22   C24   1.417528 A    
Zn2   N3    2.031242 S    
C9    C15   1.419270 A    
S1    O13   1.503464 D    
S7    O40   1.503005 D    
C10   C16   1.428425 A    
C23   C25   1.421859 A    
O2    C2    1.296609 A    
C24   C26   1.412792 A    
S4    O28   1.682251 S    
O41   H11   0.990504 S    
C32   C34   1.343601 D    
N7    O30   1.297338 A    
C6    C14   1.399014 A    
C28   C30   1.415542 A    
S1    O14   1.503323 D    
H4    C33   1.085730 S    
O18   H6    0.990337 S    
S2    O18   1.678386 S    
N6    O22   1.302236 A    
C7    O11   1.345256 S    
S5    O33   1.502004 D    
O25   H7    0.990559 S    
C27   S7    1.782503 S    
C32   S9    1.772409 S    
C33   C34   1.446359 S    
C25   S5    1.782805 S    
C31   C33   1.348837 D    
S2    O17   1.501882 D    
S3    O23   1.503275 D    
O15   H5    0.990611 S    
C26   S6    1.778051 S    
S5    O34   1.499729 D    
O7    C3    1.300782 A    
O28   H8    0.991141 S    
O6    C4    1.293252 A    
S6    O36   1.499444 D    
O35   H9    0.990381 S    
S9    O46   1.502929 D    
C6    N2    1.373646 A    
S3    O24   1.503825 D    
N9    O51   1.300991 A    
O3    Zn2   1.927740 S    
O8    C4    1.312889 A    
S10   O49   1.502676 D    
C16   S2    1.781724 S    
O4    C2    1.299413 A    
N8    O32   1.300306 A    
S7    O41   1.682565 S    
N3    C35   1.310662 D    
C10   C12   1.416259 A    
O1    Zn1   1.895365 S    
C21   N7    1.433769 S    
N10   O54   1.298703 A    
C13   C18   1.397594 A    
C5    N1    1.365643 A    
C36   N9    1.429744 S    
O6    Zn2   1.973925 S    
C8    C10   1.410488 A    
S4    O26   1.502948 D    
O3    C1    1.305425 A    
O8    Zn1   1.964272 S    
O50   H14   0.989822 S    
C5    O9    1.350474 S    
C6    O10   1.348522 S    
C17   H1    1.082479 S    
C31   S10   1.778680 S    
S10   O50   1.679558 S    
C18   H2    1.080496 S    
S2    O16   1.503074 D    
C22   N8    1.435751 S    
C9    C11   1.415149 A    
C25   C27   1.419790 A    
C15   S1    1.778033 S    
O44   H12   0.990497 S    
S5    O35   1.679391 S    
C20   C22   1.402098 A    
C35   C36   1.494686 S    
C20   S4    1.784185 S    
C28   S8    1.786358 S    
C16   C18   1.397513 A    
N1    C7    1.368100 A    
S4    O27   1.502540 D    
N4    C36   1.308676 D    
C3    C23   1.462341 S    
S9    O47   1.681874 S    
N2    C8    1.377041 A    
C11   C13   1.403254 A    
C19   S3    1.775155 S    
N5    O19   1.299245 A    
O2    Zn2   1.895366 S    
S3    O25   1.679875 S    
N9    O52   1.296129 A    
O5    Zn1   1.973924 S    
N8    O31   1.300705 A    
C14   C17   1.404583 A    
C19   C21   1.388765 A    
N4    N5    1.388024 S    
C1    C31   1.466456 S    
C2    C32   1.448752 S    
N10   O53   1.301233 A    
C35   N10   1.432911 S    
S8    O44   1.681836 S    
