data_mof_unit_36950.cif
_audit_creation_date              2013-03-05T16:53:11-0500
_audit_creation_method            fapswitch 2.2
_symmetry_space_group_name_H-M    P1
_symmetry_Int_Tables_number       1
_space_group_crystal_system       triclinic
_cell_length_a                    10.710449
_cell_length_b                    15.820761
_cell_length_c                    15.08858
_cell_angle_alpha                 90.389166
_cell_angle_beta                  90.395216
_cell_angle_gamma                 87.954836
_cell_volume                      2554.97724808

loop_
_atom_site_label
_atom_site_type_symbol
_atom_site_description
_atom_site_fract_x
_atom_site_fract_y
_atom_site_fract_z
_atom_type_partial_charge
O1    O     O_R   0.500000 0.378020 0.573650 -0.656964
O2    O     O_R   0.500000 0.621980 0.426350 -0.657025
O3    O     O_R   0.500060 0.378020 0.426320 -0.539821
O4    O     O_R   0.499940 0.621980 0.573680 -0.540417
C1    C     C_R   0.500538 0.338874 0.499638 0.878455
C2    C     C_R   0.499558 0.661126 0.500355 0.878474
O5    O     O_R   0.316730 0.500010 0.573660 -0.602325
O6    O     O_R   0.683270 0.499990 0.426340 -0.603194
O7    O     O_R   0.316790 0.500010 0.426330 -0.589759
O8    O     O_R   0.683210 0.499990 0.573670 -0.595947
C3    C     C_R   0.259851 0.502073 0.499556 0.898955
C4    C     C_R   0.740151 0.497998 0.500377 0.896089
Zn1   Zn    Zn3+2 0.499960 0.500000 0.598370 1.061400
Zn2   Zn    Zn3+2 0.500040 0.500000 0.401630 1.059141
C5    C     C_R   0.170707 0.793122 0.438929 0.146755
C6    C     C_R   0.828710 0.207731 0.570577 0.146648
C7    C     C_R   0.139436 0.715737 0.477825 0.099830
C8    C     C_R   0.861448 0.282965 0.527801 0.102817
C9    C     C_R   0.124540 0.642954 0.424037 -0.188065
C10   C     C_R   0.875893 0.358126 0.577852 -0.192542
C11   C     C_R   0.153214 0.645574 0.332201 0.253972
C12   C     C_R   0.844105 0.360365 0.669162 0.256309
C13   C     C_R   0.189108 0.722427 0.296063 -0.347142
C14   C     C_R   0.806819 0.285713 0.709156 -0.348413
H1    H     H_    0.209602 0.725788 0.226114 0.230579
H2    H     H_    0.785521 0.285975 0.779115 0.226750
C15   C     C_R   0.195394 0.796287 0.347194 0.180604
C16   C     C_R   0.801670 0.209391 0.662107 0.184664
C17   C     C_R   0.929194 0.570677 0.465062 0.062386
C18   C     C_R   0.070821 0.428899 0.533659 0.070831
C19   C     C_R   0.872261 0.499940 0.501250 -0.052123
C20   C     C_R   0.127738 0.499932 0.498214 -0.042557
C21   C     C_R   0.940403 0.429999 0.536521 0.108453
C22   C     C_R   0.059628 0.569644 0.462323 0.105039
H3    H     H_    0.441398 0.084693 0.632933 0.190589
H4    H     H_    0.562410 0.915141 0.367243 0.187235
C23   C     C_R   0.479756 0.959447 0.581782 0.397834
C24   C     C_R   0.524617 0.040407 0.418519 0.402822
C25   C     C_R   0.513979 0.912949 0.505263 -0.023135
C26   C     C_R   0.489785 0.086874 0.494934 -0.022164
C27   C     C_R   0.538150 0.952854 0.425353 -0.209830
C28   C     C_R   0.465955 0.046972 0.574886 -0.209077
C29   C     C_1   0.511063 0.823973 0.503653 0.087957
C30   C     C_1   0.491330 0.175904 0.496381 0.091837
C31   C     C_1   0.495528 0.250650 0.498363 -0.119845
C32   C     C_1   0.505675 0.749290 0.501618 -0.121208
C33   C     C_R   0.535694 0.424609 0.953046 -0.007435
C34   C     C_R   0.458408 0.573152 0.046976 -0.014476
C35   C     C_R   0.500474 0.498812 0.905090 -0.115002
C36   C     C_R   0.495869 0.499555 0.094957 -0.118794
C37   C     C_R   0.462190 0.572568 0.952530 0.283148
C38   C     C_R   0.534116 0.425707 0.047641 0.283407
C39   C     C_1   0.499928 0.499624 0.806986 0.260650
C40   C     C_1   0.498489 0.499727 0.193030 0.242960
N1    N     N_1   0.499960 0.500020 0.270550 -0.072324
N2    N     N_1   0.500040 0.499980 0.729450 -0.069848
N3    N     N_R   0.225968 0.873911 0.304360 0.249576
O9    O     O_R   0.286751 0.931629 0.346420 -0.342423
O10   O     O_R   0.200097 0.885042 0.220751 -0.320394
N4    N     N_R   0.769424 0.134234 0.708766 0.249121
O11   O     O_R   0.705449 0.076098 0.670014 -0.343387
O12   O     O_R   0.796120 0.126367 0.792651 -0.324790
C41   C     C_3   0.570266 0.342852 0.903929 -0.349013
C42   C     C_3   0.461595 0.282449 0.904017 -0.390784
C43   C     C_3   0.492883 0.202552 0.850115 -0.701066
H5    H     H_    0.514140 0.218846 0.780432 0.241926
H6    H     H_    0.574614 0.167772 0.879759 0.313108
H7    H     H_    0.411919 0.160637 0.850164 0.274853
H8    H     H_    0.439697 0.264054 0.972930 0.287693
H9    H     H_    0.377339 0.314965 0.875090 0.228188
H10   H     H_    0.595326 0.355161 0.834192 0.206535
H11   H     H_    0.654886 0.311896 0.933813 0.266021
C44   C     C_3   0.418880 0.653689 0.096368 -0.344828
C45   C     C_3   0.529414 0.711555 0.108292 -0.389420
C46   C     C_3   0.492841 0.789780 0.163340 -0.721606
H12   H     H_    0.414979 0.826068 0.130605 0.311657
H13   H     H_    0.463713 0.771150 0.230786 0.241562
H14   H     H_    0.573942 0.831232 0.169714 0.272963
H15   H     H_    0.607300 0.676255 0.142209 0.227210
H16   H     H_    0.562655 0.731950 0.042458 0.285591
H17   H     H_    0.341308 0.687758 0.061059 0.266531
H18   H     H_    0.380904 0.638762 0.162419 0.210746
N5    N     N_R   0.168744 0.869090 0.491621 0.256846
O13   O     O_R   0.098472 0.933939 0.467917 -0.234648
O14   O     O_R   0.224150 0.870162 0.568556 -0.300188
N6    N     N_R   0.831238 0.129117 0.522311 0.256789
O15   O     O_R   0.898409 0.064844 0.551357 -0.235280
O16   O     O_R   0.778475 0.124234 0.444660 -0.306626
N7    N     N_R   0.108544 0.713208 0.570352 0.253626
O17   O     O_R   0.162943 0.657414 0.621958 -0.309563
O18   O     O_R   0.022722 0.764692 0.602669 -0.259974
N8    N     N_R   0.892254 0.281391 0.435150 0.252053
O19   O     O_R   0.840644 0.336586 0.381519 -0.313437
O20   O     O_R   0.976206 0.227381 0.404819 -0.260918
N9    N     N_R   0.138782 0.573785 0.273126 0.218490
O21   O     O_R   0.115352 0.498966 0.302523 -0.330432
O22   O     O_R   0.147033 0.583278 0.187760 -0.377913
N10   N     N_R   0.854496 0.435593 0.723717 0.234032
O23   O     O_R   0.922068 0.498232 0.700132 -0.333027
O24   O     O_R   0.802155 0.439646 0.801274 -0.387420
C47   C     C_3   0.851556 0.649713 0.437476 -0.384608
C48   C     C_3   0.825151 0.653169 0.337386 -0.316679
C49   C     C_3   0.763730 0.738085 0.311605 -0.824701
H19   H     H_    0.669521 0.745473 0.341506 0.253381
H20   H     H_    0.821953 0.791013 0.333975 0.291833
H21   H     H_    0.754426 0.741386 0.238489 0.264873
H22   H     H_    0.912656 0.644563 0.299614 0.257997
H23   H     H_    0.762939 0.601858 0.317052 0.256532
H24   H     H_    0.761689 0.654289 0.473458 0.192096
H25   H     H_    0.898696 0.707644 0.458589 0.235859
C50   C     C_3   0.148659 0.350157 0.561845 -0.386637
C51   C     C_3   0.173353 0.346675 0.662130 -0.307986
C52   C     C_3   0.241378 0.263858 0.687536 -0.834761
H26   H     H_    0.188492 0.208869 0.663766 0.292170
H27   H     H_    0.336507 0.260576 0.658728 0.254538
H28   H     H_    0.249420 0.260035 0.760665 0.263423
H29   H     H_    0.230398 0.400317 0.683706 0.259464
H30   H     H_    0.084605 0.351176 0.699000 0.253131
H31   H     H_    0.102498 0.292012 0.540358 0.236888
H32   H     H_    0.239120 0.346026 0.526604 0.191731
N11   N     N_R   0.459293 0.919611 0.665953 0.262354
O25   O     O_R   0.392717 0.958649 0.726502 -0.291942
O26   O     O_R   0.515946 0.848073 0.685965 -0.272678
N12   N     N_R   0.546074 0.080306 0.334532 0.259514
O27   O     O_R   0.613963 0.041501 0.274550 -0.293135
O28   O     O_R   0.489248 0.151669 0.314091 -0.274020
N13   N     N_R   0.572277 0.351327 0.096163 0.202839
O29   O     O_R   0.689083 0.325822 0.096914 -0.298728
O30   O     O_R   0.494387 0.316391 0.149323 -0.299822
N14   N     N_R   0.426476 0.647495 0.904257 0.202084
O31   O     O_R   0.508601 0.685042 0.856731 -0.294587
O32   O     O_R   0.308988 0.670217 0.896704 -0.295567

loop_
_geom_bond_atom_site_label_1
_geom_bond_atom_site_label_2
_geom_bond_distance
_ccdc_geom_bond_type
C6    C16   1.412920 A    
C51   H30   1.104529 S    
C47   C48   1.535521 S    
C12   N10   1.449598 S    
C44   C45   1.531081 S    
N9    O21   1.300277 A    
O7    Zn2   2.000279 S    
C33   C35   1.421339 A    
O5    C3    1.269670 A    
C36   C40   1.479848 S    
O1    C1    1.273228 A    
C50   H31   1.105416 S    
C9    C11   1.422560 A    
C14   H2    1.081443 S    
C33   C41   1.521830 S    
C51   H29   1.109062 S    
N6    O16   1.300313 A    
N3    O10   1.301533 A    
C47   H24   1.108214 S    
O4    Zn1   1.967920 S    
N4    O12   1.301478 A    
C23   C28   1.391840 A    
H3    C28   1.085026 S    
C37   N14   1.434409 S    
C34   C37   1.425869 A    
C50   C51   1.535312 S    
C35   C37   1.414441 A    
C36   C38   1.414579 A    
C19   C21   1.408989 A    
C48   H23   1.108834 S    
C42   H9    1.110848 S    
N7    O18   1.301340 A    
Zn1   N2    1.977809 S    
C34   C36   1.419485 A    
Zn2   N1    1.977809 S    
C45   H16   1.111313 S    
C6    N6    1.436503 S    
H4    C27   1.085014 S    
O2    C2    1.273149 A    
C44   H17   1.109258 S    
C51   C52   1.526207 S    
C46   H14   1.110172 S    
C38   N13   1.435628 S    
C16   N4    1.439714 S    
C23   C25   1.408392 A    
C45   C46   1.526724 S    
C18   C20   1.407876 A    
C7    N7    1.438134 S    
C24   C27   1.392008 A    
O4    C2    1.271486 A    
C15   N3    1.440660 S    
N6    O15   1.301195 A    
C5    N5    1.436146 S    
C11   N9    1.450954 S    
C43   H6    1.110255 S    
C47   H25   1.106002 S    
C1    C31   1.398711 S    
C17   C22   1.397408 A    
C9    C22   1.494815 S    
N4    O11   1.299808 A    
C20   C22   1.409620 A    
N14   O32   1.300756 A    
C46   H12   1.110403 S    
N13   O30   1.301147 A    
O7    C3    1.265352 A    
C5    C15   1.412523 A    
N5    O13   1.301204 A    
C26   C30   1.409226 S    
O6    C4    1.268778 A    
C43   H7    1.110291 S    
N8    O20   1.301387 A    
C17   C47   1.535027 S    
C48   H22   1.104058 S    
C49   H20   1.111074 S    
C42   H8    1.110507 S    
C46   H13   1.111247 S    
N11   O25   1.301716 A    
O3    Zn2   1.967922 S    
O8    C4    1.266246 A    
C23   N11   1.443177 S    
C10   C21   1.493631 S    
N5    O14   1.300360 A    
C10   C12   1.421376 A    
C3    C20   1.416608 S    
C43   H5    1.111291 S    
C13   C15   1.399227 A    
C45   H15   1.111037 S    
C11   C13   1.403103 A    
C4    C19   1.416353 S    
C12   C14   1.401848 A    
O1    Zn1   1.963029 S    
N13   O29   1.300727 A    
C44   H18   1.109097 S    
C30   C31   1.185170 T    
N12   O28   1.301292 A    
C52   H26   1.111048 S    
C39   N2    1.169968 T    
C5    C7    1.413234 A    
C40   N1    1.169638 T    
O6    Zn2   1.995046 S    
C2    C32   1.398702 S    
C18   C21   1.397288 A    
C34   C44   1.520227 S    
C14   C16   1.399120 A    
C41   H10   1.107963 S    
O3    C1    1.271383 A    
O8    Zn1   2.000280 S    
C25   C29   1.409170 S    
N9    O22   1.301766 A    
C33   C38   1.427510 A    
N10   O24   1.301258 A    
C18   C50   1.534924 S    
C8    N8    1.438440 S    
C42   C43   1.526798 S    
C52   H28   1.108078 S    
N14   O31   1.300980 A    
C17   C19   1.408548 A    
C24   C26   1.408500 A    
N3    O9    1.299719 A    
C35   C39   1.480365 S    
C26   C28   1.394655 A    
N8    O19   1.300721 A    
C7    C9    1.417270 A    
C49   H21   1.108441 S    
C8    C10   1.416869 A    
C13   H1    1.081548 S    
C48   C49   1.526227 S    
O2    Zn2   1.963028 S    
C29   C32   1.185181 T    
N11   O26   1.301306 A    
C41   C42   1.532096 S    
O5    Zn1   1.995045 S    
C41   H11   1.109169 S    
C25   C27   1.394887 A    
C6    C8    1.414078 A    
N10   O23   1.300772 A    
C49   H19   1.110173 S    
C50   H32   1.108084 S    
N7    O17   1.300502 A    
C24   N12   1.443046 S    
N12   O27   1.301688 A    
C52   H27   1.109854 S    
