data_mof_unit_55588.cif
_audit_creation_date              2013-03-05T16:06:23-0500
_audit_creation_method            fapswitch 2.2
_symmetry_space_group_name_H-M    P1
_symmetry_Int_Tables_number       1
_space_group_crystal_system       triclinic
_cell_length_a                    7.222858
_cell_length_b                    25.828434
_cell_length_c                    28.888485
_cell_angle_alpha                 90.001546
_cell_angle_beta                  89.372497
_cell_angle_gamma                 90.371304
_cell_volume                      5388.85815659

loop_
_atom_site_label
_atom_site_type_symbol
_atom_site_description
_atom_site_fract_x
_atom_site_fract_y
_atom_site_fract_z
_atom_type_partial_charge
O1    O     O_R   0.601030 0.796770 0.202460 -0.588225
O2    O     O_R   0.398970 0.203230 0.797540 -0.580649
O3    O     O_R   0.398970 0.203230 0.702460 -0.585349
O4    O     O_R   0.601030 0.796770 0.297540 -0.581965
O5    O     O_R   0.101030 0.703230 0.297540 -0.586219
O6    O     O_R   0.898970 0.296770 0.702460 -0.579080
O7    O     O_R   0.898970 0.296770 0.797540 -0.586948
O8    O     O_R   0.101030 0.703230 0.202460 -0.579870
O9    O     O_R   0.271290 0.802910 0.297210 -0.570099
O10   O     O_R   0.728710 0.197090 0.702790 -0.568271
O11   O     O_R   0.728710 0.197090 0.797210 -0.580553
O12   O     O_R   0.271290 0.802910 0.202790 -0.567246
O13   O     O_R   0.771290 0.697090 0.202790 -0.581608
O14   O     O_R   0.228710 0.302910 0.797210 -0.568438
O15   O     O_R   0.228710 0.302910 0.702790 -0.582934
O16   O     O_R   0.771290 0.697090 0.297210 -0.567653
C1    C     C_R   0.439627 0.816072 0.311655 0.991925
C2    C     C_R   0.559979 0.183853 0.688054 0.999634
C3    C     C_R   0.558980 0.184497 0.812087 0.999554
C4    C     C_R   0.441259 0.815936 0.188098 0.992083
C5    C     C_R   0.940119 0.684356 0.188034 0.999358
C6    C     C_R   0.059525 0.316118 0.811886 0.998671
C7    C     C_R   0.061097 0.315562 0.687900 0.999776
C8    C     C_R   0.939364 0.683707 0.311793 0.996714
O17   O     O_3   0.434520 0.717290 0.250000 -0.258230
O18   O     O_3   0.565480 0.282710 0.750000 -0.259329
O19   O     O_3   0.934520 0.782710 0.250000 -0.260557
O20   O     O_3   0.065480 0.217290 0.750000 -0.259577
V1    V     V_3+5 0.159680 0.756060 0.250000 1.275431
V2    V     V_3+5 0.840320 0.243940 0.750000 1.272304
V3    V     V_3+5 0.659680 0.743940 0.250000 1.273903
V4    V     V_3+5 0.340320 0.256060 0.750000 1.273525
C9    C     C_R   0.974976 0.339516 0.608164 -0.227339
C10   C     C_R   0.800097 0.638846 0.380686 -0.109027
C11   C     C_R   0.032964 0.659471 0.108551 -0.225980
C12   C     C_R   0.194975 0.359525 0.880989 -0.109389
C13   C     C_R   0.472923 0.160150 0.892347 -0.233609
C14   C     C_R   0.330623 0.850468 0.113215 -0.157724
C15   C     C_R   0.501768 0.838946 0.393223 -0.228512
C16   C     C_R   0.699440 0.139427 0.619209 -0.108316
H1    H     H_    0.925981 0.300150 0.603350 0.120404
H2    H     H_    0.680343 0.663662 0.378080 0.148869
H3    H     H_    0.084639 0.698580 0.103522 0.122014
H4    H     H_    0.314087 0.334438 0.877927 0.148603
H5    H     H_    0.433698 0.200058 0.898269 0.120700
H6    H     H_    0.228209 0.819632 0.112697 0.130344
H7    H     H_    0.529891 0.798429 0.399662 0.120648
H8    H     H_    0.819868 0.164367 0.622164 0.149429
C17   C     C_R   0.963188 0.374369 0.571348 -0.058432
C18   C     C_R   0.807061 0.603586 0.417386 -0.157268
C19   C     C_R   0.044506 0.624418 0.071833 -0.058538
C20   C     C_R   0.187472 0.394399 0.917930 -0.154126
C21   C     C_R   0.455988 0.124738 0.928802 -0.059559
C22   C     C_R   0.342830 0.884081 0.075424 -0.127157
C23   C     C_R   0.518250 0.874290 0.429645 -0.067291
C24   C     C_R   0.693324 0.104146 0.582485 -0.153021
H9    H     H_    0.910521 0.360468 0.538756 0.111829
H10   H     H_    0.692358 0.601513 0.441704 0.139589
H11   H     H_    0.099874 0.637945 0.039101 0.114399
H12   H     H_    0.301161 0.395939 0.941951 0.136594
H13   H     H_    0.409641 0.138703 0.962222 0.116849
H14   H     H_    0.253703 0.877505 0.046348 0.111099
H15   H     H_    0.554798 0.860127 0.463570 0.107623
H16   H     H_    0.809230 0.102236 0.558531 0.138375
C25   C     C_R   0.021123 0.426063 0.576307 0.144066
C26   C     C_R   0.962926 0.572403 0.423549 0.120051
C27   C     C_R   0.982332 0.573091 0.077048 0.145911
C28   C     C_R   0.032756 0.426057 0.924596 0.120868
C29   C     C_R   0.502400 0.072462 0.922460 0.147270
C30   C     C_R   0.473421 0.924331 0.074453 0.170657
C31   C     C_R   0.485536 0.927181 0.422570 0.151506
C32   C     C_R   0.536995 0.072723 0.575838 0.119600
C33   C     C_R   0.102677 0.440967 0.618342 -0.235103
C34   C     C_R   0.108792 0.575646 0.391207 -0.189407
C35   C     C_R   0.897996 0.558724 0.119336 -0.236297
C36   C     C_R   0.887963 0.423446 0.892702 -0.190376
C37   C     C_R   0.572229 0.057145 0.878869 -0.247950
C38   C     C_R   0.599164 0.928754 0.110885 -0.208679
C39   C     C_R   0.431571 0.943743 0.378437 -0.236460
C40   C     C_R   0.389344 0.075951 0.607644 -0.189795
H17   H     H_    0.147912 0.480668 0.622889 0.167672
H18   H     H_    0.226623 0.550248 0.394726 0.179866
H19   H     H_    0.850040 0.519272 0.124157 0.167127
H20   H     H_    0.771016 0.449195 0.896687 0.179478
H21   H     H_    0.605138 0.016869 0.872858 0.169214
H22   H     H_    0.701434 0.959641 0.110032 0.154337
H23   H     H_    0.405578 0.984496 0.372760 0.168462
H24   H     H_    0.270766 0.050485 0.603683 0.179919
C41   C     C_R   0.121864 0.405797 0.655334 0.358362
C42   C     C_R   0.101961 0.609817 0.353350 0.322406
C43   C     C_R   0.878921 0.594144 0.156193 0.357780
C44   C     C_R   0.895333 0.389577 0.854593 0.323091
C45   C     C_R   0.598446 0.092765 0.842381 0.360069
C46   C     C_R   0.591407 0.894570 0.148951 0.346095
C47   C     C_R   0.411128 0.908562 0.341452 0.362924
C48   C     C_R   0.395129 0.110189 0.645532 0.325308
C49   C     C_R   0.053007 0.354505 0.650397 -0.249175
C50   C     C_R   0.947263 0.643161 0.348509 -0.257463
C51   C     C_R   0.950936 0.645077 0.150893 -0.248153
C52   C     C_R   0.049519 0.356036 0.849067 -0.260392
C53   C     C_R   0.544741 0.145021 0.849093 -0.247969
C54   C     C_R   0.453520 0.854964 0.150366 -0.250978
C55   C     C_R   0.448101 0.855250 0.349011 -0.245240
C56   C     C_R   0.551016 0.143565 0.651010 -0.259526
C57   C     C_R   0.144048 0.500107 0.528393 -0.413503
C58   C     C_R   0.827999 0.502177 0.473750 -0.379321
C59   C     C_R   0.854974 0.499629 0.029943 -0.412896
C60   C     C_R   0.171098 0.495769 0.973753 -0.379823
C61   C     C_R   0.627657 0.996792 0.966200 -0.448783
C62   C     C_R   0.337614 0.998013 0.030443 -0.441016
C63   C     C_R   0.361079 0.000781 0.469764 -0.412430
C64   C     C_R   0.672601 0.002454 0.526159 -0.380243
H25   H     H_    0.269165 0.499661 0.548710 0.195539
H26   H     H_    0.703894 0.503772 0.453146 0.180225
H27   H     H_    0.729593 0.500833 0.050812 0.196734
H28   H     H_    0.294976 0.493480 0.952456 0.180961
H29   H     H_    0.737169 0.995530 0.940516 0.173995
H30   H     H_    0.221853 0.996748 0.054519 0.168458
H31   H     H_    0.238731 0.000443 0.448391 0.194709
H32   H     H_    0.795323 0.003947 0.547315 0.180496
C65   C     C_R   0.131644 0.536206 0.492376 0.547878
C66   C     C_R   0.840538 0.465248 0.509676 0.584732
C67   C     C_R   0.865215 0.463379 0.993962 0.544840
C68   C     C_R   0.160812 0.532912 0.009572 0.585466
C69   C     C_R   0.626879 0.960953 0.003192 0.582107
C70   C     C_R   0.341180 0.034951 0.994257 0.566750
C71   C     C_R   0.371597 0.036496 0.506196 0.548013
C72   C     C_R   0.660951 0.965744 0.489980 0.584356
C73   C     C_R   0.974560 0.536465 0.463761 -0.084642
C74   C     C_R   0.000618 0.464260 0.537602 -0.073696
C75   C     C_R   0.022493 0.462199 0.964651 -0.084278
C76   C     C_R   0.000775 0.534737 0.038347 -0.075710
C77   C     C_R   0.479812 0.961761 0.035363 -0.057856
C78   C     C_R   0.488949 0.034368 0.961664 -0.047235
C79   C     C_R   0.526604 0.036703 0.535582 -0.084028
C80   C     C_R   0.503714 0.965122 0.461307 -0.077238
N1    N     N_R   0.208161 0.423376 0.697309 0.246405
O21   O     O_R   0.326349 0.461618 0.696029 -0.352143
O22   O     O_R   0.159026 0.404573 0.737376 -0.364606
N2    N     N_R   0.249382 0.608371 0.319526 0.245093
O23   O     O_R   0.211668 0.606505 0.275619 -0.321056
O24   O     O_R   0.418231 0.599556 0.332483 -0.386805
N3    N     N_R   0.789286 0.577212 0.198412 0.246686
O25   O     O_R   0.667556 0.539860 0.197482 -0.350498
O26   O     O_R   0.839252 0.595500 0.238335 -0.364789
N4    N     N_R   0.749298 0.391589 0.821222 0.244537
O27   O     O_R   0.788745 0.393655 0.777208 -0.320731
O28   O     O_R   0.580276 0.400795 0.834745 -0.389777
N5    N     N_R   0.678604 0.074730 0.799394 0.246985
O29   O     O_R   0.780556 0.033357 0.798787 -0.357392
O30   O     O_R   0.642581 0.097202 0.760296 -0.369056
N6    N     N_R   0.721038 0.901647 0.185911 0.246329
O31   O     O_R   0.886807 0.919326 0.177022 -0.360896
O32   O     O_R   0.667696 0.896942 0.228864 -0.350389
N7    N     N_R   0.359484 0.928263 0.296752 0.245950
O33   O     O_R   0.399698 0.975832 0.285432 -0.346012
O34   O     O_R   0.256686 0.901138 0.269020 -0.348583
N8    N     N_R   0.245094 0.108797 0.678654 0.244363
O35   O     O_R   0.279204 0.106899 0.722742 -0.320634
O36   O     O_R   0.077066 0.099755 0.664884 -0.392007
O37   O     O_3   0.278246 0.569824 0.484333 -0.675058
C81   C     C_3   0.239410 0.617502 0.506234 0.200937
H33   H     H_    0.239722 0.612601 0.544555 0.112959
H34   H     H_    0.102480 0.632928 0.495547 0.094574
C82   C     C_3   0.388729 0.656944 0.492469 -0.266858
H35   H     H_    0.524904 0.643792 0.505418 0.198351
H36   H     H_    0.396835 0.659763 0.454083 0.202095
C83   C     C_3   0.347322 0.710429 0.512367 -1.028502
H37   H     H_    0.213673 0.724961 0.499017 0.267323
H38   H     H_    0.458906 0.737947 0.501894 0.266891
H39   H     H_    0.340506 0.708756 0.550771 0.277675
O38   O     O_3   0.689618 0.434062 0.521260 -0.655276
C84   C     C_3   0.629463 0.403962 0.483089 0.150273
H40   H     H_    0.639132 0.362491 0.492899 0.119719
H41   H     H_    0.714547 0.408741 0.450844 0.090209
C85   C     C_3   0.426722 0.415886 0.473259 -0.264695
H42   H     H_    0.342787 0.408350 0.505030 0.214611
H43   H     H_    0.413076 0.457308 0.463694 0.216632
C86   C     C_3   0.351689 0.382511 0.434070 -0.988506
H44   H     H_    0.431497 0.389842 0.401617 0.281761
H45   H     H_    0.204273 0.392253 0.428151 0.269389
H46   H     H_    0.360471 0.340824 0.443211 0.267006
O39   O     O_3   0.716443 0.430571 0.986614 -0.675392
C87   C     C_3   0.749996 0.383120 0.009224 0.202683
H47   H     H_    0.749127 0.388851 0.047460 0.113118
H48   H     H_    0.885643 0.366446 0.998260 0.093558
C88   C     C_3   0.597246 0.344560 0.996702 -0.266661
H49   H     H_    0.461746 0.359373 0.009382 0.199830
H50   H     H_    0.591555 0.340463 0.958420 0.200962
C89   C     C_3   0.631198 0.291467 0.018065 -1.027697
H51   H     H_    0.764169 0.275337 0.005067 0.267226
H52   H     H_    0.517410 0.264569 0.008421 0.266916
H53   H     H_    0.635282 0.294433 0.056401 0.277677
O40   O     O_3   0.313211 0.563704 0.019988 -0.655586
C90   C     C_3   0.375132 0.592857 0.981062 0.150640
H54   H     H_    0.370717 0.634506 0.990567 0.120390
H55   H     H_    0.287751 0.588583 0.949617 0.091458
C91   C     C_3   0.575904 0.579039 0.969619 -0.267784
H56   H     H_    0.663255 0.588009 0.000034 0.212720
H57   H     H_    0.585810 0.537025 0.961986 0.220781
C92   C     C_3   0.649602 0.609417 0.927999 -0.985085
H58   H     H_    0.566914 0.600322 0.896805 0.282924
H59   H     H_    0.795920 0.598601 0.921115 0.270443
H60   H     H_    0.643682 0.651667 0.934995 0.265277
O41   O     O_3   0.753400 0.920713 0.006344 -0.664624
C93   C     C_3   0.935109 0.934728 0.992339 0.157114
H61   H     H_    0.028122 0.922024 0.019970 0.129307
H62   H     H_    0.960878 0.977064 0.989224 0.118925
C94   C     C_3   0.986613 0.906483 0.947488 -0.289865
H63   H     H_    0.979100 0.864000 0.953447 0.208944
H64   H     H_    0.886476 0.916374 0.920006 0.212579
C95   C     C_3   0.181416 0.920890 0.930879 -0.930019
H65   H     H_    0.190616 0.963029 0.923504 0.282624
H66   H     H_    0.214549 0.899426 0.898573 0.274143
H67   H     H_    0.284598 0.910493 0.957457 0.261192
O42   O     O_3   0.189232 0.066205 0.985845 -0.672207
C96   C     C_3   0.131830 0.094307 0.025595 0.165812
H68   H     H_    0.135423 0.136083 0.016438 0.123793
H69   H     H_    0.223187 0.089975 0.056245 0.093470
C97   C     C_3   0.932154 0.079416 0.038370 -0.296692
H70   H     H_    0.843375 0.083522 0.007415 0.216943
H71   H     H_    0.926206 0.038471 0.049969 0.186289
C98   C     C_3   0.855381 0.113572 0.077029 -0.960199
H72   H     H_    0.940437 0.109651 0.108624 0.280294
H73   H     H_    0.711034 0.101471 0.085420 0.268470
H74   H     H_    0.854672 0.154756 0.065942 0.262190
O43   O     O_3   0.225238 0.069745 0.513900 -0.674461
C99   C     C_3   0.265375 0.117499 0.492052 0.200560
H75   H     H_    0.264439 0.112643 0.453731 0.113240
H76   H     H_    0.402936 0.133082 0.502665 0.093198
C100  C     C_3   0.117366 0.156711 0.506005 -0.265932
H77   H     H_    0.980327 0.143195 0.493498 0.198633
H78   H     H_    0.110917 0.159737 0.544392 0.201857
C101  C     C_3   0.159035 0.210155 0.485739 -1.028206
H79   H     H_    0.293952 0.224950 0.498503 0.266933
H80   H     H_    0.048833 0.237564 0.496524 0.267170
H81   H     H_    0.163410 0.208293 0.447326 0.277669
O44   O     O_3   0.810442 0.934519 0.478591 -0.655036
C102  C     C_3   0.867573 0.904101 0.516649 0.156160
H82   H     H_    0.853733 0.862728 0.506654 0.121800
H83   H     H_    0.783052 0.909106 0.548918 0.088523
C103  C     C_3   0.071380 0.915436 0.526471 -0.264010
H84   H     H_    0.154676 0.908181 0.494588 0.214573
H85   H     H_    0.088163 0.956726 0.536402 0.216170
C104  C     C_3   0.144195 0.881415 0.565295 -0.990537
H86   H     H_    0.065105 0.888503 0.597848 0.281991
H87   H     H_    0.292349 0.890765 0.571251 0.269550
H88   H     H_    0.132309 0.839869 0.555741 0.266999

loop_
_geom_bond_atom_site_label_1
_geom_bond_atom_site_label_2
_geom_bond_distance
_ccdc_geom_bond_type
O17   V3    1.761855 S    
C58   C73   1.403340 A    
C71   O43   1.382448 S    
O18   V4    1.761855 S    
C89   H51   1.110980 S    
O12   V1    1.984314 S    
O19   V1    1.770070 S    
C92   H58   1.110818 S    
C29   C37   1.409024 A    
C102  H82   1.111085 S    
C10   H2    1.083184 S    
C59   C67   1.400579 A    
C60   H28   1.082223 S    
C21   C29   1.404800 A    
C62   H30   1.082056 S    
C99   H76   1.115659 S    
C25   C74   1.500354 S    
C98   H74   1.110952 S    
C61   H29   1.079219 S    
O15   V4    2.002736 S    
C82   H35   1.111369 S    
O41   C93   1.414034 S    
C96   C97   1.531437 S    
N1    O22   1.300133 A    
O11   C3    1.332934 A    
C29   C78   1.502205 S    
C17   C25   1.404424 A    
C13   C53   1.404113 A    
C58   H26   1.082449 S    
C8    C50   1.492369 S    
O8    V1    1.983082 S    
C63   H31   1.083541 S    
C30   C38   1.401849 A    
C71   C79   1.412413 A    
N4    O27   1.301004 A    
C72   C80   1.413005 A    
C5    C51   1.478414 S    
C93   H62   1.111473 S    
C63   C80   1.405747 A    
N7    O34   1.300084 A    
C9    C17   1.397082 A    
N3    O25   1.301552 A    
C26   C34   1.402584 A    
O1    V3    1.986908 S    
C94   C95   1.525414 S    
C17   H9    1.079869 S    
C87   H47   1.114405 S    
C68   C76   1.417413 A    
O3    C2    1.331559 A    
O2    V4    1.986906 S    
C69   O41   1.392036 S    
C16   H8    1.083152 S    
C97   H70   1.111560 S    
C88   C89   1.526182 S    
C67   O39   1.382380 S    
C20   H12   1.081432 S    
C89   H53   1.110807 S    
C10   C50   1.408248 A    
C21   H13   1.081097 S    
C85   C86   1.525044 S    
C15   C23   1.398524 A    
C98   H72   1.110807 S    
O11   V2    1.984312 S    
C87   H48   1.115509 S    
C16   C24   1.399392 A    
C23   H15   1.082090 S    
C57   H25   1.083070 S    
C30   C77   1.486711 S    
C103  H85   1.110595 S    
C24   H16   1.081669 S    
C91   H56   1.110849 S    
C40   C48   1.407910 A    
C11   H3    1.083834 S    
C65   C73   1.411137 A    
N4    O28   1.301104 A    
C12   C20   1.397286 A    
O9    V1    1.996366 S    
C14   C54   1.404578 A    
C86   H46   1.111013 S    
C13   C21   1.398710 A    
C38   H22   1.083814 S    
O15   C7    1.331920 A    
O40   C90   1.419918 S    
C61   C78   1.406521 A    
C37   H21   1.082178 S    
C14   C22   1.396507 A    
O16   C8    1.336918 A    
O7    V2    1.983080 S    
C104  H86   1.110777 S    
C86   H45   1.110733 S    
N8    O36   1.301000 A    
C92   H59   1.110733 S    
C36   H20   1.083604 S    
O3    V4    1.980433 S    
C101  H80   1.110703 S    
C34   H18   1.083577 S    
C11   C51   1.402391 A    
C33   H17   1.082627 S    
C99   H75   1.114222 S    
C32   C40   1.402924 A    
C47   C55   1.421652 A    
C94   H63   1.111580 S    
C19   H11   1.079841 S    
C43   N3    1.441205 S    
C83   H39   1.110801 S    
C85   H43   1.110228 S    
C10   C18   1.399194 A    
C103  C104  1.524967 S    
C6    C52   1.490357 S    
C44   N4    1.437940 S    
C18   H10   1.081424 S    
N2    O23   1.301054 A    
C12   C52   1.407941 A    
C25   C33   1.407989 A    
C45   C53   1.419455 A    
C31   C80   1.493760 S    
C64   H32   1.082651 S    
C64   C72   1.413958 A    
C93   H61   1.100356 S    
C32   C79   1.491495 S    
C19   C27   1.404516 A    
C22   H14   1.076672 S    
C24   C32   1.401223 A    
C96   H68   1.111063 S    
C84   H40   1.110810 S    
C67   C75   1.409901 A    
C102  H83   1.116662 S    
C31   C39   1.404794 A    
C90   H54   1.110805 S    
C41   C49   1.419783 A    
O16   V3    2.002734 S    
C101  H81   1.110862 S    
C28   C75   1.488220 S    
O39   C87   1.412370 S    
C60   C75   1.402546 A    
C39   C47   1.410924 A    
C16   C56   1.408756 A    
C81   C82   1.528240 S    
C46   N6    1.438660 S    
O10   V2    1.996368 S    
O43   C99   1.412471 S    
C22   C30   1.399281 A    
C95   H67   1.110051 S    
C65   O37   1.382702 S    
O12   C4    1.335563 A    
C91   C92   1.524860 S    
C98   H73   1.110715 S    
C103  H84   1.111183 S    
C57   C65   1.401115 A    
C100  H78   1.112197 S    
C2    C56   1.494247 S    
O42   C96   1.418026 S    
C18   C26   1.401407 A    
O14   C6    1.335466 A    
C59   H27   1.083038 S    
C39   H23   1.083196 S    
C84   H41   1.116741 S    
C70   O42   1.390149 S    
C62   C70   1.415204 A    
C26   C73   1.490415 S    
C45   N5    1.442927 S    
C38   C46   1.410688 A    
C61   C69   1.413764 A    
C85   H42   1.110911 S    
O6    V2    1.976697 S    
C36   C44   1.406883 A    
C82   C83   1.526369 S    
C66   O38   1.389137 S    
C104  H87   1.110723 S    
C11   C19   1.396683 A    
N8    O35   1.300867 A    
C92   H60   1.110810 S    
C12   H4    1.083241 S    
C48   N8    1.438060 S    
C27   C35   1.407813 A    
C101  H79   1.111137 S    
O4    C1    1.330781 A    
C64   C79   1.405131 A    
C13   H5    1.083834 S    
O5    V1    1.976695 S    
C100  H77   1.111523 S    
O38   C84   1.419595 S    
C44   C52   1.422958 A    
C15   H7    1.083804 S    
C81   H33   1.114280 S    
N6    O32   1.300706 A    
C84   C85   1.528024 S    
C69   C77   1.403986 A    
N3    O26   1.300135 A    
C48   C56   1.423821 A    
O44   C102  1.417922 S    
C83   H37   1.110999 S    
O1    C4    1.329218 A    
C89   H52   1.110570 S    
C7    C49   1.480231 S    
O2    C3    1.328276 A    
O13   V3    1.990630 S    
O14   V4    1.990628 S    
C59   C76   1.408348 A    
O8    C5    1.328670 A    
C42   N2    1.437951 S    
C20   C28   1.400570 A    
C15   C55   1.404219 A    
C57   C74   1.408126 A    
N2    O24   1.301119 A    
C35   C43   1.409944 A    
C28   C36   1.402637 A    
O7    C6    1.330155 A    
N1    O21   1.301561 A    
C58   C66   1.413618 A    
C41   N1    1.441494 S    
C87   C88   1.527899 S    
C97   H71   1.109792 S    
C83   H38   1.110631 S    
C9    H1    1.083877 S    
C34   C42   1.406855 A    
N5    O30   1.299525 A    
C1    C55   1.480856 S    
C33   C41   1.411148 A    
O20   V2    1.770070 S    
C40   H24   1.083555 S    
C81   H34   1.115375 S    
O37   C81   1.412798 S    
N5    O29   1.301677 A    
O13   C5    1.330675 A    
C14   H6    1.083666 S    
C63   C71   1.401840 A    
C3    C53   1.479638 S    
C93   C94   1.530465 S    
C35   H19   1.082633 S    
O5    C8    1.330093 A    
O10   C2    1.337665 A    
O6    C7    1.328779 A    
C37   C45   1.409539 A    
C94   H64   1.110711 S    
C27   C76   1.499142 S    
C66   C74   1.417450 A    
C60   C68   1.412712 A    
C102  C103  1.528644 S    
C47   N7    1.441749 S    
C97   C98   1.525038 S    
C96   H69   1.116097 S    
C88   H50   1.112129 S    
O4    V3    1.980431 S    
C100  C101  1.526296 S    
C95   H66   1.110119 S    
C86   H44   1.110779 S    
C90   C91   1.528327 S    
C88   H49   1.111484 S    
C4    C54   1.486240 S    
C95   H65   1.110477 S    
C70   C78   1.415665 A    
C82   H36   1.112169 S    
C104  H88   1.111004 S    
C68   O40   1.389468 S    
N7    O33   1.301611 A    
C62   C77   1.402661 A    
C91   H57   1.109923 S    
N6    O31   1.301622 A    
C9    C49   1.402937 A    
C43   C51   1.419168 A    
C72   O44   1.388541 S    
C42   C50   1.423242 A    
C99   C100  1.528280 S    
C23   C31   1.403234 A    
C46   C54   1.423345 A    
O9    C1    1.331834 A    
C90   H55   1.116862 S    
