data_mof_unit_41155.cif
_audit_creation_date              2012-12-10T18:00:48-0500
_audit_creation_method            fapswitch 2.2
_symmetry_space_group_name_H-M    P1
_symmetry_Int_Tables_number       1
_space_group_crystal_system       triclinic
_cell_length_a                    15.859085
_cell_length_b                    10.766877
_cell_length_c                    9.630297
_cell_angle_alpha                 89.825916
_cell_angle_beta                  90.038905
_cell_angle_gamma                 91.801825
_cell_volume                      1643.57942156

loop_
_atom_site_label
_atom_site_type_symbol
_atom_type_description
_atom_site_fract_x
_atom_site_fract_y
_atom_site_fract_z
_atom_type_partial_charge
C1    C     C_R   0.501452 0.262801 0.500068 0.750105
C2    C     C_R   0.498548 0.737199 0.499932 0.750105
C3    C     C_R   0.561399 0.935825 0.428350 -0.142187
C4    C     C_R   0.438601 0.064174 0.571650 -0.142188
C5    C     C_R   0.497043 0.871147 0.499794 -0.138297
C6    C     C_R   0.502957 0.128853 0.500206 -0.138296
C7    C     C_R   0.441341 0.430066 0.074450 0.032588
C8    C     C_R   0.558658 0.569934 0.925550 0.032587
C9    C     C_R   0.441333 0.430223 0.925953 0.047674
C10   C     C_R   0.558666 0.569778 0.074047 0.047675
C11   C     C_R   0.340064 0.499642 0.499940 0.809065
C12   C     C_R   0.659936 0.500358 0.500060 0.809066
C13   C     C_3   0.968821 0.387325 0.539350 -0.229154
C14   C     C_3   0.031179 0.612675 0.460650 -0.229154
C15   C     C_3   0.024937 0.414543 0.411308 0.029837
C16   C     C_3   0.975063 0.585457 0.588692 0.029836
C17   C     C_1   0.250381 0.499516 0.499861 -0.075466
C18   C     C_1   0.749619 0.500484 0.500139 -0.075465
C19   C     C_3   0.028107 0.473010 0.628510 -0.207390
C20   C     C_3   0.971893 0.526989 0.371490 -0.207389
C21   C     C_3   0.083106 0.499088 0.499281 0.143832
C22   C     C_3   0.916894 0.500912 0.500718 0.143832
C23   C     C_1   0.174825 0.499348 0.499681 0.051119
C24   C     C_1   0.825175 0.500651 0.500318 0.051120
C25   C     C_R   0.565584 0.065272 0.427826 -0.007095
C26   C     C_R   0.434417 0.934728 0.572174 -0.007096
Cu1   Cu    Cu3+1 0.500000 0.500020 0.640660 0.967586
Cu2   Cu    Cu3+1 0.500000 0.499980 0.359340 0.967587
H1    H     H_    0.942502 0.294703 0.570812 0.162679
H2    H     H_    0.057498 0.705297 0.429188 0.162679
N1    N     N_R   0.500020 0.500030 0.852070 -0.236705
N2    N     N_R   0.499980 0.499970 0.147930 -0.236706
O1    O     O_R   0.500000 0.319660 0.618740 -0.594845
O2    O     O_R   0.500000 0.680340 0.381260 -0.594845
O3    O     O_R   0.499990 0.319630 0.381170 -0.612567
O4    O     O_R   0.500010 0.680370 0.618830 -0.612566
O5    O     O_R   0.379080 0.500000 0.618760 -0.569246
O6    O     O_R   0.620920 0.500000 0.381240 -0.569244
O7    O     O_R   0.379080 0.499970 0.381190 -0.553747
O8    O     O_R   0.620920 0.500030 0.618810 -0.553750
C27   C     C_2   0.050466 0.317195 0.310340 0.397936
H3    H     H_    0.002340 0.264018 0.254243 0.077467
O9    O     O_2   0.124772 0.297099 0.290617 -0.480967
C28   C     C_2   0.949534 0.682805 0.689660 0.397936
H4    H     H_    0.997660 0.735982 0.745757 0.077467
O10   O     O_2   0.875228 0.702901 0.709383 -0.480967
H5    H     H_    0.948077 0.548404 0.265930 0.174825
H6    H     H_    0.051923 0.451596 0.734070 0.174825
C29   C     C_2   0.637069 0.131851 0.356780 0.372531
H7    H     H_    0.647042 0.231312 0.368401 0.080641
O11   O     O_2   0.686492 0.075915 0.284706 -0.529011
C30   C     C_2   0.362932 0.868149 0.643222 0.372533
H8    H     H_    0.352957 0.768688 0.631596 0.080637
O12   O     O_2   0.313510 0.924084 0.715301 -0.529009
H9    H     H_    0.609902 0.884584 0.376582 0.173585
H10   H     H_    0.390098 0.115415 0.623418 0.173584
C31   C     C_2   0.379113 0.349855 0.148931 0.472498
H11   H     H_    0.398816 0.267500 0.203079 0.066091
O13   O     O_2   0.304404 0.373850 0.146838 -0.460585
C32   C     C_2   0.620887 0.650144 0.851069 0.472493
H12   H     H_    0.601185 0.732499 0.796919 0.066094
O14   O     O_2   0.695596 0.626150 0.853164 -0.460586
C33   C     C_2   0.379484 0.349642 0.851946 0.468411
H13   H     H_    0.399571 0.266375 0.801053 0.056372
O15   O     O_2   0.304850 0.374160 0.851332 -0.497580
C34   C     C_2   0.620515 0.650359 0.148054 0.468415
H14   H     H_    0.600427 0.733629 0.198943 0.056369
O16   O     O_2   0.695148 0.625842 0.148672 -0.497579

loop_
_geom_bond_atom_site_label_1
_geom_bond_atom_site_label_2
_ccdc_geom_bond_type
C12   O8    A    
C28   H4    S    
C34   O16   D    
C33   O15   D    
C26   C30   S    
Cu1   O4    S    
C27   H3    S    
C16   C28   S    
C4    C26   A    
Cu1   N1    S    
Cu2   O6    S    
Cu1   O8    S    
C7    C9    A    
C2    O2    A    
C13   C15   S    
C34   H14   S    
C14   H2    S    
C1    O1    A    
C32   H12   S    
Cu1   O1    S    
C11   O7    A    
C27   O9    D    
C4    H10   S    
C1    O3    A    
C31   H11   S    
C17   C23   T    
C15   C21   S    
Cu1   O5    S    
C16   C19   S    
C18   C24   T    
C14   C21   S    
C13   H1    S    
C19   C21   S    
C20   C22   S    
C13   C22   S    
C29   H7    S    
C14   C16   S    
C10   C34   S    
C21   C23   S    
C12   O6    A    
C15   C20   S    
C22   C24   S    
C31   O13   D    
C2    C5    S    
C13   C19   S    
Cu2   O2    S    
C5    C26   A    
C6    C25   A    
C10   N2    A    
Cu2   N2    S    
C3    C25   A    
C30   H8    S    
C15   C27   S    
C14   C20   S    
C32   O14   D    
C4    C6    A    
C30   O12   D    
C2    O4    A    
Cu1   Cu2   S    
C11   O5    A    
C9    N1    A    
C19   H6    S    
C11   C17   S    
C16   C22   S    
C7    N2    A    
Cu2   O7    S    
C29   O11   D    
C9    C33   S    
C8    N1    A    
C3    H9    S    
C7    C31   S    
C8    C10   A    
C8    C32   S    
C20   H5    S    
C1    C6    S    
Cu2   O3    S    
C28   O10   D    
C33   H13   S    
C3    C5    A    
C25   C29   S    
C12   C18   S    
