data_mof_unit_13700.cif
_audit_creation_date              2012-10-26T19:52:44-0400
_audit_creation_method            fapswitch 2.2
_symmetry_space_group_name_H-M    P1
_symmetry_Int_Tables_number       1
_space_group_crystal_system       triclinic
_cell_length_a                    15.020361
_cell_length_b                    10.803075
_cell_length_c                    9.539256
_cell_angle_alpha                 89.943401
_cell_angle_beta                  90.624487
_cell_angle_gamma                 89.879438
_cell_volume                      1547.80157997

loop_
_atom_site_label
_atom_site_type_symbol
_atom_type_description
_atom_site_fract_x
_atom_site_fract_y
_atom_site_fract_z
_atom_type_partial_charge
Br1   Br    Br    0.736223 0.268527 0.329719 -0.482872
Br2   Br    Br    0.254945 0.282411 0.304767 -0.631547
C1    C     C_R   0.502103 0.262359 0.500048 0.586624
C2    C     C_R   0.187503 0.396263 0.419299 0.128564
C3    C     C_R   0.232289 0.487205 0.498634 -0.000773
C4    C     C_R   0.328854 0.496322 0.499231 0.573273
C5    C     C_R   0.185635 0.566433 0.586560 -0.171829
C6    C     C_R   0.514312 0.063733 0.625940 -0.031150
C7    C     C_R   0.512193 0.129455 0.500026 0.024973
C8    C     C_R   0.522816 0.064583 0.373475 -0.122091
C9    C     C_R   0.522579 0.935527 0.373346 -0.169326
C10   C     C_R   0.511343 0.870478 0.499668 -0.002661
C11   C     C_R   0.512868 0.936283 0.625391 0.004935
C12   C     C_R   0.907395 0.554881 0.598793 -0.039585
C13   C     C_3   0.454652 0.932968 0.752715 0.160076
C14   C     C_3   0.457064 0.074191 0.753028 -0.238239
C15   C     C_R   0.531111 0.600001 0.073368 0.174933
C16   C     C_R   0.501884 0.737606 0.499907 0.542226
C17   C     C_R   0.460943 0.407154 0.073885 0.013743
C18   C     C_R   0.460965 0.407132 0.925019 0.000728
C19   C     C_R   0.529367 0.601061 0.926151 0.130577
C20   C     C_3   0.618750 0.659273 0.917247 -0.231873
C21   C     C_3   0.622621 0.654879 0.076718 0.128876
C22   C     C_R   0.671095 0.494956 0.501017 0.571145
C23   C     C_R   0.954346 0.285991 0.363597 0.263236
C24   C     C_R   0.815316 0.561438 0.591692 -0.179898
C25   C     C_R   0.767492 0.481103 0.505428 0.000808
C26   C     C_R   0.810529 0.385068 0.432155 0.153076
C27   C     C_R   0.905121 0.377414 0.436768 0.025915
C28   C     C_R   0.953077 0.466695 0.517226 -0.031112
C29   C     C_3   0.318122 0.915023 0.618184 0.019025
C30   C     C_3   0.228065 0.964142 0.666153 -0.259779
C31   C     C_3   0.166492 0.990990 0.541756 -0.472827
C32   C     C_3   0.769960 0.627701 0.143673 0.013978
C33   C     C_3   0.843942 0.537908 0.102968 -0.237621
C34   C     C_R   0.046911 0.295128 0.355664 -0.109141
C35   C     C_3   0.934462 0.583443 0.153870 -0.497474
C36   C     C_3   0.918500 0.079744 0.376898 0.034371
C37   C     C_3   0.971930 0.980160 0.300556 -0.278091
C38   C     C_3   0.968449 0.856363 0.377820 -0.494809
C39   C     C_3   0.119504 0.648319 0.900356 -0.000255
C40   C     C_3   0.149799 0.738973 0.014318 -0.266097
C41   C     C_3   0.183874 0.671339 0.145155 -0.464672
C42   C     C_R   0.094089 0.387035 0.428335 -0.018160
C43   C     C_R   0.046916 0.470094 0.514668 -0.023990
C44   C     C_R   0.093485 0.557892 0.597504 0.013345
C45   C     C_R   0.046872 0.635606 0.690004 0.257659
C46   C     C_R   0.954193 0.636591 0.686094 -0.105373
Cu1   Cu    Cu3+1 0.500000 0.499980 0.640670 0.969965
Cu2   Cu    Cu3+1 0.500000 0.500020 0.359330 1.029263
H1    H     H_    0.780341 0.631436 0.651472 0.106319
H2    H     H_    0.623867 0.746811 0.129774 0.072880
H3    H     H_    0.080991 0.227659 0.292206 0.174573
H4    H     H_    0.222026 0.636003 0.645505 0.160847
H5    H     H_    0.918825 0.701227 0.752359 0.119458
H6    H     H_    0.526717 0.112843 0.274152 0.158757
H7    H     H_    0.307363 0.832219 0.551118 0.145276
H8    H     H_    0.349573 0.986629 0.551670 0.142447
H9    H     H_    0.196248 0.894799 0.734907 0.224225
H10   H     H_    0.237841 0.050429 0.727633 0.162288
H11   H     H_    0.154670 0.905064 0.480545 0.152731
H12   H     H_    0.526362 0.887572 0.273983 0.125784
H13   H     H_    0.196294 0.061912 0.472576 0.191939
H14   H     H_    0.101801 0.026513 0.580125 0.154075
H15   H     H_    0.776856 0.653169 0.256171 0.146498
H16   H     H_    0.778060 0.713437 0.079426 0.102634
H17   H     H_    0.831313 0.445525 0.149074 0.239849
H18   H     H_    0.844696 0.527447 0.987035 0.158657
H19   H     H_    0.951768 0.671308 0.100326 0.146430
H20   H     H_    0.985557 0.512035 0.131578 0.156173
H21   H     H_    0.933837 0.599288 0.268558 0.156770
H22   H     H_    0.849596 0.045193 0.391359 0.187293
H23   H     H_    0.490773 0.893425 0.844624 0.120965
H24   H     H_    0.947297 0.093433 0.484393 0.109852
H25   H     H_    0.944647 0.967669 0.192710 0.183756
H26   H     H_    0.042380 0.009961 0.292376 0.160657
H27   H     H_    0.988488 0.867592 0.489433 0.167374
H28   H     H_    0.014978 0.790027 0.328181 0.149893
H29   H     H_    0.899992 0.817783 0.372871 0.144909
H30   H     H_    0.176500 0.587082 0.873942 0.150331
H31   H     H_    0.065121 0.589929 0.942590 0.135386
H32   H     H_    0.204074 0.798093 0.973198 0.188979
H33   H     H_    0.093156 0.799805 0.043384 0.164656
H34   H     H_    0.392521 0.121217 0.731761 0.138949
H35   H     H_    0.130741 0.612696 0.190174 0.157482
H36   H     H_    0.204878 0.739936 0.225540 0.145390
H37   H     H_    0.242014 0.612211 0.119239 0.181301
H38   H     H_    0.494784 0.112315 0.844046 0.107132
H39   H     H_    0.430739 0.330817 0.128974 0.154389
H40   H     H_    0.430370 0.331176 0.869032 0.115213
H41   H     H_    0.668506 0.598622 0.865730 0.174111
H42   H     H_    0.615519 0.755015 0.875090 0.065174
N1    N     N_R   0.500570 0.500930 0.147930 -0.208670
N2    N     N_R   0.500570 0.500890 0.852020 -0.229858
O1    O     O_R   0.500000 0.319640 0.618810 -0.512096
O2    O     O_3   0.686887 0.568635 0.123954 -0.509533
O3    O     O_3   0.913704 0.188855 0.293913 -0.530292
O4    O     O_3   0.090596 0.715466 0.780720 -0.600463
O5    O     O_R   0.500010 0.319680 0.381230 -0.482103
O6    O     O_R   0.370250 0.499950 0.618800 -0.505629
O7    O     O_R   0.370260 0.499990 0.381220 -0.472462
O8    O     O_R   0.499990 0.680320 0.618770 -0.484488
O9    O     O_R   0.500000 0.680360 0.381190 -0.530478
O10   O     O_R   0.629740 0.500010 0.618780 -0.518257
O11   O     O_R   0.629750 0.500050 0.381200 -0.418013
O12   O     O_3   0.368885 0.877583 0.737374 -0.559526

loop_
_geom_bond_atom_site_label_1
_geom_bond_atom_site_label_2
_ccdc_geom_bond_type
C46   H5    S    
C6    C11   A    
C35   H19   S    
C39   C40   S    
C28   C43   A    
C17   C18   A    
C40   H32   S    
C22   C25   S    
C9    H12   S    
C32   H16   S    
Cu1   O10   S    
C43   C44   A    
Cu2   O5    S    
C15   C21   S    
C45   O4    S    
C17   H39   S    
C29   H8    S    
C26   C27   A    
C33   C35   S    
C32   O2    S    
C3    C4    S    
C19   N2    A    
C13   C14   S    
C14   H34   S    
C21   O2    S    
C32   C33   S    
C16   O8    A    
C4    O7    A    
C34   H3    S    
C29   C30   S    
C6    C7    A    
Cu2   O11   S    
C20   H41   S    
C37   H25   S    
Cu1   N2    S    
C8    H6    S    
C7    C8    A    
C17   N1    A    
Cu2   O9    S    
C6    C14   S    
C35   H20   S    
C12   C28   A    
C36   O3    S    
C32   H15   S    
C23   C27   A    
C36   H22   S    
C41   H35   S    
C5    C44   A    
Cu1   O8    S    
C3    C5    A    
C12   C46   A    
C2    C42   A    
C18   H40   S    
C39   O4    S    
Cu1   O1    S    
C22   O10   A    
C4    O6    A    
Br2   C2    S    
C27   C28   A    
C1    C7    S    
Br1   C26   S    
C45   C46   A    
C33   H17   S    
C31   H13   S    
C39   H31   S    
C24   C25   A    
C38   H29   S    
C37   H26   S    
C12   C24   A    
C23   O3    S    
C13   H23   S    
C35   H21   S    
C29   O12   S    
C38   H28   S    
C34   C42   A    
C15   N1    A    
C40   C41   S    
C30   H10   S    
C37   C38   S    
C42   C43   A    
C13   O12   S    
C36   H24   S    
C18   N2    A    
C44   C45   A    
C20   C21   S    
C41   H36   S    
C40   H33   S    
C2    C3    A    
C9    C10   A    
Cu2   N1    S    
C5    H4    S    
C41   H37   S    
C30   C31   S    
C29   H7    S    
C11   C13   S    
C24   H1    S    
Cu1   O6    S    
C21   H2    S    
C36   C37   S    
C33   H18   S    
C31   H14   S    
C16   O9    A    
C15   C19   A    
C8    C9    A    
C23   C34   A    
C1    O5    A    
C10   C11   A    
Cu2   O7    S    
C31   H11   S    
Cu1   Cu2   S    
C10   C16   S    
C25   C26   A    
C14   H38   S    
C20   H42   S    
C38   H27   S    
C39   H30   S    
C1    O1    A    
C22   O11   A    
C30   H9    S    
C19   C20   S    
