data_mof_unit_57893.cif
_audit_creation_date              2012-12-10T17:22:35-0500
_audit_creation_method            fapswitch 2.2
_symmetry_space_group_name_H-M    P1
_symmetry_Int_Tables_number       1
_space_group_crystal_system       triclinic
_cell_length_a                    26.185127
_cell_length_b                    36.037121
_cell_length_c                    25.858346
_cell_angle_alpha                 89.998712
_cell_angle_beta                  89.997861
_cell_angle_gamma                 89.995144
_cell_volume                      24400.8813342

loop_
_atom_site_label
_atom_site_type_symbol
_atom_type_description
_atom_site_fract_x
_atom_site_fract_y
_atom_site_fract_z
_atom_type_partial_charge
C1    C     C_R   0.499978 0.150581 0.249989 0.801611
C2    C     C_R   0.499993 0.150587 0.750007 0.818995
C3    C     C_R   0.499969 0.849420 0.749995 0.799338
C4    C     C_R   0.499990 0.849408 0.249978 0.805499
C5    C     C_R   0.499986 0.650580 0.749978 0.801981
C6    C     C_R   0.500001 0.650588 0.250030 0.816098
C7    C     C_R   0.499981 0.349418 0.250017 0.793196
C8    C     C_R   0.499999 0.349409 0.749967 0.804105
C9    C     C_R   0.999988 0.150580 0.749977 0.802151
C10   C     C_R   1.000000 0.150588 0.250028 0.816096
C11   C     C_R   0.999980 0.849418 0.250015 0.793200
C12   C     C_R   0.000000 0.849409 0.749966 0.805566
C13   C     C_R   0.999985 0.650580 0.249979 0.801918
C14   C     C_R   0.999998 0.650587 0.750028 0.815897
C15   C     C_R   0.999977 0.349418 0.750015 0.793006
C16   C     C_R   0.999998 0.349408 0.249968 0.805499
C17   C     C_R   0.274772 0.225326 0.217525 -0.062876
C18   C     C_R   0.274628 0.228186 0.786263 -0.064551
C19   C     C_R   0.274763 0.774757 0.782383 -0.062754
C20   C     C_R   0.274618 0.771735 0.213634 -0.068843
C21   C     C_R   0.274770 0.725297 0.717571 -0.063095
C22   C     C_R   0.274614 0.728296 0.286398 -0.062847
C23   C     C_R   0.274772 0.274684 0.282487 -0.065588
C24   C     C_R   0.274623 0.271794 0.713700 -0.068494
C25   C     C_R   0.774884 0.226085 0.716464 -0.062723
C26   C     C_R   0.774607 0.228350 0.286465 -0.062880
C27   C     C_R   0.774777 0.774647 0.282541 -0.065629
C28   C     C_R   0.774614 0.771723 0.713617 -0.068628
C29   C     C_R   0.774776 0.725362 0.217473 -0.063107
C30   C     C_R   0.774624 0.728244 0.786334 -0.063146
C31   C     C_R   0.774843 0.274099 0.783319 -0.065260
C32   C     C_R   0.774617 0.271712 0.213610 -0.068989
C33   C     C_R   0.196003 0.250016 0.249998 -0.079841
C34   C     C_R   0.195891 0.249994 0.749993 -0.077837
C35   C     C_R   0.195999 0.750027 0.749978 -0.080132
C36   C     C_R   0.195884 0.750008 0.250005 -0.078409
C37   C     C_R   0.696069 0.250044 0.749921 -0.081836
C38   C     C_R   0.695881 0.250017 0.250010 -0.078465
C39   C     C_R   0.696007 0.750016 0.249998 -0.079903
C40   C     C_R   0.695886 0.749990 0.749993 -0.078685
C41   C     C_R   0.303042 0.250006 0.250000 -0.159566
C42   C     C_R   0.302937 0.249994 0.749985 -0.158921
C43   C     C_R   0.303039 0.750022 0.749980 -0.160234
C44   C     C_R   0.302930 0.750011 0.250012 -0.159404
C45   C     C_R   0.803106 0.250069 0.749930 -0.159414
C46   C     C_R   0.802927 0.250021 0.250028 -0.159365
C47   C     C_R   0.803046 0.750005 0.250001 -0.159597
C48   C     C_R   0.802932 0.749990 0.749981 -0.159399
C49   C     C_3   0.494291 0.477660 0.312143 -0.238903
C50   C     C_3   0.484859 0.477606 0.689740 -0.248020
C51   C     C_3   0.493003 0.522355 0.687936 -0.280128
C52   C     C_3   0.502669 0.522406 0.312620 -0.287921
C53   C     C_3   0.470136 0.977662 0.694382 -0.257270
C54   C     C_3   0.482199 0.977609 0.190701 -0.242297
C55   C     C_3   0.490253 0.022355 0.188537 -0.274245
C56   C     C_3   0.462977 0.022424 0.698811 -0.303185
C57   C     C_3   0.990521 0.477659 0.811555 -0.240098
C58   C     C_3   0.984674 0.477607 0.189812 -0.248682
C59   C     C_3   0.992811 0.522355 0.187983 -0.280303
C60   C     C_3   0.998853 0.522406 0.812552 -0.288158
C61   C     C_3   0.994222 0.977662 0.312109 -0.239449
C62   C     C_3   0.985299 0.977606 0.689625 -0.248121
C63   C     C_3   0.993455 0.022355 0.687878 -0.281364
C64   C     C_3   0.002597 0.022406 0.312595 -0.288395
C65   C     C_3   0.457473 0.478483 0.219596 0.258898
C66   C     C_3   0.462889 0.478424 0.787002 0.255983
C67   C     C_3   0.457290 0.521190 0.780725 0.316061
C68   C     C_3   0.452934 0.521250 0.226702 0.313505
C69   C     C_3   0.552369 0.978476 0.749332 0.257161
C70   C     C_3   0.464480 0.978423 0.288846 0.256020
C71   C     C_3   0.458619 0.021192 0.282831 0.315207
C72   C     C_3   0.552124 0.021242 0.740826 0.313895
C73   C     C_3   0.959408 0.478480 0.716873 0.259089
C74   C     C_3   0.963004 0.478423 0.287141 0.255915
C75   C     C_3   0.957386 0.521189 0.280884 0.316012
C76   C     C_3   0.954451 0.521251 0.723674 0.313375
C77   C     C_3   0.957508 0.978483 0.219528 0.258982
C78   C     C_3   0.962666 0.978423 0.786731 0.256660
C79   C     C_3   0.957110 0.021189 0.780416 0.317368
C80   C     C_3   0.952963 0.021249 0.226627 0.313720
C81   C     C_1   0.000683 0.111048 0.250809 -0.090379
C82   C     C_1   0.000609 0.111022 0.749206 -0.129028
C83   C     C_1   0.000684 0.888943 0.749153 -0.050448
C84   C     C_1   0.000688 0.888969 0.250834 -0.090616
C85   C     C_1   0.000645 0.611046 0.750790 -0.089977
C86   C     C_1   0.000589 0.611023 0.249220 -0.129661
C87   C     C_1   0.000665 0.388943 0.249166 -0.050592
C88   C     C_1   0.000645 0.388970 0.750817 -0.090489
C89   C     C_1   0.499167 0.111047 0.749113 -0.093082
C90   C     C_1   0.500525 0.111023 0.249296 -0.130704
C91   C     C_1   0.500598 0.888943 0.249242 -0.051247
C92   C     C_1   0.499079 0.888972 0.749092 -0.095669
C93   C     C_1   0.500687 0.611047 0.250819 -0.090183
C94   C     C_1   0.500594 0.611022 0.749210 -0.129613
C95   C     C_1   0.500668 0.388944 0.749159 -0.051482
C96   C     C_1   0.500691 0.388970 0.250843 -0.090586
C97   C     C_3   0.502402 0.463220 0.254112 -0.206839
C98   C     C_3   0.501896 0.463174 0.745749 -0.216733
C99   C     C_3   0.501629 0.536709 0.745842 -0.158021
C100  C     C_3   0.502163 0.536755 0.254056 -0.165245
C101  C     C_3   0.496022 0.963223 0.746814 -0.200593
C102  C     C_3   0.501656 0.963175 0.245892 -0.218567
C103  C     C_3   0.501394 0.036709 0.245999 -0.158982
C104  C     C_3   0.496275 0.036757 0.746708 -0.159927
C105  C     C_3   0.002152 0.463221 0.754135 -0.206739
C106  C     C_3   0.001883 0.463174 0.245765 -0.216865
C107  C     C_3   0.001615 0.536709 0.245862 -0.157957
C108  C     C_3   0.001921 0.536751 0.754061 -0.165686
C109  C     C_3   0.002396 0.963220 0.254093 -0.206598
C110  C     C_3   0.001953 0.963174 0.745752 -0.217718
C111  C     C_3   0.001684 0.036709 0.745844 -0.158818
C112  C     C_3   0.002157 0.036756 0.254036 -0.164992
C113  C     C_3   0.050494 0.021717 0.223498 0.753278
C114  C     C_3   0.054008 0.021668 0.768696 0.753315
C115  C     C_3   0.056676 0.978153 0.760980 0.759330
C116  C     C_3   0.054257 0.978208 0.230744 0.755936
C117  C     C_3   0.052004 0.521714 0.726539 0.754676
C118  C     C_3   0.054162 0.521668 0.268180 0.754306
C119  C     C_3   0.056753 0.478153 0.260438 0.760124
C120  C     C_3   0.055324 0.478202 0.734003 0.756055
C121  C     C_3   0.473716 0.021718 0.799691 0.760189
C122  C     C_3   0.554799 0.021668 0.266120 0.754875
C123  C     C_3   0.557073 0.978152 0.258282 0.760363
C124  C     C_3   0.466515 0.978224 0.795907 0.763264
C125  C     C_3   0.550468 0.521717 0.223459 0.753509
C126  C     C_3   0.554106 0.521668 0.768327 0.754336
C127  C     C_3   0.556721 0.478153 0.760595 0.760048
C128  C     C_3   0.554240 0.478207 0.230702 0.756165
C129  C     C_1   0.001345 0.077744 0.251988 -0.037751
C130  C     C_1   0.001140 0.077709 0.747984 -0.042208
C131  C     C_1   0.001293 0.922240 0.747891 0.011837
C132  C     C_1   0.001429 0.922274 0.252060 0.004587
C133  C     C_1   0.001237 0.577740 0.751976 -0.037695
C134  C     C_1   0.001098 0.577709 0.248003 -0.042083
C135  C     C_1   0.001250 0.422241 0.247908 0.012007
C136  C     C_1   0.001310 0.422276 0.752056 0.004733
C137  C     C_1   0.498070 0.077744 0.748085 -0.039624
C138  C     C_1   0.500971 0.077709 0.248130 -0.041869
C139  C     C_1   0.501115 0.922241 0.248030 0.012598
C140  C     C_1   0.497897 0.922277 0.748088 0.001755
C141  C     C_1   0.501349 0.577743 0.252007 -0.037632
C142  C     C_1   0.501106 0.577709 0.747986 -0.041995
C143  C     C_1   0.501256 0.422241 0.747894 0.012132
C144  C     C_1   0.501432 0.422275 0.252076 0.004704
C145  C     C_R   0.538898 0.187554 0.053913 -0.103981
C146  C     C_R   0.538720 0.187462 0.946221 -0.141787
C147  C     C_R   0.539180 0.812361 0.946129 -0.103013
C148  C     C_R   0.538872 0.812476 0.053822 -0.140400
C149  C     C_R   0.537230 0.687010 0.553877 -0.107985
C150  C     C_R   0.536963 0.686914 0.446200 -0.145021
C151  C     C_R   0.536419 0.313236 0.446108 -0.104816
C152  C     C_R   0.536139 0.313357 0.553778 -0.143146
C153  C     C_R   0.038125 0.187271 0.553888 -0.107845
C154  C     C_R   0.037870 0.187165 0.446201 -0.145302
C155  C     C_R   0.037880 0.812814 0.446108 -0.103881
C156  C     C_R   0.037629 0.812918 0.553793 -0.143164
C157  C     C_R   0.038118 0.687268 0.053887 -0.106677
C158  C     C_R   0.037866 0.687164 0.946200 -0.144652
C159  C     C_R   0.037990 0.312778 0.946108 -0.104252
C160  C     C_R   0.037735 0.312883 0.053794 -0.142773
C161  C     C_R   0.499995 0.249971 0.389874 0.797425
C162  C     C_R   0.500020 0.249996 0.610119 0.783331
C163  C     C_R   0.500014 0.750018 0.610132 0.798879
C164  C     C_R   0.499998 0.750019 0.389884 0.784147
C165  C     C_R   0.500023 0.749993 0.889871 0.798393
C166  C     C_R   0.500014 0.749995 0.110121 0.782796
C167  C     C_R   0.500008 0.250020 0.110132 0.798917
C168  C     C_R   0.500025 0.249998 0.889881 0.784132
C169  C     C_R   0.000028 0.250000 0.889870 0.797160
C170  C     C_R   0.000033 0.250012 0.110118 0.782629
C171  C     C_R   0.000025 0.750005 0.110130 0.799029
C172  C     C_R   0.000029 0.749993 0.889880 0.784250
C173  C     C_R   0.000027 0.749999 0.389871 0.797142
C174  C     C_R   0.000034 0.750012 0.610118 0.782575
C175  C     C_R   0.000024 0.250006 0.610130 0.799447
C176  C     C_R   0.000028 0.249993 0.389880 0.784285
C177  C     C_R   0.557811 0.157035 0.026955 -0.113516
C178  C     C_R   0.557706 0.156983 0.973234 -0.103044
C179  C     C_R   0.558171 0.842847 0.973106 -0.101691
C180  C     C_R   0.557977 0.842919 0.026828 -0.102852
C181  C     C_R   0.555235 0.656206 0.526908 -0.104079
C182  C     C_R   0.555076 0.656150 0.473191 -0.100132
C183  C     C_R   0.553984 0.344178 0.473059 -0.091049
C184  C     C_R   0.553815 0.344248 0.526773 -0.092834
C185  C     C_R   0.056574 0.156603 0.526922 -0.103023
C186  C     C_R   0.056420 0.156541 0.473202 -0.099861
C187  C     C_R   0.056180 0.843527 0.473070 -0.090533
C188  C     C_R   0.056029 0.843588 0.526790 -0.091475
C189  C     C_R   0.056565 0.656600 0.026922 -0.104210
C190  C     C_R   0.056413 0.656538 0.973202 -0.101006
C191  C     C_R   0.056343 0.343474 0.973071 -0.092497
C192  C     C_R   0.056189 0.343536 0.026791 -0.092656
C193  C     C_R   0.518867 0.218714 0.972768 0.060362
C194  C     C_R   0.518921 0.218744 0.027312 0.083865
C195  C     C_R   0.518964 0.781251 0.027255 0.062339
C196  C     C_R   0.519056 0.781218 0.972711 0.080787
C197  C     C_R   0.517969 0.718453 0.472758 0.062856
C198  C     C_R   0.518053 0.718480 0.527298 0.083268
C199  C     C_R   0.517555 0.281682 0.527238 0.061740
C200  C     C_R   0.517636 0.281643 0.472699 0.081613
C201  C     C_R   0.018451 0.218563 0.472756 0.062831
C202  C     C_R   0.018529 0.218596 0.527300 0.083022
C203  C     C_R   0.018337 0.781479 0.527241 0.061873
C204  C     C_R   0.018411 0.781447 0.472698 0.081809
C205  C     C_R   0.018450 0.718563 0.972756 0.062784
C206  C     C_R   0.018526 0.718595 0.027299 0.083352
C207  C     C_R   0.018391 0.281462 0.027241 0.062037
C208  C     C_R   0.018468 0.281429 0.972698 0.081963
C209  C     C_R   0.500014 0.250058 0.945993 -0.089925
C210  C     C_R   0.500034 0.250083 0.054043 -0.069578
C211  C     C_R   0.499996 0.749943 0.054015 -0.088582
C212  C     C_R   0.500043 0.749927 0.945965 -0.068764
C213  C     C_R   0.499990 0.750079 0.445997 -0.089964
C214  C     C_R   0.500044 0.750092 0.554045 -0.069040
C215  C     C_R   0.500011 0.249931 0.554014 -0.088904
C216  C     C_R   0.500020 0.249907 0.445968 -0.067853
C217  C     C_R   0.000009 0.250043 0.445989 -0.089697
C218  C     C_R   0.000045 0.250064 0.554038 -0.068930
C219  C     C_R   0.000005 0.749967 0.554010 -0.087758
C220  C     C_R   0.000038 0.749946 0.445962 -0.067005
C221  C     C_R   0.000010 0.750043 0.945989 -0.089834
C222  C     C_R   0.000045 0.750064 0.054038 -0.069249
C223  C     C_R   0.000003 0.249967 0.054009 -0.087962
C224  C     C_R   0.000037 0.249947 0.945961 -0.066911
C225  C     C_R   0.481388 0.281511 0.972780 0.041604
C226  C     C_R   0.481380 0.281517 0.027241 0.040996
C227  C     C_R   0.481217 0.718545 0.027220 0.041379
C228  C     C_R   0.481219 0.718545 0.972759 0.041172
C229  C     C_R   0.482275 0.781814 0.472802 0.041760
C230  C     C_R   0.482290 0.781815 0.527261 0.040461
C231  C     C_R   0.482704 0.218071 0.527236 0.044040
C232  C     C_R   0.482654 0.218076 0.472778 0.041487
C233  C     C_R   0.981745 0.281608 0.472782 0.041236
C234  C     C_R   0.981740 0.281610 0.527241 0.041358
C235  C     C_R   0.981785 0.718389 0.527219 0.041401
C236  C     C_R   0.981785 0.718386 0.472761 0.041185
C237  C     C_R   0.981748 0.781609 0.972781 0.041324
C238  C     C_R   0.981743 0.781611 0.027240 0.041024
C239  C     C_R   0.981722 0.218409 0.027219 0.041391
C240  C     C_R   0.981722 0.218406 0.972760 0.041472
C241  C     C_R   0.461895 0.312814 0.946191 -0.376561
C242  C     C_R   0.461855 0.312814 0.053818 -0.373625
C243  C     C_R   0.461546 0.687302 0.053803 -0.377516
C244  C     C_R   0.461536 0.687308 0.946174 -0.374017
C245  C     C_R   0.463630 0.813406 0.446240 -0.377246
C246  C     C_R   0.463659 0.813405 0.553853 -0.372803
C247  C     C_R   0.464518 0.186343 0.553827 -0.384481
C248  C     C_R   0.464320 0.186386 0.446221 -0.375255
C249  C     C_R   0.962574 0.313021 0.446199 -0.376404
C250  C     C_R   0.962536 0.313014 0.553819 -0.372703
C251  C     C_R   0.962628 0.686974 0.553804 -0.377113
C252  C     C_R   0.962613 0.686973 0.446185 -0.373869
C253  C     C_R   0.962577 0.813022 0.946198 -0.376498
C254  C     C_R   0.962541 0.813015 0.053818 -0.373457
C255  C     C_R   0.962505 0.187013 0.053803 -0.377227
C256  C     C_R   0.962490 0.187013 0.946183 -0.372994
C257  C     C_R   0.443303 0.343913 0.973015 0.511522
C258  C     C_R   0.443275 0.343910 0.026980 0.512235
C259  C     C_R   0.442757 0.656272 0.026970 0.510451
C260  C     C_R   0.442751 0.656275 0.973005 0.511901
C261  C     C_R   0.446017 0.844801 0.473079 0.509535
C262  C     C_R   0.446034 0.844802 0.527041 0.515925
C263  C     C_R   0.447302 0.154826 0.527019 0.505789
C264  C     C_R   0.447154 0.154863 0.473061 0.513251
C265  C     C_R   0.944329 0.344226 0.473026 0.511650
C266  C     C_R   0.944301 0.344220 0.526988 0.512135
C267  C     C_R   0.944388 0.655768 0.526980 0.510885
C268  C     C_R   0.944379 0.655769 0.473017 0.511818
C269  C     C_R   0.944331 0.844227 0.973025 0.511348
C270  C     C_R   0.944304 0.844221 0.026987 0.512033
C271  C     C_R   0.944196 0.155830 0.026977 0.510168
C272  C     C_R   0.944188 0.155830 0.973015 0.511668
C273  C     C_R   0.640039 0.250000 0.249998 0.743376
C274  C     C_R   0.640110 0.250006 0.749987 0.745247
C275  C     C_R   0.640041 0.749999 0.750001 0.743264
C276  C     C_R   0.640086 0.750008 0.249992 0.743918
C277  C     C_R   0.140043 0.249999 0.749999 0.743234
C278  C     C_R   0.140085 0.250008 0.249992 0.743810
C279  C     C_R   0.140040 0.750000 0.250000 0.743293
C280  C     C_R   0.140083 0.750010 0.749989 0.743605
C281  C     C_R   0.359560 0.250002 0.250000 0.780209
C282  C     C_R   0.359521 0.249998 0.749996 0.779151
C283  C     C_R   0.359559 0.750006 0.749996 0.781297
C284  C     C_R   0.359519 0.750003 0.250003 0.780075
C285  C     C_R   0.859584 0.250017 0.749986 0.780002
C286  C     C_R   0.859517 0.250005 0.250007 0.779857
C287  C     C_R   0.859561 0.750001 0.250000 0.779995
C288  C     C_R   0.859519 0.749998 0.749995 0.779692
C289  C     C_R   0.293946 0.205644 0.173974 0.475430
C290  C     C_R   0.293762 0.198137 0.816214 0.476146
C291  C     C_R   0.293930 0.794478 0.825899 0.475279
C292  C     C_R   0.293748 0.801711 0.183539 0.474797
C293  C     C_R   0.293945 0.705555 0.674072 0.475593
C294  C     C_R   0.293743 0.698328 0.316510 0.474910
C295  C     C_R   0.293945 0.294323 0.326073 0.477334
C296  C     C_R   0.293752 0.301831 0.683724 0.474618
C297  C     C_R   0.794123 0.207367 0.672126 0.476002
C298  C     C_R   0.793732 0.198423 0.316657 0.474896
C299  C     C_R   0.793952 0.794235 0.326170 0.477453
C300  C     C_R   0.793741 0.801702 0.683526 0.474509
C301  C     C_R   0.793952 0.705728 0.173880 0.475496
C302  C     C_R   0.793760 0.698247 0.816384 0.475059
C303  C     C_R   0.794045 0.292910 0.827594 0.477748
C304  C     C_R   0.793750 0.301663 0.183469 0.474728
C305  C     C_R   0.270499 0.172479 0.159394 -0.301407
C306  C     C_R   0.270408 0.189718 0.863278 -0.296166
C307  C     C_R   0.270490 0.827661 0.840413 -0.299259
C308  C     C_R   0.270399 0.810016 0.136436 -0.293132
C309  C     C_R   0.270502 0.672367 0.659583 -0.301306
C310  C     C_R   0.270391 0.690040 0.363619 -0.300273
C311  C     C_R   0.270498 0.327474 0.340720 -0.289032
C312  C     C_R   0.270394 0.310236 0.636658 -0.291685
C313  C     C_R   0.770649 0.174566 0.656072 -0.300181
C314  C     C_R   0.770379 0.190200 0.363789 -0.300939
C315  C     C_R   0.770503 0.827368 0.340893 -0.289365
C316  C     C_R   0.770387 0.810011 0.636425 -0.293546
C317  C     C_R   0.770500 0.672583 0.159222 -0.301143
C318  C     C_R   0.770414 0.689909 0.863479 -0.300010
C319  C     C_R   0.770546 0.325741 0.843506 -0.287165
C320  C     C_R   0.770409 0.309928 0.136348 -0.291910
C321  C     C_R   0.227395 0.159322 0.186077 0.429082
C322  C     C_R   0.227191 0.209496 0.879937 0.426026
C323  C     C_R   0.227376 0.840793 0.813725 0.432040
C324  C     C_R   0.227176 0.790211 0.119877 0.424165
C325  C     C_R   0.227397 0.659248 0.686297 0.428940
C326  C     C_R   0.227159 0.709849 0.380161 0.426948
C327  C     C_R   0.227387 0.340659 0.314078 0.427274
C328  C     C_R   0.227175 0.290459 0.620020 0.424271
C329  C     C_R   0.727604 0.160783 0.682239 0.426596
C330  C     C_R   0.727140 0.210025 0.380272 0.426897
C331  C     C_R   0.727396 0.840586 0.314275 0.426996
C332  C     C_R   0.727160 0.790208 0.619869 0.423773
C333  C     C_R   0.727400 0.659394 0.185880 0.428768
C334  C     C_R   0.727189 0.709704 0.880070 0.426633
C335  C     C_R   0.727480 0.339451 0.817298 0.427047
C336  C     C_R   0.727186 0.290111 0.119818 0.423973
C337  C     C_R   0.203527 0.182592 0.222897 -0.040547
C338  C     C_R   0.203137 0.234332 0.845293 -0.039039
C339  C     C_R   0.203486 0.817484 0.776970 -0.040506
C340  C     C_R   0.203114 0.765468 0.154642 -0.039177
C341  C     C_R   0.203523 0.682572 0.723048 -0.040210
C342  C     C_R   0.203094 0.734577 0.345375 -0.039160
C343  C     C_R   0.203510 0.317428 0.277217 -0.039389
C344  C     C_R   0.203125 0.265637 0.654685 -0.039446
C345  C     C_R   0.703805 0.183173 0.720155 -0.041447
C346  C     C_R   0.703071 0.234698 0.345415 -0.039081
C347  C     C_R   0.703523 0.817401 0.277356 -0.039260
C348  C     C_R   0.703100 0.765465 0.654635 -0.039427
C349  C     C_R   0.703538 0.682620 0.222760 -0.040407
C350  C     C_R   0.703122 0.734472 0.845340 -0.039356
C351  C     C_R   0.703686 0.316968 0.779490 -0.039715
C352  C     C_R   0.703115 0.265402 0.154624 -0.039351
C353  C     C_R   0.223761 0.218857 0.231142 -0.129430
C354  C     C_R   0.223578 0.238280 0.794439 -0.128658
C355  C     C_R   0.223744 0.781215 0.768759 -0.129162
C356  C     C_R   0.223567 0.761626 0.205508 -0.128146
C357  C     C_R   0.223759 0.718845 0.731203 -0.129358
C358  C     C_R   0.223559 0.738405 0.294511 -0.129522
C359  C     C_R   0.223756 0.281170 0.268884 -0.129807
C360  C     C_R   0.223572 0.261701 0.705538 -0.127961
C361  C     C_R   0.723894 0.219293 0.729825 -0.129650
C362  C     C_R   0.723548 0.238466 0.294546 -0.129664
C363  C     C_R   0.723761 0.781149 0.268950 -0.129828
C364  C     C_R   0.723561 0.761617 0.705496 -0.128567
C365  C     C_R   0.723766 0.718877 0.231077 -0.129496
C366  C     C_R   0.723571 0.738348 0.794476 -0.129697
C367  C     C_R   0.723839 0.280843 0.769936 -0.130079
C368  C     C_R   0.723566 0.261597 0.205497 -0.128280
H1    H     H_    0.286158 0.343064 0.372838 0.189062
H2    H     H_    0.286083 0.332270 0.612997 0.191796
H3    H     H_    0.286160 0.656700 0.627535 0.183384
H4    H     H_    0.286084 0.668063 0.387383 0.184280
H5    H     H_    0.286150 0.843313 0.872471 0.183114
H6    H     H_    0.286091 0.832001 0.112688 0.190355
H7    H     H_    0.286155 0.156855 0.127304 0.182935
H8    H     H_    0.286100 0.167675 0.886922 0.185406
H9    H     H_    0.786198 0.340715 0.876192 0.188916
H10   H     H_    0.786106 0.331891 0.112565 0.191783
H11   H     H_    0.786155 0.656996 0.127096 0.183529
H12   H     H_    0.786112 0.667908 0.887196 0.184717
H13   H     H_    0.786162 0.842920 0.373046 0.188848
H14   H     H_    0.786078 0.831996 0.612678 0.191344
H15   H     H_    0.786319 0.159664 0.623330 0.182335
H16   H     H_    0.786072 0.168256 0.387612 0.183760
H17   H     H_    0.540549 0.186462 0.095684 0.122318
H18   H     H_    0.540190 0.186278 0.904449 0.131650
H19   H     H_    0.540874 0.813441 0.904358 0.125325
H20   H     H_    0.540282 0.813669 0.095596 0.127791
H21   H     H_    0.538965 0.685901 0.595640 0.123364
H22   H     H_    0.538453 0.685710 0.404433 0.128778
H23   H     H_    0.538181 0.314345 0.404347 0.125457
H24   H     H_    0.537646 0.314580 0.595540 0.130180
H25   H     H_    0.039822 0.186175 0.595656 0.122925
H26   H     H_    0.039328 0.185966 0.404431 0.128198
H27   H     H_    0.039577 0.813913 0.404340 0.124301
H28   H     H_    0.039092 0.814120 0.595562 0.129445
H29   H     H_    0.039814 0.686172 0.095655 0.122739
H30   H     H_    0.039326 0.685965 0.904430 0.128176
H31   H     H_    0.039686 0.313876 0.904340 0.123624
H32   H     H_    0.039192 0.314085 0.095564 0.128990
H33   H     H_    0.572875 0.133420 0.047864 0.151054
H34   H     H_    0.572689 0.133325 0.952365 0.163882
H35   H     H_    0.573355 0.866424 0.952213 0.159657
H36   H     H_    0.572984 0.866562 0.047711 0.157365
H37   H     H_    0.569661 0.632377 0.547806 0.151767
H38   H     H_    0.569368 0.632271 0.452307 0.155173
H39   H     H_    0.568085 0.368104 0.452149 0.160408
H40   H     H_    0.567773 0.368234 0.547645 0.160986
H41   H     H_    0.071322 0.132880 0.547825 0.152753
H42   H     H_    0.071038 0.132764 0.452323 0.155639
H43   H     H_    0.070810 0.867287 0.452165 0.160200
H44   H     H_    0.070530 0.867401 0.547667 0.161947
H45   H     H_    0.071310 0.632876 0.047824 0.151619
H46   H     H_    0.071030 0.632761 0.952322 0.154974
H47   H     H_    0.071014 0.367221 0.952167 0.158061
H48   H     H_    0.070729 0.367337 0.047668 0.160287
H49   H     H_    0.460621 0.313420 0.904395 0.148315
H50   H     H_    0.460555 0.313418 0.095613 0.146199
H51   H     H_    0.460275 0.686697 0.095600 0.148968
H52   H     H_    0.460260 0.686708 0.904377 0.146346
H53   H     H_    0.462255 0.814024 0.404452 0.149640
H54   H     H_    0.462310 0.814021 0.595642 0.148939
H55   H     H_    0.463186 0.185703 0.595613 0.148971
H56   H     H_    0.462847 0.185783 0.404438 0.147707
H57   H     H_    0.961266 0.313633 0.404406 0.148763
H58   H     H_    0.961202 0.313619 0.595612 0.146530
H59   H     H_    0.961307 0.686365 0.595596 0.149445
H60   H     H_    0.961284 0.686364 0.404393 0.146844
H61   H     H_    0.961269 0.813634 0.904406 0.148720
H62   H     H_    0.961208 0.813621 0.095611 0.146577
H63   H     H_    0.961189 0.186406 0.095596 0.149515
H64   H     H_    0.961165 0.186406 0.904390 0.146670
H65   H     H_    0.420403 0.465923 0.231736 0.059318
H66   H     H_    0.424399 0.465860 0.780918 0.062051
H67   H     H_    0.419928 0.526447 0.761435 -0.003295
H68   H     H_    0.419052 0.526510 0.251729 -0.001213
H69   H     H_    0.576049 0.965891 0.718019 0.061870
H70   H     H_    0.425762 0.965861 0.284482 0.063259
H71   H     H_    0.420452 0.026454 0.265235 -0.002422
H72   H     H_    0.565902 0.026474 0.700706 0.012115
H73   H     H_    0.921666 0.465926 0.726681 0.059714
H74   H     H_    0.924495 0.465859 0.281179 0.062086
H75   H     H_    0.919964 0.526447 0.261715 -0.003049
H76   H     H_    0.919104 0.526515 0.746531 -0.001431
H77   H     H_    0.920426 0.965922 0.231624 0.058864
H78   H     H_    0.924218 0.965859 0.780379 0.060404
H79   H     H_    0.919879 0.026446 0.760866 -0.005270
H80   H     H_    0.919052 0.026511 0.251614 -0.001741
O1    O     O_3   0.500010 0.250000 0.250000 -0.510046
O2    O     O_3   0.500010 0.250000 0.750000 -0.510879
O3    O     O_3   0.500010 0.750000 0.750000 -0.508879
O4    O     O_3   0.500010 0.750000 0.250000 -0.511386
O5    O     O_3   0.000010 0.250000 0.750000 -0.510390
O6    O     O_3   0.000010 0.250000 0.250000 -0.511545
O7    O     O_3   0.000010 0.750000 0.250000 -0.510230
O8    O     O_3   0.000010 0.750000 0.750000 -0.511602
O9    O     O_R   0.469630 0.168010 0.219620 -0.637369
O10   O     O_R   0.469630 0.168010 0.780380 -0.622597
O11   O     O_R   0.469630 0.831990 0.780380 -0.631775
O12   O     O_R   0.469630 0.831990 0.219620 -0.613100
O13   O     O_R   0.469630 0.668010 0.719620 -0.637464
O14   O     O_R   0.469630 0.668010 0.280380 -0.630558
O15   O     O_R   0.469630 0.331990 0.280380 -0.618490
O16   O     O_R   0.469630 0.331990 0.719620 -0.612678
O17   O     O_R   0.969630 0.168010 0.719620 -0.638303
O18   O     O_R   0.969630 0.168010 0.280380 -0.630506
O19   O     O_R   0.969630 0.831990 0.280380 -0.618346
O20   O     O_R   0.969630 0.831990 0.719620 -0.612782
O21   O     O_R   0.969630 0.668010 0.219620 -0.637330
O22   O     O_R   0.969630 0.668010 0.780380 -0.630463
O23   O     O_R   0.969630 0.331990 0.780380 -0.618569
O24   O     O_R   0.969630 0.331990 0.219620 -0.612728
O25   O     O_R   0.530360 0.228500 0.365800 -0.606442
O26   O     O_R   0.530360 0.228500 0.634200 -0.628741
O27   O     O_R   0.530360 0.771500 0.634200 -0.603734
O28   O     O_R   0.530360 0.771500 0.365800 -0.624941
O29   O     O_R   0.530360 0.728500 0.865800 -0.604851
O30   O     O_R   0.530360 0.728500 0.134200 -0.625712
O31   O     O_R   0.530360 0.271500 0.134200 -0.604332
O32   O     O_R   0.530360 0.271500 0.865800 -0.624201
O33   O     O_R   0.030360 0.228500 0.865800 -0.605943
O34   O     O_R   0.030360 0.228500 0.134200 -0.626223
O35   O     O_R   0.030360 0.771500 0.134200 -0.604643
O36   O     O_R   0.030360 0.771500 0.865800 -0.624932
O37   O     O_R   0.030360 0.728500 0.365800 -0.605847
O38   O     O_R   0.030360 0.728500 0.634200 -0.626075
O39   O     O_R   0.030360 0.271500 0.634200 -0.604861
O40   O     O_R   0.030360 0.271500 0.365800 -0.624840
O41   O     O_R   0.615810 0.228490 0.280360 -0.637918
O42   O     O_R   0.615810 0.228490 0.719640 -0.638122
O43   O     O_R   0.615810 0.771510 0.719640 -0.637843
O44   O     O_R   0.615810 0.771510 0.280360 -0.636970
O45   O     O_R   0.615810 0.728490 0.780360 -0.637950
O46   O     O_R   0.615810 0.728490 0.219640 -0.638223
O47   O     O_R   0.615810 0.271510 0.219640 -0.637398
O48   O     O_R   0.615810 0.271510 0.780360 -0.637363
O49   O     O_R   0.115810 0.228490 0.780360 -0.637310
O50   O     O_R   0.115810 0.228490 0.219640 -0.638184
O51   O     O_R   0.115810 0.771510 0.219640 -0.637393
O52   O     O_R   0.115810 0.771510 0.780360 -0.637454
O53   O     O_R   0.115810 0.728490 0.280360 -0.637997
O54   O     O_R   0.115810 0.728490 0.719640 -0.637764
O55   O     O_R   0.115810 0.271510 0.719640 -0.637759
O56   O     O_R   0.115810 0.271510 0.280360 -0.637007
O57   O     O_R   0.384200 0.228500 0.219630 -0.605627
O58   O     O_R   0.384200 0.228500 0.780370 -0.606121
O59   O     O_R   0.384200 0.771500 0.780370 -0.604993
O60   O     O_R   0.384200 0.771500 0.219630 -0.604667
O61   O     O_R   0.384200 0.728500 0.719630 -0.605229
O62   O     O_R   0.384200 0.728500 0.280370 -0.604628
O63   O     O_R   0.384200 0.271500 0.280370 -0.603152
O64   O     O_R   0.384200 0.271500 0.719630 -0.604183
O65   O     O_R   0.884200 0.228500 0.719630 -0.605802
O66   O     O_R   0.884200 0.228500 0.280370 -0.604709
O67   O     O_R   0.884200 0.771500 0.280370 -0.603194
O68   O     O_R   0.884200 0.771500 0.719630 -0.604380
O69   O     O_R   0.884200 0.728500 0.219630 -0.605610
O70   O     O_R   0.884200 0.728500 0.780370 -0.604792
O71   O     O_R   0.884200 0.271500 0.780370 -0.602757
O72   O     O_R   0.884200 0.271500 0.219630 -0.604512
O73   O     O_R   0.469650 0.271490 0.365810 -0.624927
O74   O     O_R   0.469650 0.271490 0.634190 -0.630459
O75   O     O_R   0.469650 0.728510 0.634190 -0.628880
O76   O     O_R   0.469650 0.728510 0.365810 -0.634289
O77   O     O_R   0.469650 0.771490 0.865810 -0.627449
O78   O     O_R   0.469650 0.771490 0.134190 -0.631573
O79   O     O_R   0.469650 0.228510 0.134190 -0.628885
O80   O     O_R   0.469650 0.228510 0.865810 -0.634191
O81   O     O_R   0.969650 0.271490 0.865810 -0.624373
O82   O     O_R   0.969650 0.271490 0.134190 -0.630561
O83   O     O_R   0.969650 0.728510 0.134190 -0.628459
O84   O     O_R   0.969650 0.728510 0.865810 -0.634093
O85   O     O_R   0.969650 0.771490 0.365810 -0.624735
O86   O     O_R   0.969650 0.771490 0.634190 -0.630630
O87   O     O_R   0.969650 0.228510 0.634190 -0.627879
O88   O     O_R   0.969650 0.228510 0.365810 -0.634139
O89   O     O_R   0.530350 0.168010 0.280340 -0.623860
O90   O     O_R   0.530350 0.168010 0.719660 -0.613641
O91   O     O_R   0.530350 0.831990 0.719660 -0.624853
O92   O     O_R   0.530350 0.831990 0.280340 -0.605341
O93   O     O_R   0.530350 0.668010 0.780340 -0.623363
O94   O     O_R   0.530350 0.668010 0.219660 -0.602255
O95   O     O_R   0.530350 0.331990 0.219660 -0.628567
O96   O     O_R   0.530350 0.331990 0.780340 -0.605331
O97   O     O_R   0.030350 0.168010 0.780340 -0.622763
O98   O     O_R   0.030350 0.168010 0.219660 -0.602427
O99   O     O_R   0.030350 0.831990 0.219660 -0.628707
O100  O     O_R   0.030350 0.831990 0.780340 -0.605475
O101  O     O_R   0.030350 0.668010 0.280340 -0.623532
O102  O     O_R   0.030350 0.668010 0.719660 -0.601750
O103  O     O_R   0.030350 0.331990 0.719660 -0.628391
O104  O     O_R   0.030350 0.331990 0.280340 -0.605277
Zn1   Zn    Zn3+2 0.456640 0.280700 0.293380 1.009411
Zn2   Zn    Zn3+2 0.456640 0.280700 0.706620 1.009280
Zn3   Zn    Zn3+2 0.456640 0.719300 0.706620 0.994412
Zn4   Zn    Zn3+2 0.456640 0.719300 0.293380 0.995562
Zn5   Zn    Zn3+2 0.456640 0.780700 0.793380 0.999382
Zn6   Zn    Zn3+2 0.456640 0.780700 0.206620 1.008629
Zn7   Zn    Zn3+2 0.456640 0.219300 0.206620 0.993534
Zn8   Zn    Zn3+2 0.456640 0.219300 0.793380 0.998885
Zn9   Zn    Zn3+2 0.956640 0.280700 0.793380 1.009571
Zn10  Zn    Zn3+2 0.956640 0.280700 0.206620 1.009704
Zn11  Zn    Zn3+2 0.956640 0.719300 0.206620 0.993986
Zn12  Zn    Zn3+2 0.956640 0.719300 0.793380 0.995507
Zn13  Zn    Zn3+2 0.956640 0.780700 0.293380 1.009411
Zn14  Zn    Zn3+2 0.956640 0.780700 0.706620 1.009537
Zn15  Zn    Zn3+2 0.956640 0.219300 0.706620 0.993533
Zn16  Zn    Zn3+2 0.956640 0.219300 0.293380 0.995468
Zn17  Zn    Zn3+2 0.543380 0.219280 0.293370 1.000410
Zn18  Zn    Zn3+2 0.543380 0.219280 0.706630 0.997539
Zn19  Zn    Zn3+2 0.543380 0.780720 0.706630 1.004455
Zn20  Zn    Zn3+2 0.543380 0.780720 0.293370 1.005335
Zn21  Zn    Zn3+2 0.543380 0.719280 0.793370 1.002154
Zn22  Zn    Zn3+2 0.543380 0.719280 0.206630 1.004123
Zn23  Zn    Zn3+2 0.543380 0.280720 0.206630 1.001736
Zn24  Zn    Zn3+2 0.543380 0.280720 0.793370 1.006404
Zn25  Zn    Zn3+2 0.043380 0.219280 0.793370 1.002131
Zn26  Zn    Zn3+2 0.043380 0.219280 0.206630 1.003815
Zn27  Zn    Zn3+2 0.043380 0.780720 0.206630 1.001476
Zn28  Zn    Zn3+2 0.043380 0.780720 0.793370 1.005084
Zn29  Zn    Zn3+2 0.043380 0.719280 0.293370 1.001121
Zn30  Zn    Zn3+2 0.043380 0.719280 0.706630 1.004475
Zn31  Zn    Zn3+2 0.043380 0.280720 0.706630 1.001597
Zn32  Zn    Zn3+2 0.043380 0.280720 0.293370 1.005418
C369  C     C_2   0.529119 0.457779 0.350802 0.725886
H81   H     H_    0.554653 0.435774 0.338693 0.029322
O105  O     O_2   0.527121 0.465305 0.396853 -0.486533
C370  C     C_2   0.513279 0.457740 0.646017 0.729419
H82   H     H_    0.540373 0.435732 0.653904 0.034256
O106  O     O_2   0.504172 0.465280 0.600856 -0.479580
C371  C     C_2   0.537789 0.536519 0.654744 0.698308
H83   H     H_    0.538635 0.565631 0.643741 0.017709
O107  O     O_2   0.573804 0.517195 0.641653 -0.479462
C372  C     C_2   0.552092 0.536552 0.338205 0.703122
H84   H     H_    0.554711 0.565685 0.348806 0.024981
O108  O     O_2   0.589638 0.517192 0.345489 -0.477254
C373  C     C_2   0.419791 0.957786 0.682611 0.730062
H85   H     H_    0.405549 0.935812 0.707296 0.035127
O109  O     O_2   0.395625 0.965288 0.643540 -0.463916
C374  C     C_2   0.508693 0.957749 0.145751 0.726734
H86   H     H_    0.536115 0.935748 0.152417 0.036111
O110  O     O_2   0.497625 0.965291 0.101043 -0.499502
C375  C     C_2   0.533549 0.036520 0.153374 0.691293
H87   H     H_    0.533901 0.065628 0.142324 0.018172
O111  O     O_2   0.568976 0.017201 0.138714 -0.483246
C376  C     C_2   0.407956 0.036571 0.706223 0.708172
H88   H     H_    0.399855 0.065706 0.699043 0.027776
O112  O     O_2   0.372966 0.017201 0.721796 -0.469314
C377  C     C_2   0.022938 0.457783 0.852323 0.728680
H89   H     H_    0.049160 0.435779 0.841832 0.028644
O113  O     O_2   0.018150 0.465314 0.898158 -0.483972
C378  C     C_2   0.012960 0.457743 0.146000 0.729809
H90   H     H_    0.040079 0.435735 0.153800 0.035194
O114  O     O_2   0.003714 0.465285 0.100868 -0.479123
C379  C     C_2   0.037493 0.536521 0.154650 0.697951
H91   H     H_    0.038303 0.565632 0.143644 0.018025
O115  O     O_2   0.073470 0.517198 0.141448 -0.479405
C380  C     C_2   0.046620 0.536554 0.841186 0.702257
H92   H     H_    0.048575 0.565681 0.851959 0.024409
O116  O     O_2   0.083667 0.517201 0.850771 -0.477892
C381  C     C_2   0.029004 0.957781 0.350805 0.726803
H93   H     H_    0.054553 0.935777 0.338728 0.029615
O117  O     O_2   0.026951 0.965310 0.396855 -0.485066
C382  C     C_2   0.014018 0.957741 0.646102 0.729428
H94   H     H_    0.041057 0.935732 0.654180 0.036535
O118  O     O_2   0.005221 0.965281 0.600879 -0.478564
C383  C     C_2   0.038468 0.036519 0.655002 0.699126
H95   H     H_    0.039390 0.065632 0.644009 0.018430
O119  O     O_2   0.074571 0.017195 0.642163 -0.474116
C384  C     C_2   0.051989 0.036554 0.338236 0.703766
H96   H     H_    0.054597 0.065687 0.348835 0.025399
O120  O     O_2   0.089524 0.017192 0.345571 -0.476075
O121  O     O_3   0.424601 0.374677 0.052590 -0.675651
H97   H     H_    0.427365 0.370574 0.090412 0.321311
O122  O     O_3   0.424667 0.374686 0.947391 -0.678086
H98   H     H_    0.427485 0.370592 0.909572 0.319993
O123  O     O_3   0.423893 0.625574 0.947386 -0.669194
H99   H     H_    0.426687 0.629671 0.909566 0.324335
O124  O     O_3   0.423900 0.625568 0.052588 -0.665492
H100  H     H_    0.426689 0.629665 0.090409 0.327717
O125  O     O_3   0.428326 0.875866 0.552670 -0.644073
H101  H     H_    0.431018 0.871734 0.590492 0.337571
O126  O     O_3   0.428287 0.875863 0.447471 -0.672473
H102  H     H_    0.430967 0.871732 0.409649 0.319808
O127  O     O_3   0.429755 0.123704 0.447455 -0.664875
H103  H     H_    0.432271 0.127883 0.409631 0.323811
O128  O     O_3   0.430114 0.123612 0.552652 -0.660552
H104  H     H_    0.432983 0.127692 0.590472 0.319751
O129  O     O_3   0.925959 0.375090 0.552603 -0.676600
H105  H     H_    0.928687 0.370972 0.590424 0.320696
O130  O     O_3   0.926022 0.375106 0.447406 -0.677951
H106  H     H_    0.928800 0.371001 0.409586 0.319925
O131  O     O_3   0.926041 0.624899 0.447404 -0.668647
H107  H     H_    0.928768 0.629016 0.409582 0.324539
O132  O     O_3   0.926059 0.624899 0.552602 -0.666076
H108  H     H_    0.928792 0.629017 0.590423 0.326732
O133  O     O_3   0.925959 0.875090 0.052602 -0.675940
H109  H     H_    0.928683 0.870971 0.090423 0.321224
O134  O     O_3   0.926023 0.875106 0.947405 -0.678559
H110  H     H_    0.928800 0.871001 0.909585 0.319700
O135  O     O_3   0.925785 0.124981 0.947400 -0.669047
H111  H     H_    0.928519 0.129096 0.909579 0.324489
O136  O     O_3   0.925798 0.124981 0.052599 -0.665305
H112  H     H_    0.928532 0.129099 0.090419 0.327916
O137  O     O_3   0.329806 0.220206 0.140596 -0.710278
H113  H     H_    0.330837 0.247475 0.145808 0.329968
O138  O     O_3   0.329192 0.173125 0.797721 -0.705121
H114  H     H_    0.329832 0.175118 0.759451 0.331395
O139  O     O_3   0.329759 0.779931 0.859326 -0.709686
H115  H     H_    0.330760 0.752655 0.854182 0.329684
O140  O     O_3   0.329149 0.826780 0.201923 -0.690271
H116  H     H_    0.329759 0.824891 0.240203 0.331249
O141  O     O_3   0.329791 0.720078 0.640645 -0.709613
H117  H     H_    0.330812 0.747354 0.645782 0.330379
O142  O     O_3   0.329140 0.673247 0.298138 -0.712698
H118  H     H_    0.329743 0.675121 0.259856 0.329904
O143  O     O_3   0.329805 0.279725 0.359422 -0.705611
H119  H     H_    0.330831 0.252460 0.354167 0.328879
O144  O     O_3   0.329176 0.326850 0.702193 -0.691043
H120  H     H_    0.329806 0.324878 0.740465 0.330517
O145  O     O_3   0.830277 0.222551 0.639617 -0.711110
H121  H     H_    0.831542 0.249672 0.646097 0.328908
O146  O     O_3   0.829113 0.173307 0.298346 -0.712983
H122  H     H_    0.829699 0.175121 0.260058 0.329867
O147  O     O_3   0.829827 0.779604 0.359474 -0.705879
H123  H     H_    0.830866 0.752346 0.354153 0.328674
O148  O     O_3   0.829142 0.826771 0.701910 -0.692065
H124  H     H_    0.829749 0.824882 0.740190 0.330231
O149  O     O_3   0.829827 0.720323 0.140546 -0.709809
H125  H     H_    0.830871 0.747585 0.145822 0.329821
O150  O     O_3   0.829170 0.673193 0.797963 -0.712452
H126  H     H_    0.829788 0.675115 0.759686 0.329751
O151  O     O_3   0.830151 0.277784 0.860209 -0.706881
H127  H     H_    0.831371 0.250643 0.853879 0.327634
O152  O     O_3   0.829141 0.326753 0.201820 -0.690679
H128  H     H_    0.829742 0.324896 0.240104 0.330794
O153  O     O_3   0.707674 0.126332 0.670316 -0.685501
H129  H     H_    0.729164 0.114508 0.643368 0.339002
O154  O     O_3   0.707166 0.204763 0.429182 -0.678287
H130  H     H_    0.728882 0.186868 0.448309 0.338323
O155  O     O_3   0.707429 0.875250 0.324886 -0.671948
H131  H     H_    0.728981 0.887648 0.351272 0.342908
O156  O     O_3   0.707191 0.795557 0.570976 -0.675584
H132  H     H_    0.728897 0.813493 0.551917 0.340790
O157  O     O_3   0.707433 0.624720 0.175354 -0.676060
H133  H     H_    0.728976 0.612293 0.148983 0.341274
O158  O     O_3   0.707231 0.704328 0.928962 -0.677082
H134  H     H_    0.728943 0.686378 0.947994 0.339323
O159  O     O_3   0.707512 0.373916 0.829097 -0.670879
H135  H     H_    0.729006 0.385811 0.855976 0.344080
O160  O     O_3   0.707230 0.295414 0.070910 -0.675471
H136  H     H_    0.728945 0.313329 0.051821 0.340851
O161  O     O_3   0.207430 0.124635 0.175629 -0.676083
H137  H     H_    0.228980 0.112176 0.149292 0.341117
O162  O     O_3   0.207231 0.204040 0.928812 -0.676814
H138  H     H_    0.228933 0.186050 0.947781 0.339230
O163  O     O_3   0.207413 0.875491 0.824122 -0.668332
H139  H     H_    0.228982 0.887979 0.850412 0.343413
O164  O     O_3   0.207214 0.795555 0.070980 -0.675923
H140  H     H_    0.228921 0.813491 0.051922 0.340091
O165  O     O_3   0.207434 0.624545 0.675945 -0.676744
H141  H     H_    0.228987 0.612049 0.649646 0.340900
O166  O     O_3   0.207190 0.704521 0.429059 -0.676945
H142  H     H_    0.228900 0.686594 0.448133 0.339306
O167  O     O_3   0.207419 0.375334 0.324612 -0.671941
H143  H     H_    0.228975 0.387765 0.350965 0.343219
O168  O     O_3   0.207209 0.295903 0.571147 -0.675217
H144  H     H_    0.228908 0.313884 0.552161 0.341128
C385  C     C_2   0.163577 0.167415 0.258101 0.570862
H145  H     H_    0.154293 0.181965 0.293623 -0.017607
O169  O     O_2   0.140788 0.138711 0.248302 -0.513766
C386  C     C_2   0.162484 0.259956 0.864136 0.558218
H146  H     H_    0.153087 0.284631 0.842043 -0.022289
O170  O     O_2   0.139225 0.254117 0.904241 -0.506742
C387  C     C_2   0.163459 0.832627 0.741817 0.570790
H147  H     H_    0.154111 0.818041 0.706342 -0.019066
O171  O     O_2   0.140688 0.861348 0.751600 -0.508130
C388  C     C_2   0.162425 0.739831 0.135930 0.559148
H148  H     H_    0.153031 0.715200 0.158115 -0.021265
O172  O     O_2   0.139133 0.745612 0.095830 -0.505698
C389  C     C_2   0.163553 0.667450 0.758272 0.570511
H149  H     H_    0.154293 0.682029 0.793777 -0.017484
O173  O     O_2   0.140713 0.638763 0.748500 -0.514731
C390  C     C_2   0.162386 0.760213 0.364062 0.558597
H150  H     H_    0.152984 0.784835 0.341858 -0.021754
O174  O     O_2   0.139086 0.754443 0.404161 -0.506928
C391  C     C_2   0.163526 0.332652 0.242083 0.567086
H151  H     H_    0.154186 0.318129 0.206557 -0.019209
O175  O     O_2   0.140780 0.361372 0.251939 -0.509605
C392  C     C_2   0.162468 0.240014 0.635865 0.560144
H152  H     H_    0.153074 0.215346 0.657972 -0.019703
O176  O     O_2   0.139202 0.245845 0.595763 -0.505388
C393  C     C_2   0.664248 0.167088 0.755023 0.571851
H153  H     H_    0.655049 0.180894 0.791142 -0.012352
O177  O     O_2   0.641676 0.138468 0.744269 -0.516299
C394  C     C_2   0.662334 0.260342 0.364021 0.558132
H154  H     H_    0.652939 0.284940 0.341763 -0.021648
O178  O     O_2   0.639002 0.254604 0.404111 -0.507408
C395  C     C_2   0.663562 0.832672 0.242234 0.566378
H155  H     H_    0.654220 0.818181 0.206682 -0.019541
O179  O     O_2   0.640839 0.861395 0.252127 -0.508324
C396  C     C_2   0.662406 0.739831 0.635926 0.559352
H156  H     H_    0.653016 0.715198 0.658109 -0.021307
O180  O     O_2   0.639104 0.745615 0.595832 -0.505463
C397  C     C_2   0.663609 0.667397 0.257951 0.570627
H157  H     H_    0.654328 0.681911 0.293502 -0.017654
O181  O     O_2   0.640836 0.638693 0.248109 -0.513804
C398  C     C_2   0.662435 0.760100 0.864093 0.557779
H158  H     H_    0.653027 0.784742 0.841936 -0.021270
O182  O     O_2   0.639159 0.754299 0.904198 -0.506497
C399  C     C_2   0.664048 0.332953 0.744612 0.568993
H159  H     H_    0.654744 0.319023 0.708616 -0.018856
O183  O     O_2   0.641554 0.361644 0.755197 -0.507537
C400  C     C_2   0.662411 0.239763 0.135953 0.559154
H160  H     H_    0.653011 0.215147 0.158169 -0.021609
O184  O     O_2   0.639114 0.245525 0.095851 -0.505532
C401  C     C_2   0.960716 0.041553 0.344225 0.302490
H161  H     H_    0.933842 0.060491 0.326247 0.095990
O185  O     O_2   0.956773 0.035820 0.390650 -0.475405
C402  C     C_2   0.947333 0.041474 0.662977 0.305099
H162  H     H_    0.923417 0.060406 0.684834 0.087270
O186  O     O_2   0.936549 0.035729 0.617684 -0.478998
C403  C     C_2   0.928932 0.966389 0.681655 0.496815
H163  H     H_    0.898168 0.984486 0.693957 0.056837
O187  O     O_2   0.917244 0.935917 0.664496 -0.523939
C404  C     C_2   0.939651 0.966478 0.328520 0.495870
H164  H     H_    0.907445 0.984611 0.321063 0.058069
O188  O     O_2   0.930583 0.935994 0.347197 -0.536510
C405  C     C_2   0.955145 0.541549 0.841557 0.304771
H165  H     H_    0.929395 0.560483 0.821958 0.096132
O189  O     O_2   0.948429 0.535822 0.887649 -0.474991
C406  C     C_2   0.946443 0.541475 0.163556 0.305544
H166  H     H_    0.922747 0.560408 0.185655 0.087954
O190  O     O_2   0.935207 0.535728 0.118376 -0.477797
C407  C     C_2   0.928231 0.466389 0.182416 0.497354
H167  H     H_    0.897591 0.484485 0.195031 0.058846
O191  O     O_2   0.916375 0.435917 0.165374 -0.522304
C408  C     C_2   0.935068 0.466476 0.824594 0.495160
H168  H     H_    0.903358 0.484599 0.815161 0.058698
O192  O     O_2   0.924901 0.436000 0.842708 -0.536049
C409  C     C_2   0.479621 0.041599 0.648671 0.308612
H169  H     H_    0.511723 0.060621 0.648008 0.097022
O193  O     O_2   0.456833 0.035837 0.608204 -0.437126
C410  C     C_2   0.442932 0.041473 0.166057 0.302297
H170  H     H_    0.420149 0.060405 0.189122 0.089368
O194  O     O_2   0.429873 0.035725 0.121382 -0.492324
C411  C     C_2   0.425504 0.966389 0.185651 0.492697
H171  H     H_    0.395398 0.984482 0.199534 0.059695
O195  O     O_2   0.412969 0.935920 0.169106 -0.525230
C412  C     C_2   0.505767 0.966461 0.649433 0.513048
H172  H     H_    0.536333 0.984635 0.636861 0.062666
O196  O     O_2   0.502858 0.935912 0.629019 -0.527910
C413  C     C_2   0.460821 0.541552 0.344302 0.302406
H173  H     H_    0.433925 0.560488 0.326353 0.096251
O197  O     O_2   0.456933 0.535823 0.390730 -0.475355
C414  C     C_2   0.446711 0.541475 0.663360 0.305166
H174  H     H_    0.422948 0.560409 0.685384 0.087828
O198  O     O_2   0.435615 0.535728 0.618145 -0.478318
C415  C     C_2   0.428439 0.466388 0.682166 0.496946
H175  H     H_    0.397759 0.484486 0.694677 0.058535
O199  O     O_2   0.416634 0.435914 0.665097 -0.522804
C416  C     C_2   0.439737 0.466477 0.328617 0.496060
H176  H     H_    0.407521 0.484609 0.321201 0.058495
O200  O     O_2   0.430689 0.435992 0.347302 -0.536385
O201  O     O_3   0.464852 0.469676 0.167024 -0.560873
H177  H     H_    0.454216 0.443460 0.162184 0.349081
O202  O     O_3   0.478347 0.469604 0.837739 -0.560350
H178  H     H_    0.468566 0.443393 0.844212 0.351116
O203  O     O_3   0.456203 0.538469 0.829660 -0.576864
H179  H     H_    0.435267 0.561327 0.826391 0.332010
O204  O     O_3   0.444231 0.538536 0.178560 -0.579642
H180  H     H_    0.424105 0.561409 0.185147 0.330840
O205  O     O_3   0.575801 0.969700 0.796840 -0.584001
H181  H     H_    0.587237 0.943476 0.794743 0.341341
O206  O     O_3   0.482126 0.969596 0.338844 -0.558623
H182  H     H_    0.472642 0.943383 0.345735 0.352172
O207  O     O_3   0.459673 0.038470 0.331768 -0.574533
H183  H     H_    0.438643 0.061342 0.329431 0.332603
O208  O     O_3   0.586353 0.038541 0.775357 -0.592430
H184  H     H_    0.599289 0.061350 0.758255 0.363399
O209  O     O_3   0.969967 0.469668 0.664865 -0.560543
H185  H     H_    0.959629 0.443455 0.659367 0.349745
O210  O     O_3   0.978619 0.469602 0.337829 -0.560140
H186  H     H_    0.968859 0.443391 0.344331 0.351031
O211  O     O_3   0.956452 0.538468 0.329824 -0.576620
H187  H     H_    0.935510 0.561328 0.326621 0.331929
O212  O     O_3   0.948704 0.538532 0.675078 -0.578328
H188  H     H_    0.928224 0.561410 0.680382 0.330941
O213  O     O_3   0.964949 0.969675 0.166964 -0.561002
H189  H     H_    0.954320 0.943459 0.162116 0.348914
O214  O     O_3   0.977779 0.969603 0.837574 -0.560758
H190  H     H_    0.967955 0.943392 0.843979 0.350641
O215  O     O_3   0.955689 0.038467 0.829344 -0.577631
H191  H     H_    0.934776 0.061326 0.825929 0.331231
O216  O     O_3   0.944317 0.038536 0.178473 -0.579959
H192  H     H_    0.924186 0.061411 0.185040 0.330512
O217  O     O_3   0.595195 0.469678 0.264136 -0.730216
H193  H     H_    0.602536 0.442746 0.260810 0.332718
O218  O     O_3   0.591973 0.469610 0.721051 -0.726128
H194  H     H_    0.599763 0.442681 0.723203 0.354711
O219  O     O_3   0.596171 0.538409 0.743114 -0.742541
H195  H     H_    0.599279 0.564331 0.755707 0.338414
O220  O     O_3   0.595942 0.538461 0.241617 -0.723000
H196  H     H_    0.597106 0.564353 0.228578 0.374372
O221  O     O_3   0.414046 0.969720 0.791967 -0.728920
H197  H     H_    0.409838 0.942796 0.798970 0.334812
O222  O     O_3   0.590574 0.969607 0.217208 -0.726738
H198  H     H_    0.598453 0.942679 0.219017 0.353739
O223  O     O_3   0.595727 0.038407 0.239053 -0.742635
H199  H     H_    0.599383 0.064329 0.251495 0.337775
O224  O     O_3   0.426118 0.038471 0.810951 -0.735384
H200  H     H_    0.432469 0.064359 0.822373 0.344202
O225  O     O_3   0.094164 0.469671 0.769929 -0.730576
H201  H     H_    0.101697 0.442739 0.767068 0.332154
O226  O     O_3   0.091883 0.469611 0.220783 -0.725797
H202  H     H_    0.099680 0.442682 0.222909 0.355747
O227  O     O_3   0.096148 0.538410 0.242834 -0.742467
H203  H     H_    0.099294 0.564332 0.255418 0.338386
O228  O     O_3   0.096283 0.538451 0.747507 -0.724640
H204  H     H_    0.098247 0.564342 0.734567 0.374602
O229  O     O_3   0.095175 0.969679 0.264228 -0.729957
H205  H     H_    0.102517 0.942747 0.260906 0.332859
O230  O     O_3   0.092197 0.969611 0.721684 -0.719853
H206  H     H_    0.099972 0.942682 0.723889 0.357825
O231  O     O_3   0.096243 0.038410 0.743779 -0.735117
H207  H     H_    0.099262 0.064333 0.756391 0.340404
O232  O     O_3   0.095947 0.038462 0.241709 -0.722861
H208  H     H_    0.097121 0.064354 0.228669 0.374413
O233  O     O_3   0.563356 0.460980 0.182408 -0.705477
H209  H     H_    0.599227 0.466373 0.172436 0.352686
O234  O     O_3   0.573222 0.460928 0.806842 -0.687046
H210  H     H_    0.610220 0.466255 0.810926 0.361455
O235  O     O_3   0.556447 0.530366 0.821658 -0.653872
H211  H     H_    0.592571 0.528370 0.833003 0.352526
O236  O     O_3   0.544455 0.530406 0.170419 -0.647397
H212  H     H_    0.578362 0.528454 0.153439 0.358621
O237  O     O_3   0.486105 0.960996 0.840900 -0.719021
H213  H     H_    0.462184 0.966389 0.869748 0.352057
O238  O     O_3   0.575562 0.960927 0.303752 -0.686900
H214  H     H_    0.612704 0.966249 0.306183 0.360948
O239  O     O_3   0.559459 0.030368 0.319293 -0.655317
H215  H     H_    0.596042 0.028367 0.329016 0.351275
O240  O     O_3   0.508461 0.030387 0.839855 -0.667456
H216  H     H_    0.490121 0.028448 0.873355 0.351074
O241  O     O_3   0.067362 0.460977 0.686370 -0.706145
H217  H     H_    0.103772 0.466363 0.678655 0.352232
O242  O     O_3   0.073396 0.460927 0.306632 -0.687353
H218  H     H_    0.110408 0.466253 0.310598 0.361205
O243  O     O_3   0.056667 0.530366 0.321503 -0.653727
H219  H     H_    0.092826 0.528368 0.332733 0.352436
O244  O     O_3   0.049243 0.530401 0.673225 -0.646875
H220  H     H_    0.084118 0.528458 0.658397 0.358837
O245  O     O_3   0.063426 0.960979 0.182462 -0.705479
H221  H     H_    0.099309 0.966376 0.172531 0.352599
O246  O     O_3   0.072862 0.960927 0.807341 -0.687039
H222  H     H_    0.109832 0.966254 0.811682 0.364118
O247  O     O_3   0.055984 0.030365 0.822042 -0.653219
H223  H     H_    0.092030 0.028369 0.833639 0.354767
O248  O     O_3   0.044539 0.030408 0.170451 -0.647281
H224  H     H_    0.078467 0.028450 0.153511 0.358586

loop_
_geom_bond_atom_site_label_1
_geom_bond_atom_site_label_2
_ccdc_geom_bond_type
C39   C276  S    
O9    Zn7   S    
O30   Zn22  S    
C263  O128  S    
O223  H199  S    
O72   Zn10  S    
O11   Zn5   S    
C338  C354  A    
C369  H81   S    
C387  H147  S    
C27   C363  A    
O6    Zn26  S    
C337  C385  S    
C178  H34   S    
O5    Zn25  S    
C114  C115  S    
C281  O63   A    
C343  C391  S    
O78   Zn6   S    
C319  C335  A    
O151  H127  S    
C75   C107  S    
C352  C368  A    
O82   Zn10  S    
O139  H115  S    
C305  C321  A    
C238  C254  A    
C70   H70   S    
C322  O162  S    
C351  C399  S    
C294  O142  S    
C17   C289  A    
O237  H213  S    
C350  C398  S    
O2    Zn18  S    
C255  H63   S    
C51   C414  S    
C377  O113  D    
O37   Zn29  S    
C256  H64   S    
C325  O165  S    
C380  H92   S    
C269  O134  S    
C25   C45   A    
C396  O180  D    
O230  H206  S    
C170  O82   A    
C79   O215  S    
C394  H154  S    
C117  O228  S    
O41   Zn17  S    
O51   Zn27  S    
C171  C222  S    
C112  C113  S    
C352  C400  S    
C172  C221  S    
C282  O58   A    
C123  O238  S    
C264  O127  S    
C416  H176  S    
C86   C134  T    
C75   H75   S    
O3    Zn19  S    
C35   C357  A    
C73   H73   S    
C61   C404  S    
C188  H44   S    
C121  O224  S    
C189  H45   S    
C112  C129  S    
C336  C352  A    
C345  C361  A    
C13   O101  A    
C3    O91   A    
C230  C246  A    
C54   C411  S    
C30   C48   A    
C342  C390  S    
O92   Zn20  S    
O5    Zn9   S    
C344  C392  S    
C199  C200  A    
C332  O156  S    
C67   H67   S    
C397  H157  S    
O7    Zn29  S    
C1    O89   A    
C172  O36   A    
C234  C250  A    
C65   H65   S    
C203  C219  A    
C171  O35   A    
C128  O217  S    
O14   Zn4   S    
C319  H9    S    
C10   O18   A    
O141  H117  S    
C38   C368  A    
C334  O158  S    
C395  O179  D    
C6    O14   A    
C50   C98   S    
C61   C381  S    
O156  H132  S    
C46   C286  S    
C27   C299  A    
O128  H104  S    
C36   C356  A    
C391  H151  S    
C217  C233  A    
C66   H66   S    
C31   C367  A    
C31   C303  A    
C311  H1    S    
C114  O247  S    
O211  H187  S    
C350  C366  A    
C285  O65   A    
C221  C237  A    
C3    C92   S    
C154  H26   S    
O52   Zn28  S    
C183  C184  A    
C162  O26   A    
C36   C279  S    
C83   C131  T    
C229  C230  A    
C219  C235  A    
C375  O111  D    
C111  C130  S    
C81   C129  T    
O214  H190  S    
C78   H78   S    
C300  O148  S    
C261  O126  S    
O232  H208  S    
C65   C68   S    
C80   C112  S    
C109  C132  S    
O100  Zn28  S    
C58   C378  S    
C110  C131  S    
C10   O98   A    
C376  O112  D    
O42   Zn18  S    
C145  C194  A    
C11   O99   A    
C30   C366  A    
C43   C283  S    
C202  C218  A    
C98   C127  S    
C331  O155  S    
C402  O186  D    
C80   O216  S    
C273  O41   A    
C176  C217  S    
O94   Zn22  S    
C239  C255  A    
O123  H99   S    
C349  C397  S    
C412  H172  S    
O8    Zn12  S    
C102  C123  S    
C198  C214  A    
O18   Zn16  S    
C154  C201  A    
C213  C229  A    
C14   O22   A    
C36   C358  A    
C8    O16   A    
C392  H152  S    
C296  O144  S    
O86   Zn14  S    
C292  O140  S    
C11   O19   A    
C156  H28   S    
C78   C79   S    
C158  C205  A    
O73   Zn1   S    
C78   O214  S    
C231  C247  A    
C95   C143  T    
C9    O17   A    
C399  O183  D    
C275  O43   A    
C1    O9    A    
C289  C305  A    
O130  H106  S    
O28   Zn20  S    
O24   Zn10  S    
C104  C121  S    
C69   C101  S    
C11   C84   S    
O88   Zn16  S    
C250  C266  A    
C323  O163  S    
O31   Zn23  S    
C40   C364  A    
C253  H61   S    
C164  O28   A    
O12   Zn6   S    
C59   C379  S    
C108  C133  S    
C389  O173  D    
C223  C239  A    
O135  H111  S    
O77   Zn5   S    
C32   C304  A    
C70   C102  S    
C4    O92   A    
C337  C353  A    
C300  C316  A    
C35   C355  A    
C333  C349  A    
C84   C132  T    
C345  C393  S    
C102  C139  S    
C63   C111  S    
O1    Zn17  S    
C64   C112  S    
C49   C97   S    
O150  H126  S    
C196  C212  A    
C147  C179  A    
O208  H184  S    
C169  O81   A    
C374  H86   S    
O76   Zn4   S    
C372  H84   S    
O224  H200  S    
C312  H2    S    
O6    Zn10  S    
C155  C187  A    
C74   H74   S    
C381  H93   S    
C297  O145  S    
C158  H30   S    
C162  O74   A    
C34   C360  A    
C271  C272  A    
C248  C264  A    
C308  H6    S    
C295  O143  S    
C408  O192  D    
C316  H14   S    
C291  O139  S    
O148  H124  S    
C207  C223  A    
O143  H119  S    
C169  C224  S    
C407  O191  D    
C48   C288  S    
C280  O54   A    
O228  H204  S    
C244  C260  A    
O16   Zn2   S    
C245  C261  A    
O80   Zn8   S    
O22   Zn12  S    
C377  H89   S    
C185  C186  A    
O247  H223  S    
O240  H216  S    
C411  O195  D    
O54   Zn30  S    
C318  C334  A    
C373  H85   S    
O47   Zn23  S    
C154  C186  A    
C259  C260  A    
C167  O31   A    
C173  O37   A    
C302  C318  A    
C199  C215  A    
C29   C47   A    
C149  H21   S    
C410  H170  S    
C174  O86   A    
C284  O62   A    
C107  C134  S    
C50   C370  S    
C18   C42   A    
C147  H19   S    
C261  C262  A    
C163  C214  S    
C169  O33   A    
C226  C242  A    
C322  C338  A    
C145  H17   S    
O244  H220  S    
C146  C178  A    
C257  C258  A    
C249  C265  A    
O27   Zn19  S    
C384  H96   S    
C55   C375  S    
C32   C368  A    
O216  H192  S    
C393  O177  D    
C185  H41   S    
C302  O150  S    
C246  H54   S    
C276  O44   A    
C384  O120  D    
C2    O10   A    
C24   C296  A    
C16   C87   S    
O248  H224  S    
C105  C120  S    
O75   Zn3   S    
C348  C396  S    
C120  O225  S    
C233  C234  A    
C150  C197  A    
C308  C324  A    
C179  H35   S    
C62   C403  S    
C4    C91   S    
C229  C245  A    
C192  H48   S    
C414  O198  D    
C66   C67   S    
C126  O219  S    
C177  H33   S    
C33   C359  A    
C237  C238  A    
C409  O193  D    
C9    O97   A    
C265  O130  S    
C166  O30   A    
C189  C190  A    
C8    C95   S    
C329  C345  A    
C236  C252  A    
C97   C128  S    
C382  H94   S    
C90   C138  T    
C30   C302  A    
C55   C410  S    
O165  H141  S    
C99   C126  S    
C51   C371  S    
C33   C278  S    
O36   Zn28  S    
O93   Zn21  S    
C290  C306  A    
C101  C124  S    
C35   C280  S    
C175  O87   A    
C25   C361  A    
C20   C292  A    
C347  C363  A    
C21   C293  A    
C406  H166  S    
O71   Zn9   S    
C78   C110  S    
C74   O210  S    
O81   Zn9   S    
C125  O236  S    
C400  O184  D    
C18   C354  A    
C52   C100  S    
C59   C107  S    
O204  H180  S    
C232  C248  A    
C69   C72   S    
C39   C363  A    
O242  H218  S    
C68   C100  S    
C97   C144  S    
C183  H39   S    
C335  O159  S    
C71   H71   S    
C37   C274  S    
C194  C210  A    
C224  C240  A    
C148  C195  A    
C73   C105  S    
C310  C326  A    
O99   Zn27  S    
C235  C236  A    
C340  C388  S    
C398  H158  S    
C378  O114  D    
C409  H169  S    
C165  O29   A    
C147  C196  A    
C379  O115  D    
C77   C109  S    
C164  O76   A    
O4    Zn20  S    
C77   H77   S    
C332  C348  A    
C343  C359  A    
C6    O94   A    
C167  O79   A    
C193  C194  A    
C60   C405  S    
C116  O245  S    
C49   C369  S    
C4    O12   A    
C241  H49   S    
C326  C342  A    
O35   Zn27  S    
O238  H214  S    
O138  H114  S    
C341  C357  A    
C268  O131  S    
O34   Zn26  S    
C277  O49   A    
O229  H205  S    
C53   C56   S    
C27   C47   A    
C403  O187  D    
C71   C103  S    
C54   C55   S    
C28   C48   A    
O103  Zn31  S    
O104  Zn32  S    
C117  O244  S    
C113  O232  S    
C32   C46   A    
C151  C200  A    
C251  H59   S    
C49   C52   S    
C161  O73   A    
C246  C262  A    
C287  O67   A    
C395  H155  S    
C387  O171  D    
C165  C212  S    
C71   O207  S    
C208  C224  A    
O55   Zn31  S    
C388  O172  D    
C76   H76   S    
C123  O222  S    
C191  H47   S    
O53   Zn29  S    
C21   C357  A    
O15   Zn1   S    
C405  O189  D    
O65   Zn15  S    
C127  O218  S    
C182  H38   S    
O91   Zn19  S    
O243  H219  S    
O1    Zn7   S    
C39   C365  A    
C54   C374  S    
C326  O166  S    
O67   Zn13  S    
O57   Zn7   S    
C380  O116  D    
C62   C110  S    
O3    Zn5   S    
C262  O125  S    
C276  O46   A    
C118  O227  S    
C69   O205  S    
C200  C216  A    
C394  O178  D    
O63   Zn1   S    
C286  O72   A    
O222  H198  S    
O203  H179  S    
O61   Zn3   S    
C247  C263  A    
C175  O39   A    
O8    Zn30  S    
C309  H3    S    
O202  H178  S    
C62   C382  S    
C12   O20   A    
C275  O45   A    
C148  C180  A    
C388  H148  S    
C125  C128  S    
C25   C297  A    
C376  H88   S    
C282  O64   A    
C122  O223  S    
C19   C355  A    
C53   C373  S    
O26   Zn18  S    
C24   C360  A    
C156  C203  A    
C279  O51   A    
C28   C300  A    
C311  C327  A    
C399  H159  S    
C15   C88   S    
C407  H167  S    
C38   C362  A    
O102  Zn30  S    
O10   Zn8   S    
C1    C90   S    
C60   C108  S    
O101  Zn29  S    
C106  C119  S    
O74   Zn2   S    
C24   C42   A    
O7    Zn13  S    
C57   C105  S    
C239  C240  A    
C254  H62   S    
O84   Zn12  S    
O13   Zn3   S    
C309  C325  A    
C298  C314  A    
C318  H12   S    
O133  H109  S    
C17   C353  A    
C233  C249  A    
O234  H210  S    
C150  C182  A    
O163  H139  S    
C181  C182  A    
C121  O240  S    
C289  O137  S    
C323  C339  A    
C7    C96   S    
C75   O211  S    
O142  H118  S    
C348  C364  A    
O23   Zn9   S    
C412  O196  D    
C204  C220  A    
C237  C253  A    
C100  C141  S    
C2    O90   A    
C65   O201  S    
O95   Zn23  S    
C184  H40   S    
C151  H23   S    
C315  C331  A    
C225  C241  A    
C403  H163  S    
C44   C284  S    
C206  C222  A    
C45   C285  S    
C104  C137  S    
C201  C217  A    
C404  H164  S    
O145  H121  S    
C400  H160  S    
C313  C329  A    
C173  C220  S    
C283  O59   A    
C168  C209  S    
O6    Zn32  S    
C109  C116  S    
C328  C344  A    
C310  H4    S    
C281  O57   A    
O44   Zn20  S    
C371  O107  D    
O246  H222  S    
C53   C101  S    
C383  O119  D    
C20   C356  A    
O127  H103  S    
C336  O160  S    
C329  O153  S    
O136  H112  S    
O221  H197  S    
C70   C71   S    
C235  C251  A    
C12   O100  A    
O50   Zn26  S    
C5    O93   A    
C22   C358  A    
C67   C99   S    
C9    C82   S    
C293  C309  A    
C413  O197  D    
O7    Zn11  S    
O160  H136  S    
C76   C108  S    
C19   C291  A    
C269  C270  A    
C149  C181  A    
C369  O105  D    
O162  H138  S    
C152  H24   S    
O49   Zn25  S    
C53   C412  S    
C28   C364  A    
C115  O230  S    
C108  C117  S    
C119  O226  S    
C344  C360  A    
C19   C43   A    
C124  O237  S    
O245  H221  S    
C33   C353  A    
C156  C188  A    
C392  O176  D    
C146  H18   S    
O134  H110  S    
C7    O95   A    
C298  O146  S    
C94   C142  T    
C5    O13   A    
C415  H175  S    
C340  C356  A    
C159  C191  A    
O122  H98   S    
C321  O161  S    
C248  H56   S    
C277  O55   A    
C103  C138  S    
O218  H194  S    
C307  H5    S    
C57   C60   S    
C255  C271  A    
C195  C196  A    
C72   C104  S    
C40   C275  S    
O3    Zn3   S    
C396  H156  S    
O215  H191  S    
C316  C332  A    
C191  C192  A    
C152  C199  A    
C69   H69   S    
C413  H173  S    
C163  O27   A    
C2    C89   S    
C299  O147  S    
O168  H144  S    
C125  O220  S    
O64   Zn2   S    
C62   C63   S    
C87   C135  T    
C166  C211  S    
C18   C290  A    
O7    Zn27  S    
C128  O233  S    
C76   O212  S    
O70   Zn12  S    
C267  C268  A    
C118  O243  S    
O21   Zn11  S    
C263  C264  A    
C247  H55   S    
C271  O136  S    
C50   C51   S    
C5    C94   S    
C290  O138  S    
O126  H102  S    
C146  C193  A    
C151  C183  A    
O157  H133  S    
O90   Zn18  S    
C270  O133  S    
C56   C104  S    
C34   C354  A    
C254  C270  A    
C260  O123  S    
C265  C266  A    
C91   C139  T    
C273  O47   A    
C29   C365  A    
C161  C216  S    
C148  H20   S    
C391  O175  D    
C89   C137  T    
C291  C307  A    
O239  H215  S    
C73   C76   S    
C306  H8    S    
O158  H134  S    
C117  C120  S    
C385  O169  D    
O5    Zn31  S    
O236  H212  S    
C214  C230  A    
O209  H185  S    
O43   Zn19  S    
C411  H171  S    
C410  O194  D    
C93   C141  T    
O19   Zn13  S    
C153  C202  A    
O129  H105  S    
C77   C80   S    
C13   O21   A    
C163  O75   A    
C333  O157  S    
O4    Zn6   S    
C68   O204  S    
O25   Zn17  S    
C54   C102  S    
C23   C359  A    
C157  C206  A    
O1    Zn23  S    
C167  C210  S    
C250  H58   S    
C252  C268  A    
C313  H15   S    
C57   C408  S    
C274  O42   A    
C38   C273  S    
O87   Zn15  S    
C272  O135  S    
O29   Zn21  S    
C179  C180  A    
C320  H10   S    
O241  H217  S    
C10   C81   S    
C253  C269  A    
O46   Zn22  S    
C339  C387  S    
O32   Zn24  S    
O212  H188  S    
C158  C190  A    
C58   C59   S    
C346  C362  A    
O8    Zn14  S    
O154  H130  S    
C209  C225  A    
C47   C287  S    
O227  H203  S    
C227  C243  A    
C80   H80   S    
C330  C346  A    
O201  H177  S    
C305  H7    S    
C334  C350  A    
C126  C127  S    
O20   Zn14  S    
C390  H150  S    
C23   C295  A    
C244  H52   S    
C280  O52   A    
C111  C114  S    
C190  H46   S    
C74   C106  S    
O155  H131  S    
C347  C395  S    
C242  H50   S    
C210  C226  A    
C26   C46   A    
C65   C97   S    
C170  C223  S    
C212  C228  A    
C157  H29   S    
C37   C361  A    
C402  H162  S    
C72   H72   S    
C283  O61   A    
C15   O23   A    
C177  C178  A    
C31   C45   A    
O226  H202  S    
C58   C106  S    
C379  H91   S    
O38   Zn30  S    
C207  C208  A    
O69   Zn11  S    
C40   C366  A    
C174  C219  S    
O146  H122  S    
C327  O167  S    
C103  C122  S    
O231  H207  S    
C110  C115  S    
O205  H181  S    
C386  O170  D    
C383  H95   S    
C85   C133  T    
C297  C313  A    
O132  H108  S    
O85   Zn13  S    
O48   Zn24  S    
C67   O203  S    
C122  O239  S    
C314  H16   S    
O219  H195  S    
C68   H68   S    
C98   C143  S    
C61   C64   S    
O161  H137  S    
C99   C142  S    
C66   O202  S    
O220  H196  S    
C77   O213  S    
O210  H186  S    
C61   C109  S    
O98   Zn26  S    
C324  O164  S    
C382  O118  D    
C50   C415  S    
O97   Zn25  S    
C159  C208  A    
C180  H36   S    
O39   Zn31  S    
C205  C206  A    
C288  O70   A    
C181  H37   S    
C174  O38   A    
C389  H149  S    
C72   O208  S    
C241  C257  A    
C16   O104  A    
C215  C231  A    
O6    Zn16  S    
C301  C317  A    
C168  O32   A    
C393  H153  S    
C126  O235  S    
C161  O25   A    
C64   C401  S    
C170  O34   A    
C303  C319  A    
C408  H168  S    
C304  C320  A    
C96   C144  T    
C58   C407  S    
C115  O246  S    
C55   C103  S    
C150  H22   S    
O167  H143  S    
C64   C384  S    
C26   C298  A    
C293  O141  S    
C330  O154  S    
C258  O121  S    
O33   Zn25  S    
C227  C228  A    
C118  C119  S    
C257  O122  S    
C121  C124  S    
C187  H43   S    
O59   Zn5   S    
C21   C43   A    
O2    Zn24  S    
O149  H125  S    
O2    Zn2   S    
C22   C44   A    
O140  H116  S    
C317  C333  A    
C296  C312  A    
C228  C244  A    
C13   C86   S    
C56   C376  S    
C304  O152  S    
C153  H25   S    
C106  C135  S    
C23   C41   A    
C82   C130  T    
O213  H189  S    
C63   C402  S    
C242  C258  A    
C173  O85   A    
C301  O149  S    
C292  C308  A    
C331  C347  A    
C113  C116  S    
C20   C44   A    
C175  C218  S    
C6    C93   S    
C351  C367  A    
O207  H183  S    
C211  C227  A    
C59   C406  S    
C155  H27   S    
C320  C336  A    
C197  C198  A    
C73   O209  S    
C240  C256  A    
C56   C409  S    
C149  C198  A    
C390  O174  D    
C386  H146  S    
C42   C282  S    
C101  C140  S    
C274  O48   A    
C17   C41   A    
C162  C215  S    
C373  O109  D    
C51   C99   S    
C220  C236  A    
C295  C311  A    
C37   C367  A    
C381  O117  D    
C171  O83   A    
C74   C75   S    
C88   C136  T    
C100  C125  S    
C288  O68   A    
C328  O168  S    
C338  C386  S    
C370  H82   S    
C218  C234  A    
C29   C301  A    
C375  H87   S    
C397  O181  D    
C22   C294  A    
C116  O229  S    
C285  O71   A    
C243  C259  A    
C120  O241  S    
C312  C328  A    
C385  H145  S    
O5    Zn15  S    
C267  O132  S    
C222  C238  A    
C370  O106  D    
C398  O182  D    
C415  O199  D    
C279  O53   A    
C251  C267  A    
C52   C372  S    
C335  C351  A    
C346  C394  S    
C14   O102  A    
C3    O11   A    
C195  C211  A    
C113  O248  S    
C41   C281  S    
C193  C209  A    
C294  C310  A    
O1    Zn1   S    
O4    Zn22  S    
C303  O151  S    
C57   C377  S    
C26   C362  A    
C225  C226  A    
O121  H97   S    
C306  C322  A    
O96   Zn24  S    
O153  H129  S    
C401  O185  D    
O233  H209  S    
O56   Zn32  S    
C165  O77   A    
O89   Zn17  S    
C105  C136  S    
C327  C343  A    
C414  H174  S    
O144  H120  S    
C287  O69   A    
C127  O234  S    
C168  O80   A    
C243  H51   S    
C284  O60   A    
C259  O124  S    
C160  H32   S    
O45   Zn21  S    
C152  C184  A    
O40   Zn32  S    
C159  H31   S    
C155  C204  A    
C342  C358  A    
C278  O56   A    
C278  O50   A    
C60   C380  S    
C325  C341  A    
C314  C330  A    
O125  H101  S    
C401  H161  S    
C176  O40   A    
O206  H182  S    
C16   O24   A    
O166  H142  S    
O147  H123  S    
C107  C118  S    
O68   Zn14  S    
C286  O66   A    
C256  C272  A    
C52   C413  S    
C34   C277  S    
C119  O242  S    
C12   C83   S    
C14   C85   S    
C374  O110  D    
O137  H113  S    
C341  C389  S    
C252  H60   S    
O8    Zn28  S    
C8    O96   A    
C249  H57   S    
O164  H140  S    
O3    Zn21  S    
C266  O129  S    
C299  C315  A    
C164  C213  S    
C315  H13   S    
O225  H201  S    
C372  O108  D    
C79   H79   S    
C79   C111  S    
C317  H11   S    
C176  O88   A    
C124  O221  S    
C66   C98   S    
C63   C383  S    
C166  O78   A    
O66   Zn16  S    
O131  H107  S    
C160  C207  A    
O4    Zn4   S    
O2    Zn8   S    
O235  H211  S    
C153  C185  A    
C49   C416  S    
C416  O200  D    
O58   Zn8   S    
C321  C337  A    
C205  C221  A    
C378  H90   S    
C172  O84   A    
C245  H53   S    
C324  C340  A    
C404  O188  D    
O152  H128  S    
O159  H135  S    
C157  C189  A    
O62   Zn4   S    
O79   Zn7   S    
C160  C192  A    
C371  H83   S    
C307  C323  A    
O83   Zn11  S    
C406  O190  D    
C197  C213  A    
O60   Zn6   S    
C201  C202  A    
C187  C188  A    
C7    O15   A    
C114  O231  S    
C15   O103  A    
C145  C177  A    
C231  C232  A    
C122  C123  S    
O17   Zn15  S    
C216  C232  A    
C339  C355  A    
C186  H42   S    
C203  C204  A    
O217  H193  S    
C405  H165  S    
O124  H100  S    
C349  C365  A    
C70   O206  S    
C92   C140  T    
