data_mof_unit_14378.cif
_audit_creation_date              2012-12-10T17:10:43-0500
_audit_creation_method            fapswitch 2.2
_symmetry_space_group_name_H-M    P1
_symmetry_Int_Tables_number       1
_space_group_crystal_system       triclinic
_cell_length_a                    18.75238
_cell_length_b                    18.754932
_cell_length_c                    18.901575
_cell_angle_alpha                 109.378798
_cell_angle_beta                  109.412915
_cell_angle_gamma                 109.473405
_cell_volume                      5126.74102089

loop_
_atom_site_label
_atom_site_type_symbol
_atom_type_description
_atom_site_fract_x
_atom_site_fract_y
_atom_site_fract_z
_atom_type_partial_charge
C1    C     C_R   0.623365 0.620392 0.503880 0.882848
C2    C     C_R   0.779426 0.724769 0.563128 -0.023404
C3    C     C_2   0.798264 0.725130 0.247985 0.403472
C4    C     C_3   0.313953 0.550162 0.146415 -0.360667
C5    C     C_3   0.413009 0.591014 0.184576 -0.881740
C6    C     C_3   0.117773 0.798524 0.423837 -0.323255
C7    C     C_3   0.202065 0.886639 0.487590 -0.695603
C8    C     C_3   0.006896 0.255767 0.967628 -0.361242
C9    C     C_3   0.924728 0.236658 0.976576 -0.650564
C10   C     C_3   0.908771 0.959962 0.753077 -0.375801
C11   C     C_3   0.995477 0.965113 0.766425 -0.889240
C12   C     C_3   0.831101 0.010013 0.616520 -0.425329
C13   C     C_R   0.689897 0.688051 0.505475 -0.053052
C14   C     C_3   0.746395 0.988965 0.619619 -0.829348
C15   C     C_2   0.053625 0.295899 0.640058 0.350565
C16   C     C_3   0.271697 0.367466 0.151756 -0.406994
C17   C     C_3   0.360207 0.389080 0.157644 -0.797263
C18   C     C_2   0.101933 0.343493 0.171162 0.411295
C19   C     C_3   0.205167 0.465809 0.373760 -0.395562
C20   C     C_3   0.117550 0.457497 0.362508 -0.722266
C21   C     C_2   0.764139 0.726606 0.690504 0.440578
C22   C     C_3   0.927559 0.723708 0.761159 -0.422830
C23   C     C_3   0.984614 0.811280 0.844864 -0.797485
C24   C     C_R   0.382100 0.502111 0.379611 0.907822
C25   C     C_R   0.662427 0.702644 0.436557 -0.178245
C26   C     C_R   0.722098 0.759288 0.426015 0.151209
C27   C     C_R   0.812671 0.793651 0.481346 -0.118248
C28   C     C_R   0.575935 0.401603 0.716375 -0.035443
C29   C     C_R   0.561964 0.350046 0.755565 -0.043148
C30   C     C_R   0.628452 0.381747 0.839133 0.126300
C31   C     C_R   0.710396 0.453355 0.870935 -0.021277
C32   C     C_3   0.182227 0.428905 0.211454 -0.080039
C33   C     C_R   0.730897 0.472289 0.810221 -0.087928
C34   C     C_R   0.661908 0.457963 0.737978 0.052388
C35   C     C_R   0.681509 0.490828 0.684877 -0.172686
C36   C     C_R   0.370748 0.380340 0.490216 0.828868
C37   C     C_R   0.759555 0.505322 0.683025 -0.097548
C38   C     C_R   0.826462 0.507682 0.747617 0.136046
C39   C     C_R   0.814195 0.498088 0.815312 -0.158845
C40   C     C_R   0.205246 0.213067 0.317946 0.117955
C41   C     C_R   0.131504 0.134001 0.248873 -0.219457
C42   C     C_R   0.093822 0.064932 0.260725 0.170851
C43   C     C_3   0.229606 0.487865 0.310292 0.148322
C44   C     C_R   0.130000 0.076682 0.344380 0.137599
C45   C     C_R   0.182569 0.163299 0.415901 -0.013516
C46   C     C_R   0.230298 0.231378 0.405165 0.043122
C47   C     C_R   0.294856 0.313554 0.481972 -0.157796
C48   C     C_R   0.617193 0.495921 0.620412 0.818424
C49   C     C_R   0.291458 0.331920 0.558576 -0.199959
C50   C     C_R   0.238069 0.268040 0.567137 0.149156
C51   C     C_R   0.185487 0.182979 0.496269 -0.087818
C52   C     C_R   0.999187 0.621272 0.117875 0.838700
C53   C     C_R   0.124699 0.505284 0.129580 0.860311
C54   C     C_3   0.316420 0.502429 0.313081 -0.152876
C55   C     C_R   0.009455 0.379360 0.889326 0.861234
C56   C     C_R   0.882517 0.499473 0.882217 0.849515
C57   C     C_R   0.999215 0.120633 0.618444 0.839766
C58   C     C_R   0.880010 0.871647 0.491500 0.863643
C59   C     C_R   0.996014 0.874325 0.381035 0.856542
C60   C     C_3   0.328350 0.583277 0.303555 -0.016074
C61   C     C_R   0.119870 0.119588 0.499818 0.844041
C62   C     C_R   0.900944 0.718574 0.081591 -0.102850
C63   C     C_R   0.826732 0.729814 0.061164 -0.050235
C64   C     C_R   0.795425 0.742924 0.120598 0.173065
C65   C     C_R   0.811903 0.723191 0.641683 -0.160416
C66   C     C_R   0.842624 0.750365 0.201246 0.021393
C67   C     C_R   0.926687 0.760390 0.227238 -0.070825
C68   C     C_R   0.943403 0.722824 0.162131 0.064910
C69   C     C_R   0.003875 0.694090 0.182706 -0.125731
C70   C     C_R   0.073667 0.739753 0.267289 -0.078033
C71   C     C_R   0.064792 0.786944 0.335466 0.167959
C72   C     C_3   0.240795 0.568134 0.299573 0.092824
C73   C     C_R   0.992335 0.801435 0.315056 -0.183213
C74   C     C_R   0.979964 0.198469 0.875962 0.106503
C75   C     C_R   0.953244 0.111153 0.853983 -0.233690
C76   C     C_R   0.896233 0.732660 0.680287 0.104836
C77   C     C_R   0.918274 0.047503 0.769853 0.183307
C78   C     C_R   0.909835 0.071626 0.706462 0.139744
C79   C     C_R   0.961569 0.160129 0.732979 0.008448
C80   C     C_R   0.984908 0.225376 0.814071 0.045889
C81   C     C_R   0.013407 0.311843 0.826877 -0.159990
C82   C     C_R   0.036423 0.332845 0.770099 -0.182360
C83   C     C_R   0.028522 0.270445 0.698540 -0.019276
C84   C     C_3   0.193115 0.508882 0.199882 -0.189978
C85   C     C_R   0.993465 0.184123 0.682015 -0.178803
C86   C     C_3   0.281499 0.525112 0.204361 0.097025
C87   C     C_R   0.948870 0.748423 0.641118 0.106438
C88   C     C_3   0.269516 0.443588 0.213813 0.079572
C89   C     C_3   0.231720 0.643686 0.350383 -0.417787
C90   C     C_3   0.275914 0.677847 0.447767 -0.808751
C91   C     C_3   0.039555 0.757442 0.677881 -0.412013
C92   C     C_3   0.112480 0.850859 0.717574 -0.896378
C93   C     C_2   0.956829 0.748736 0.510639 0.414309
C94   C     C_3   0.683363 0.774113 0.351283 -0.336922
C95   C     C_3   0.650903 0.838338 0.374110 -0.868112
C96   C     C_2   0.766777 0.510651 0.608393 0.423162
C97   C     C_2   0.501450 0.405527 0.666524 0.432104
C98   C     C_R   0.916828 0.757988 0.566920 0.003161
C99   C     C_2   0.478650 0.265835 0.710196 0.331782
C100  C     C_3   0.614043 0.338346 0.892275 -0.380636
C101  C     C_3   0.555161 0.357121 0.926633 -0.774346
C102  C     C_2   0.767725 0.514394 0.965421 0.434825
C103  C     C_3   0.907749 0.515574 0.740490 -0.378920
C104  C     C_3   0.905542 0.428212 0.709960 -0.724237
C105  C     C_2   0.408809 0.671862 0.356589 0.373064
C106  C     C_3   0.249099 0.272066 0.290606 -0.369179
C107  C     C_3   0.305010 0.241739 0.259272 -0.742498
C108  C     C_3   0.017396 0.979880 0.182684 -0.440015
C109  C     C_R   0.837863 0.760423 0.537851 0.028763
C110  C     C_3   0.045615 0.936239 0.122262 -0.748459
C111  C     C_3   0.144221 0.005189 0.355071 -0.423441
C112  C     C_3   0.229695 0.015244 0.358286 -0.785192
C113  C     C_3   0.238125 0.294227 0.652417 -0.394977
C114  C     C_3   0.316452 0.302243 0.721058 -0.796937
C115  C     C_2   0.159421 0.748157 0.281614 0.381988
C116  C     C_2   0.936490 0.709016 0.021470 0.403975
C117  C     C_2   0.778711 0.723100 0.976462 0.339734
C118  C     C_3   0.718955 0.759914 0.103400 -0.389997
C119  C     C_3   0.744962 0.850218 0.112390 -0.893784
H1    H     H_    0.332499 0.396884 0.614142 0.217512
H2    H     H_    0.265602 0.697557 0.341112 0.225795
H3    H     H_    0.121648 0.483129 0.426646 0.222773
H4    H     H_    0.203371 0.403921 0.365998 0.170400
H5    H     H_    0.257053 0.517295 0.440881 0.220480
H6    H     H_    0.752462 0.684360 0.717691 0.072706
H7    H     H_    0.046808 0.849714 0.849088 0.249523
H8    H     H_    0.949644 0.848685 0.848963 0.269294
H9    H     H_    0.000169 0.800178 0.900957 0.270828
H10   H     H_    0.872548 0.684113 0.765806 0.186883
H11   H     H_    0.961445 0.685706 0.758347 0.185090
H12   H     H_    0.098665 0.879093 0.675033 0.252047
H13   H     H_    0.121639 0.893699 0.780508 0.260234
H14   H     H_    0.174677 0.851153 0.729280 0.253603
H15   H     H_    0.055178 0.739353 0.728496 0.223868
H16   H     H_    0.043381 0.711435 0.626222 0.192964
H17   H     H_    0.024164 0.764733 0.536698 0.057943
H18   H     H_    0.706447 0.903940 0.426246 0.278679
H19   H     H_    0.618292 0.843174 0.316354 0.245641
H20   H     H_    0.603141 0.816039 0.395185 0.272155
H21   H     H_    0.106670 0.123907 0.183637 0.151143
H22   H     H_    0.728229 0.796017 0.327884 0.231432
H23   H     H_    0.627233 0.710984 0.294387 0.219281
H24   H     H_    0.753497 0.555647 0.590236 0.043900
H25   H     H_    0.453878 0.352139 0.602044 0.106797
H26   H     H_    0.460709 0.233204 0.744217 0.088224
H27   H     H_    0.584044 0.428083 0.968818 0.310431
H28   H     H_    0.489696 0.332659 0.873348 0.221836
H29   H     H_    0.547041 0.324516 0.965105 0.242911
H30   H     H_    0.585704 0.266901 0.852952 0.170350
H31   H     H_    0.676926 0.359896 0.947758 0.238897
H32   H     H_    0.059674 0.398713 0.780877 0.205828
H33   H     H_    0.835165 0.556947 0.991094 0.034117
H34   H     H_    0.962465 0.435078 0.700848 0.251981
H35   H     H_    0.907695 0.405848 0.757605 0.235731
H36   H     H_    0.845147 0.377966 0.647102 0.280237
H37   H     H_    0.914757 0.537819 0.694696 0.214923
H38   H     H_    0.969271 0.567784 0.800589 0.217617
H39   H     H_    0.409517 0.722187 0.340182 0.075106
H40   H     H_    0.344376 0.226694 0.304422 0.266882
H41   H     H_    0.262309 0.181739 0.194757 0.213900
H42   H     H_    0.350176 0.292296 0.253495 0.259674
H43   H     H_    0.958732 0.092120 0.903038 0.152502
H44   H     H_    0.198581 0.269104 0.237166 0.152453
H45   H     H_    0.284259 0.340244 0.340235 0.193279
H46   H     H_    0.080731 0.981134 0.104135 0.232428
H47   H     H_    0.088786 0.914769 0.153942 0.288410
H48   H     H_    0.987027 0.879245 0.061943 0.295834
H49   H     H_    0.984261 0.934225 0.201262 0.218464
H50   H     H_    0.967774 0.993322 0.147020 0.214299
H51   H     H_    0.229247 0.013870 0.298935 0.260239
H52   H     H_    0.285841 0.077738 0.415775 0.277344
H53   H     H_    0.238386 0.961057 0.362729 0.293816
H54   H     H_    0.593286 0.670246 0.391029 0.175452
H55   H     H_    0.147684 0.007604 0.415061 0.212834
H56   H     H_    0.090825 0.939544 0.301333 0.217345
H57   H     H_    0.314887 0.322107 0.782541 0.238011
H58   H     H_    0.314152 0.238391 0.699964 0.274551
H59   H     H_    0.378178 0.352275 0.733083 0.273171
H60   H     H_    0.239709 0.357802 0.675789 0.231392
H61   H     H_    0.178403 0.247179 0.645852 0.192298
H62   H     H_    0.163491 0.697446 0.237609 0.076114
H63   H     H_    0.892817 0.670742 0.952139 0.085538
H64   H     H_    0.708036 0.688393 0.941177 0.109336
H65   H     H_    0.340113 0.680945 0.472247 0.284320
H66   H     H_    0.801199 0.901202 0.177975 0.260914
H67   H     H_    0.689304 0.862239 0.103285 0.258009
H68   H     H_    0.762929 0.855822 0.063441 0.277345
H69   H     H_    0.662070 0.708594 0.038537 0.205792
H70   H     H_    0.695814 0.758667 0.149995 0.241168
H71   H     H_    0.834339 0.751672 0.317050 0.104353
H72   H     H_    0.441099 0.566887 0.226405 0.272990
H73   H     H_    0.428667 0.576313 0.131557 0.258872
H74   H     H_    0.445374 0.663006 0.224183 0.246487
H75   H     H_    0.279966 0.491090 0.082045 0.207734
H76   H     H_    0.286539 0.744562 0.481701 0.250067
H77   H     H_    0.297257 0.598876 0.136950 0.227846
H78   H     H_    0.202946 0.936036 0.468006 0.266910
H79   H     H_    0.208816 0.911132 0.552951 0.213460
H80   H     H_    0.259869 0.879683 0.493135 0.263176
H81   H     H_    0.076050 0.787550 0.452935 0.210609
H82   H     H_    0.134332 0.745719 0.415921 0.185263
H83   H     H_    0.867199 0.215646 0.915573 0.231025
H84   H     H_    0.908949 0.183857 0.992983 0.217034
H85   H     H_    0.933534 0.294948 0.027041 0.290420
H86   H     H_    0.048540 0.238981 0.008187 0.152544
H87   H     H_    0.233838 0.636519 0.463889 0.254043
H88   H     H_    0.050499 0.325309 0.993134 0.194985
H89   H     H_    0.011543 0.979383 0.719474 0.291543
H90   H     H_    0.048896 0.016492 0.833236 0.252281
H91   H     H_    0.991503 0.902830 0.757053 0.282670
H92   H     H_    0.892583 0.942544 0.798656 0.230380
H93   H     H_    0.855915 0.907624 0.686806 0.240316
H94   H     H_    0.739276 0.952956 0.655367 0.278574
H95   H     H_    0.745670 0.050046 0.651643 0.261769
H96   H     H_    0.689574 0.947535 0.553085 0.260488
H97   H     H_    0.830177 0.038961 0.574042 0.232952
H98   H     H_    0.161689 0.624034 0.324640 0.191332
H99   H     H_    0.831352 0.948973 0.586824 0.211097
H100  H     H_    0.042561 0.247409 0.580623 0.087505
H101  H     H_    0.414650 0.433079 0.225106 0.279909
H102  H     H_    0.362494 0.327918 0.131380 0.231513
H103  H     H_    0.369344 0.419069 0.117490 0.260438
H104  H     H_    0.249507 0.312033 0.162465 0.201167
H105  H     H_    0.223445 0.344489 0.084417 0.183610
H106  H     H_    0.102673 0.283252 0.145258 0.014392
H107  H     H_    0.098438 0.494008 0.331585 0.271420
H108  H     H_    0.065620 0.387980 0.323047 0.281768
O1    O     O_R   0.592050 0.539910 0.448690 -0.628640
O2    O     O_R   0.051390 0.091590 0.643040 -0.608736
O3    O     O_R   0.856260 0.908400 0.447890 -0.637325
O4    O     O_R   0.591210 0.643330 0.551330 -0.550817
O5    O     O_R   0.960490 0.908380 0.552100 -0.631122
O6    O     O_R   0.948610 0.908430 0.356980 -0.644533
O7    O     O_R   0.052850 0.908400 0.461190 -0.613339
O8    O     O_R   0.039510 0.091640 0.447910 -0.620372
O9    O     O_R   0.143740 0.091610 0.552120 -0.611620
O10   O     O_R   0.408100 0.448300 0.356370 -0.649980
O11   O     O_R   0.407270 0.551720 0.459020 -0.612463
O12   O     O_R   0.054880 0.643340 0.094680 -0.582491
O13   O     O_R   0.408790 0.356670 0.448670 -0.614126
O14   O     O_R   0.407950 0.460090 0.551310 -0.593202
O15   O     O_R   0.592730 0.448280 0.540980 -0.610657
O16   O     O_R   0.591900 0.551700 0.643630 -0.576865
O17   O     O_R   0.951420 0.539930 0.094700 -0.612880
O18   O     O_2   0.913284 0.718928 0.432939 -0.616012
O19   O     O_2   0.779878 0.459347 0.562200 -0.545435
O20   O     O_2   0.491587 0.466549 0.700517 -0.570817
O21   O     O_2   0.429957 0.229224 0.632286 -0.588555
O22   O     O_2   0.739504 0.520789 0.015445 -0.569639
O23   O     O_R   0.044450 0.448300 0.096090 -0.592235
O24   O     O_2   0.472823 0.688284 0.418497 -0.584326
O25   O     O_2   0.227322 0.814587 0.339900 -0.598071
O26   O     O_2   0.014825 0.747541 0.048722 -0.565456
O27   O     O_2   0.817395 0.758572 0.946515 -0.594434
O28   O     O_2   0.721844 0.668087 0.208351 -0.582952
O29   O     O_2   0.086849 0.371940 0.657326 -0.583323
O30   O     O_2   0.036867 0.341381 0.172725 -0.570943
O31   O     O_2   0.738367 0.778991 0.702058 -0.552056
O32   O     O_R   0.147910 0.551710 0.096070 -0.654740
O33   O     O_R   0.952850 0.356690 0.912870 -0.611827
O34   O     O_R   0.056310 0.460100 0.912850 -0.626131
O35   O     O_R   0.859820 0.448320 0.911480 -0.639698
O36   O     O_R   0.963280 0.551730 0.911460 -0.608602
O37   O     O_R   0.947150 0.091620 0.538830 -0.633350
Zn1   Zn    Zn3+2 0.500560 0.430950 0.431460 0.962398
Zn2   Zn    Zn3+2 0.499440 0.569050 0.568540 1.059537
Zn3   Zn    Zn3+2 0.934790 0.430970 0.003790 0.958506
Zn4   Zn    Zn3+2 0.072940 0.569060 0.003760 0.978462
Zn5   Zn    Zn3+2 0.930400 0.000020 0.430430 0.931710
Zn6   Zn    Zn3+2 0.069600 0.999990 0.569590 0.923117

loop_
_geom_bond_atom_site_label_1
_geom_bond_atom_site_label_2
_ccdc_geom_bond_type
C28   C97   S    
C26   C94   S    
C54   C88   S    
C101  H29   S    
C36   O13   A    
O37   Zn5   S    
C53   O32   A    
C18   H106  S    
C87   C91   S    
C111  H55   S    
C41   C42   A    
C111  C112  S    
C51   C61   S    
O16   Zn2   S    
C22   C76   S    
C2    C65   A    
C107  H41   S    
C20   H107  S    
C47   C49   A    
C54   C60   S    
C45   C46   A    
C4    H75   S    
C19   H4    S    
C26   C27   A    
C33   C39   A    
C65   C76   A    
C8    C74   S    
C75   H43   S    
C111  H56   S    
C36   O14   A    
C5    H74   S    
C28   C29   A    
C92   H13   S    
C84   C86   S    
O23   Zn3   S    
C34   C35   A    
C69   C70   A    
C52   O17   A    
C11   H91   S    
O6    Zn5   S    
C30   C31   A    
C63   C117  S    
C110  H46   S    
C86   C88   S    
C21   O31   D    
C49   H1    S    
C4    C86   S    
C106  C107  S    
C60   C72   S    
C24   C54   S    
C102  O22   D    
C30   C100  S    
C64   C118  S    
C14   H95   S    
C36   C47   S    
O10   Zn1   S    
C55   O33   A    
C17   H103  S    
O15   Zn1   S    
C12   H99   S    
C2    C13   A    
C118  C119  S    
C18   O30   D    
C52   C69   S    
C9    H84   S    
C52   O12   A    
C90   H87   S    
C32   C43   S    
C112  H51   S    
C90   H76   S    
C107  H42   S    
C108  C110  S    
C68   C69   A    
C114  H59   S    
C12   C78   S    
C14   H96   S    
C31   C33   A    
C70   C71   A    
C67   C73   A    
C2    C109  A    
C106  H45   S    
C104  H34   S    
C55   C81   S    
C29   C30   A    
C59   C73   S    
C20   H3    S    
C82   H32   S    
C116  O26   D    
C87   C98   A    
C21   C65   S    
C93   H17   S    
C92   H14   S    
C114  H57   S    
C66   C67   A    
C108  H49   S    
C28   C34   A    
C98   C109  A    
C74   C80   A    
C108  H50   S    
C22   H11   S    
C7    H80   S    
C94   H22   S    
C13   C25   A    
C59   O6    A    
C42   C44   A    
C112  H53   S    
C48   O16   A    
C35   C48   S    
C96   O19   D    
C113  H60   S    
C115  H62   S    
C10   C77   S    
C19   C43   S    
O7    Zn6   S    
C119  H68   S    
C15   O29   D    
O36   Zn4   S    
C32   C84   S    
C19   H5    S    
C95   H18   S    
C74   C75   A    
C29   C99   S    
C67   C68   A    
C94   H23   S    
C31   C102  S    
O11   Zn2   S    
C92   H12   S    
C58   O5    A    
C5    H72   S    
O34   Zn4   S    
C48   O15   A    
C10   C11   S    
C3    H71   S    
C91   C92   S    
C71   C73   A    
C118  H69   S    
C78   C79   A    
C16   C17   S    
C15   C83   S    
C115  O25   D    
C38   C103  S    
C25   C26   A    
C77   C78   A    
O1    Zn1   S    
C27   C58   S    
C81   C82   A    
C79   C80   A    
C37   C96   S    
C116  H63   S    
C64   C66   A    
C7    H78   S    
C8    H88   S    
C56   O35   A    
C119  H66   S    
C97   H25   S    
C62   C116  S    
C37   C38   A    
C58   O3    A    
C9    H85   S    
C57   O2    A    
O2    Zn6   S    
C1    O4    A    
C43   C54   S    
C105  H39   S    
C114  H58   S    
C56   O36   A    
C62   C63   A    
O9    Zn6   S    
C33   C34   A    
C8    C9    S    
C91   H16   S    
C101  H27   S    
C50   C51   A    
C39   C56   S    
C106  H44   S    
O33   Zn3   S    
C27   C109  A    
C75   C77   A    
C76   C87   A    
C105  O24   D    
C72   C84   S    
C17   H101  S    
C93   O18   D    
C6    H82   S    
C23   H7    S    
C1    O1    A    
C10   H93   S    
C40   C41   A    
C83   C85   A    
C90   H65   S    
C82   C83   A    
C94   C95   S    
C53   C84   S    
C22   H10   S    
C61   O8    A    
O5    Zn6   S    
C16   H105  S    
C59   O7    A    
C18   C32   S    
C11   H89   S    
C12   H97   S    
C21   H6    S    
O35   Zn3   S    
C24   O11   A    
C44   C45   A    
C117  O27   D    
C40   C106  S    
C113  C114  S    
C4    H77   S    
C43   C72   S    
C46   C47   A    
C101  H28   S    
C95   H19   S    
C60   C86   S    
C112  H52   S    
C41   H21   S    
C35   C37   A    
C55   O34   A    
O32   Zn4   S    
O13   Zn1   S    
C103  H38   S    
C5    H73   S    
C12   C14   S    
C80   C81   A    
C110  H48   S    
C97   O20   D    
C107  H40   S    
C10   H92   S    
C117  H64   S    
C6    C7    S    
O3    Zn5   S    
C70   C115  S    
O8    Zn5   S    
C23   H8    S    
C95   H20   S    
C100  H30   S    
C62   C68   A    
O17   Zn3   S    
C100  H31   S    
C50   C113  S    
C19   C20   S    
C89   C90   S    
C119  H67   S    
C20   H108  S    
C11   H90   S    
C96   H24   S    
C6    H81   S    
C72   C89   S    
C110  H47   S    
C38   C39   A    
C91   H15   S    
C89   H2    S    
C7    H79   S    
C40   C46   A    
O14   Zn2   S    
C100  C101  S    
C118  H70   S    
C79   C85   A    
C57   C85   S    
O12   Zn4   S    
C53   O23   A    
C104  H36   S    
C99   H26   S    
C8    H86   S    
C42   C108  S    
C3    O28   D    
C17   H102  S    
C9    H83   S    
C60   C105  S    
C89   H98   S    
C63   C64   A    
C3    C66   S    
C44   C111  S    
C25   H54   S    
C103  H37   S    
C4    C5    S    
C113  H61   S    
C1    C13   S    
C14   H94   S    
C49   C50   A    
O4    Zn2   S    
C103  C104  S    
C16   C88   S    
C61   O9    A    
C45   C51   A    
C22   C23   S    
C16   H104  S    
C57   O37   A    
C104  H35   S    
C99   O21   D    
C15   H100  S    
C93   C98   S    
C24   O10   A    
C102  H33   S    
C23   H9    S    
C6    C71   S    
C32   C88   S    
