data_mof_unit_30529.cif
_audit_creation_date              2012-12-10T17:21:00-0500
_audit_creation_method            fapswitch 2.2
_symmetry_space_group_name_H-M    P1
_symmetry_Int_Tables_number       1
_space_group_crystal_system       triclinic
_cell_length_a                    18.306295
_cell_length_b                    25.920567
_cell_length_c                    18.270755
_cell_angle_alpha                 89.81607
_cell_angle_beta                  89.650945
_cell_angle_gamma                 89.759282
_cell_volume                      8669.36630136

loop_
_atom_site_label
_atom_site_type_symbol
_atom_type_description
_atom_site_fract_x
_atom_site_fract_y
_atom_site_fract_z
_atom_type_partial_charge
C1    C     C_R   0.393504 0.252579 0.136670 0.816099
C2    C     C_R   0.383473 0.140740 0.686560 -0.156813
C3    C     C_R   0.925107 0.348775 0.120396 -0.197406
C4    C     C_R   0.456789 0.874155 0.345439 -0.182775
C5    C     C_R   0.612432 0.362202 0.809329 -0.155293
C6    C     C_R   0.434418 0.363671 0.357608 -0.207785
C7    C     C_R   0.432661 0.855853 0.627249 -0.178540
C8    C     C_R   0.964049 0.280073 0.895174 -0.227497
C9    C     C_R   0.985803 0.684404 0.127013 -0.242140
C10   C     C_R   0.963391 0.722323 0.896175 -0.226558
C11   C     C_R   0.985976 0.316723 0.127411 -0.236623
C12   C     C_R   0.506870 0.833619 0.349618 -0.235257
C13   C     C_R   0.564527 0.135667 0.143238 -0.131299
C14   C     C_R   0.610963 0.325760 0.753484 -0.194893
C15   C     C_R   0.474916 0.318592 0.367700 -0.191502
C16   C     C_R   0.491837 0.822128 0.632925 -0.222697
C17   C     C_R   0.313690 0.053839 0.880063 -0.142537
C18   C     C_R   0.314812 0.946564 0.880459 -0.117781
C19   C     C_R   0.813850 0.553729 0.379722 -0.140121
C20   C     C_R   0.813527 0.446427 0.379617 -0.123998
C21   C     C_R   0.347161 0.027066 0.823000 -0.136261
C22   C     C_R   0.348149 0.973576 0.823463 -0.073723
C23   C     C_R   0.845793 0.526867 0.321833 -0.093089
C24   C     C_R   0.559423 0.638125 0.864919 -0.027952
C25   C     C_R   0.845681 0.473335 0.321808 -0.086296
C26   C     C_R   0.282636 0.972939 0.940597 0.060691
C27   C     C_R   0.282482 0.027241 0.940585 0.072309
C28   C     C_R   0.782347 0.472888 0.440206 0.063158
C29   C     C_R   0.782593 0.527197 0.440287 0.063390
C30   C     C_R   0.250321 0.946311 0.000156 -0.137541
C31   C     C_R   0.250643 0.053691 0.000412 -0.139759
C32   C     C_R   0.749540 0.446327 0.499564 -0.144336
C33   C     C_R   0.750183 0.553707 0.499794 -0.141760
C34   C     C_R   0.220466 0.972752 0.061003 0.068547
C35   C     C_R   0.107272 0.202862 0.588193 -0.117400
C36   C     C_R   0.220599 0.027064 0.061123 0.072783
C37   C     C_R   0.716271 0.472870 0.558573 0.072318
C38   C     C_R   0.716720 0.527162 0.558748 0.074674
C39   C     C_R   0.192476 0.946126 0.123039 -0.111520
C40   C     C_R   0.192511 0.053479 0.123188 -0.142319
C41   C     C_R   0.683445 0.446407 0.618360 -0.150791
C42   C     C_R   0.684516 0.553641 0.618789 -0.146071
C43   C     C_R   0.164467 0.972919 0.182996 -0.063484
C44   C     C_R   0.164433 0.026489 0.183048 -0.108821
C45   C     C_R   0.649741 0.473334 0.675136 -0.114113
C46   C     C_R   0.074372 0.848313 0.378988 -0.100074
C47   C     C_R   0.650339 0.526790 0.675388 -0.115144
C48   C     C_R   0.250166 0.109329 0.000142 0.789821
C49   C     C_R   0.249980 0.890674 0.999874 0.791713
C50   C     C_R   0.750123 0.609334 0.499852 0.786543
C51   C     C_R   0.749871 0.390680 0.499862 0.796628
C52   C     C_R   0.246671 0.391110 0.999781 0.918162
C53   C     C_R   0.246626 0.608892 0.000402 0.924844
C54   C     C_R   0.746492 0.891112 0.499706 0.921880
C55   C     C_R   0.746357 0.108910 0.500306 0.919632
C56   C     C_3   0.206680 0.469124 0.072021 -0.008809
C57   C     C_R   0.108529 0.791691 0.585904 -0.122403
C58   C     C_3   0.195948 0.531002 0.935968 -0.014542
C59   C     C_3   0.214944 0.529014 0.077148 -0.009732
C60   C     C_3   0.202641 0.470912 0.930101 -0.006554
C61   C     C_3   0.700425 0.969210 0.568239 -0.008786
C62   C     C_3   0.701034 0.031032 0.431828 -0.002732
C63   C     C_3   0.707986 0.029188 0.573816 -0.006069
C64   C     C_3   0.709016 0.971054 0.426106 -0.003228
C65   C     C_3   0.325850 0.469185 0.996178 0.493562
C66   C     C_3   0.325367 0.530470 0.989856 0.477110
C67   C     C_3   0.825631 0.969166 0.503444 0.476011
C68   C     C_R   0.073324 0.149679 0.377865 -0.097813
C69   C     C_3   0.825593 0.030420 0.496356 0.474228
C70   C     C_3   0.244163 0.448795 0.999356 -0.174211
C71   C     C_3   0.244315 0.551205 0.001287 -0.159498
C72   C     C_3   0.744022 0.948800 0.499048 -0.159901
C73   C     C_3   0.743892 0.051224 0.500907 -0.154956
C74   C     C_R   0.144292 0.218683 0.712416 -0.139548
C75   C     C_R   0.122139 0.816178 0.264487 -0.150904
C76   C     C_R   0.144995 0.778039 0.710974 -0.125850
C77   C     C_R   0.121439 0.182500 0.263757 -0.148858
C78   C     C_R   0.600228 0.666531 0.258043 -0.135281
C79   C     C_R   0.493051 0.666577 0.150394 -0.126275
C80   C     C_R   0.495391 0.175336 0.636817 -0.158764
C81   C     C_R   0.579181 0.157244 0.269973 -0.126289
C82   C     C_R   0.612211 0.674648 0.755189 -0.122062
C83   C     C_R   0.161149 0.203132 0.641368 -0.127148
C84   C     C_R   0.128243 0.848431 0.325019 -0.144087
C85   C     C_R   0.162391 0.791289 0.639036 -0.074192
C86   C     C_R   0.127207 0.149560 0.323918 -0.156491
C87   C     C_R   0.595925 0.625688 0.208881 -0.068061
C88   C     C_R   0.438570 0.139805 0.633882 -0.129221
C89   C     C_R   0.588991 0.122696 0.212617 -0.123565
C90   C     C_R   0.385515 0.176676 0.743090 -0.163675
C91   C     C_R   0.613205 0.637803 0.810931 -0.083754
C92   C     C_3   0.128339 0.448312 0.086019 -0.805451
C93   C     C_3   0.116924 0.552711 0.934341 -0.825840
C94   C     C_3   0.149029 0.557005 0.114282 -0.815529
C95   C     C_3   0.131234 0.443283 0.906833 -0.838585
C96   C     C_3   0.621518 0.948125 0.576128 -0.826333
C97   C     C_3   0.622006 0.052186 0.424546 -0.848912
C98   C     C_3   0.638803 0.057117 0.604291 -0.836767
C99   C     C_3   0.640492 0.943341 0.395376 -0.840286
C100  C     C_R   0.524584 0.180961 0.132750 -0.102124
C101  C     C_R   0.389288 0.750234 0.859910 0.782866
C102  C     C_R   0.504141 0.675185 0.863278 -0.107353
C103  C     C_R   0.036263 0.218115 0.605803 -0.111356
C104  C     C_R   0.014144 0.815938 0.372700 -0.117983
C105  C     C_R   0.037075 0.778485 0.604325 -0.119492
C106  C     C_R   0.013396 0.182730 0.371916 -0.114793
C107  C     C_R   0.495618 0.708218 0.200344 0.053723
C108  C     C_R   0.442827 0.213089 0.747300 0.080666
C109  C     C_R   0.507225 0.214048 0.192293 0.081348
C110  C     C_R   0.501486 0.712676 0.806712 0.055823
C111  C     C_R   0.017824 0.234776 0.677488 0.074097
C112  C     C_R   0.389744 0.749913 0.139898 0.785641
C113  C     C_R   0.006702 0.782880 0.311603 0.060935
C114  C     C_R   0.018217 0.763490 0.676758 0.076132
C115  C     C_R   0.006273 0.216471 0.311180 0.061095
C116  C     C_R   0.072669 0.235025 0.731565 0.068858
C117  C     C_R   0.061397 0.782951 0.256910 0.070389
C118  C     C_R   0.072948 0.763466 0.730940 0.058558
C119  C     C_R   0.061011 0.216420 0.256511 0.073821
C120  C     C_R   0.550141 0.708303 0.254765 0.062727
C121  C     C_R   0.498045 0.212720 0.693138 0.072612
C122  C     C_R   0.543825 0.205340 0.258796 0.070462
C123  C     C_R   0.389615 0.249936 0.860090 0.792011
C124  C     C_R   0.556289 0.712502 0.752121 0.073238
C125  C     C_R   0.445698 0.749884 0.196212 -0.114123
C126  C     C_R   0.445560 0.250069 0.803832 -0.117335
C127  C     C_R   0.456071 0.255601 0.187562 -0.164715
C128  C     C_R   0.445060 0.749902 0.803421 -0.110116
C129  C     C_R   0.945591 0.249500 0.696554 -0.122833
C130  C     C_R   0.945816 0.750059 0.304009 -0.117093
C131  C     C_R   0.945761 0.750064 0.696333 -0.120069
C132  C     C_R   0.945647 0.249946 0.303934 -0.117135
C133  C     C_R   0.449513 0.791704 0.245565 0.016335
C134  C     C_R   0.889572 0.749752 0.640178 0.794371
C135  C     C_R   0.501281 0.287535 0.806269 -0.005294
C136  C     C_R   0.455982 0.294575 0.241457 -0.001476
C137  C     C_R   0.440768 0.785740 0.745136 0.022178
C138  C     C_R   0.927095 0.263256 0.769424 0.013845
C139  C     C_R   0.938371 0.717433 0.242714 0.018425
C140  C     C_R   0.926990 0.737497 0.769658 0.014096
C141  C     C_R   0.938410 0.283149 0.242887 0.016021
C142  C     C_R   0.982306 0.264289 0.823080 0.082002
C143  C     C_R   0.993276 0.717308 0.188248 0.086628
C144  C     C_R   0.981979 0.736950 0.823563 0.082485
C145  C     C_R   0.889581 0.250036 0.360174 0.789692
C146  C     C_R   0.993365 0.283305 0.188445 0.087777
C147  C     C_R   0.504243 0.791918 0.299774 0.085456
C148  C     C_R   0.555642 0.287803 0.751275 0.082334
C149  C     C_R   0.492560 0.285800 0.307946 0.085367
C150  C     C_R   0.496253 0.786121 0.691224 0.082862
C151  C     C_R   0.054525 0.250176 0.803756 -0.125303
C152  C     C_R   0.054221 0.750027 0.195947 -0.117056
C153  C     C_R   0.054354 0.750107 0.803869 -0.122998
C154  C     C_R   0.054190 0.250036 0.195901 -0.116806
C155  C     C_R   0.554169 0.750226 0.303912 -0.114788
C156  C     C_R   0.889466 0.250125 0.640283 0.794970
C157  C     C_R   0.553981 0.250016 0.695784 -0.116333
C158  C     C_R   0.543851 0.244356 0.312561 -0.181691
C159  C     C_R   0.553974 0.749922 0.695771 -0.111595
C160  C     C_R   0.398881 0.833154 0.242755 -0.211402
C161  C     C_R   0.504214 0.324716 0.862873 -0.174493
C162  C     C_R   0.420351 0.342613 0.230535 -0.133161
C163  C     C_R   0.381254 0.820551 0.738493 -0.239989
C164  C     C_R   0.854622 0.276537 0.790207 -0.220900
C165  C     C_R   0.876982 0.684902 0.234402 -0.226043
C166  C     C_R   0.854477 0.724738 0.790605 -0.216622
C167  C     C_R   0.889723 0.749997 0.360169 0.791675
C168  C     C_R   0.877090 0.316155 0.234732 -0.225928
C169  C     C_R   0.402808 0.873942 0.292161 0.452304
C170  C     C_R   0.559575 0.361508 0.864266 0.507495
C171  C     C_R   0.409855 0.376850 0.288274 0.459112
C172  C     C_R   0.377009 0.854719 0.679432 0.407942
C173  C     C_R   0.837582 0.289370 0.862508 0.454676
C174  C     C_R   0.870417 0.653152 0.173272 0.447949
C175  C     C_R   0.837130 0.712966 0.863255 0.454288
C176  C     C_R   0.870543 0.348357 0.173745 0.444455
C177  C     C_R   0.110577 0.249848 0.859837 0.773397
C178  C     C_R   0.542667 0.625799 0.155036 -0.049827
C179  C     C_R   0.110316 0.750052 0.139851 0.778118
C180  C     C_R   0.110475 0.750273 0.859895 0.777606
C181  C     C_R   0.110355 0.249990 0.139772 0.775148
C182  C     C_R   0.610172 0.750150 0.360167 0.778643
C183  C     C_R   0.610220 0.249994 0.639783 0.777380
C184  C     C_R   0.606478 0.247423 0.363350 0.810965
C185  C     C_R   0.610398 0.749901 0.639847 0.773946
C186  C     C_R   0.892361 0.291744 0.914541 -0.168490
C187  C     C_R   0.924920 0.652787 0.119873 -0.191415
C188  C     C_R   0.891649 0.711217 0.915644 -0.169760
Cl1   Cl    Cl    0.747115 0.301943 0.888734 -0.598634
Cl2   Cl    Cl    0.361855 0.552892 0.902974 -0.529809
Cl3   Cl    Cl    0.386643 0.560192 0.054567 -0.538544
Cl4   Cl    Cl    0.375891 0.439332 0.921568 -0.477202
Cl5   Cl    Cl    0.867726 0.947032 0.587464 -0.501586
Cl6   Cl    Cl    0.868493 0.052358 0.412237 -0.529874
Cl7   Cl    Cl    0.881789 0.060493 0.565325 -0.494820
Cl8   Cl    Cl    0.882583 0.938783 0.434351 -0.515583
Cl9   Cl    Cl    0.793235 0.613976 0.163288 -0.641678
Cl10  Cl    Cl    0.746619 0.700725 0.889332 -0.617111
Cl11  Cl    Cl    0.793185 0.387922 0.163817 -0.566848
Cl12  Cl    Cl    0.339267 0.924738 0.287453 -0.665770
Cl13  Cl    Cl    0.563677 0.406287 0.935939 -0.438036
Cl14  Cl    Cl    0.362601 0.435079 0.274376 -0.539429
Cl15  Cl    Cl    0.300764 0.895403 0.669745 -0.671798
Cl16  Cl    Cl    0.375534 0.446401 0.075381 -0.471006
H1    H     H_    0.237899 0.453094 0.119024 0.226942
H2    H     H_    0.464093 0.325448 0.906624 0.173544
H3    H     H_    0.620216 0.037731 0.655307 0.245104
H4    H     H_    0.649744 0.097306 0.620804 0.258411
H5    H     H_    0.652716 0.903757 0.376523 0.259814
H6    H     H_    0.594671 0.941032 0.434504 0.234938
H7    H     H_    0.621011 0.963660 0.345594 0.246737
H8    H     H_    0.401436 0.354337 0.177050 0.218940
H9    H     H_    0.336982 0.820923 0.778042 0.137644
H10   H     H_    0.810401 0.276817 0.751273 0.162238
H11   H     H_    0.833525 0.683934 0.274829 0.139322
H12   H     H_    0.810466 0.723851 0.751473 0.161499
H13   H     H_    0.833604 0.317082 0.275126 0.147201
H14   H     H_    0.004610 0.283472 0.937636 0.150542
H15   H     H_    0.026668 0.682864 0.083997 0.130280
H16   H     H_    0.003725 0.719239 0.938948 0.152257
H17   H     H_    0.219725 0.546534 0.884290 0.210895
H18   H     H_    0.026847 0.318276 0.084406 0.128617
H19   H     H_    0.547182 0.835229 0.392601 0.136560
H20   H     H_    0.653996 0.327382 0.712683 0.132571
H21   H     H_    0.488379 0.309011 0.423489 0.194689
H22   H     H_    0.533304 0.824029 0.590534 0.130498
H23   H     H_    0.143202 0.047248 0.229942 0.151713
H24   H     H_    0.143339 0.951997 0.229875 0.156106
H25   H     H_    0.624448 0.547474 0.719832 0.148362
H26   H     H_    0.623301 0.452716 0.719343 0.151694
H27   H     H_    0.313067 0.095447 0.876002 0.133512
H28   H     H_    0.259191 0.535405 0.117560 0.222448
H29   H     H_    0.315127 0.904963 0.876632 0.142656
H30   H     H_    0.813686 0.595354 0.375853 0.142226
H31   H     H_    0.813090 0.404828 0.375643 0.144399
H32   H     H_    0.372351 0.047868 0.778163 0.146173
H33   H     H_    0.374657 0.952944 0.779292 0.178249
H34   H     H_    0.870280 0.547692 0.276560 0.177002
H35   H     H_    0.870120 0.452552 0.276531 0.174018
H36   H     H_    0.192765 0.904475 0.126598 0.130438
H37   H     H_    0.192746 0.095110 0.126820 0.131541
H38   H     H_    0.683252 0.404812 0.622297 0.134422
H39   H     H_    0.239079 0.463632 0.882248 0.209665
H40   H     H_    0.685219 0.595205 0.623064 0.133042
H41   H     H_    0.879439 0.302540 0.970355 0.184779
H42   H     H_    0.920097 0.628099 0.072464 0.172642
H43   H     H_    0.878510 0.701226 0.971775 0.184161
H44   H     H_    0.920314 0.373811 0.073096 0.172846
H45   H     H_    0.459830 0.905649 0.384086 0.165971
H46   H     H_    0.655953 0.390313 0.810781 0.177628
H47   H     H_    0.422762 0.388526 0.403785 0.184414
H48   H     H_    0.429768 0.882497 0.581575 0.170242
H49   H     H_    0.187911 0.217118 0.752017 0.131181
H50   H     H_    0.727562 0.953363 0.617805 0.212189
H51   H     H_    0.165361 0.817635 0.223846 0.120800
H52   H     H_    0.188650 0.779814 0.750459 0.142963
H53   H     H_    0.164660 0.181019 0.223120 0.115247
H54   H     H_    0.643339 0.665006 0.298254 0.136788
H55   H     H_    0.536710 0.173409 0.594275 0.108949
H56   H     H_    0.598404 0.145563 0.323333 0.146137
H57   H     H_    0.655659 0.673153 0.714811 0.109268
H58   H     H_    0.216141 0.190796 0.627731 0.143518
H59   H     H_    0.174959 0.873623 0.330021 0.182280
H60   H     H_    0.217818 0.801707 0.624581 0.182412
H61   H     H_    0.728410 0.046906 0.382170 0.206798
H62   H     H_    0.173681 0.123829 0.328656 0.145755
H63   H     H_    0.634330 0.593927 0.212373 0.199820
H64   H     H_    0.437080 0.111648 0.590287 0.138607
H65   H     H_    0.617507 0.086574 0.221607 0.146460
H66   H     H_    0.656617 0.609373 0.812917 0.156422
H67   H     H_    0.539927 0.594225 0.116531 0.207967
H68   H     H_    0.338927 0.113512 0.683625 0.143158
H69   H     H_    0.575909 0.110392 0.097473 0.155189
H70   H     H_    0.560644 0.609658 0.908391 0.183730
H71   H     H_    0.120361 0.190318 0.533183 0.138936
H72   H     H_    0.748377 0.035945 0.617999 0.211497
H73   H     H_    0.079216 0.873414 0.425938 0.175988
H74   H     H_    0.122024 0.802669 0.530245 0.146958
H75   H     H_    0.077918 0.124044 0.424521 0.167363
H76   H     H_    0.453045 0.665155 0.107121 0.164943
H77   H     H_    0.341525 0.175858 0.782921 0.106424
H78   H     H_    0.511243 0.190380 0.076881 0.183650
H79   H     H_    0.463491 0.673917 0.906507 0.147466
H80   H     H_    0.996125 0.215913 0.562766 0.137266
H81   H     H_    0.973594 0.817203 0.416028 0.142644
H82   H     H_    0.997056 0.780765 0.561164 0.140737
H83   H     H_    0.750046 0.964296 0.381947 0.210419
H84   H     H_    0.972814 0.181429 0.415212 0.139233
H85   H     H_    0.085739 0.472760 0.061002 0.246885
H86   H     H_    0.121462 0.408338 0.065912 0.221135
H87   H     H_    0.116910 0.447073 0.145783 0.239169
H88   H     H_    0.079308 0.531409 0.970647 0.249683
H89   H     H_    0.114922 0.594125 0.949268 0.215677
H90   H     H_    0.094833 0.549942 0.878011 0.239635
H91   H     H_    0.163974 0.595143 0.136442 0.264829
H92   H     H_    0.101895 0.562604 0.077965 0.235212
H93   H     H_    0.130626 0.535148 0.163262 0.245226
H94   H     H_    0.355567 0.834253 0.202725 0.149559
H95   H     H_    0.140147 0.402058 0.894154 0.250924
H96   H     H_    0.087041 0.445520 0.947822 0.243076
H97   H     H_    0.110727 0.460784 0.855327 0.244517
H98   H     H_    0.581200 0.970898 0.545074 0.246363
H99   H     H_    0.617620 0.907291 0.558793 0.215420
H100  H     H_    0.604216 0.949200 0.634486 0.239636
H101  H     H_    0.581647 0.028957 0.455003 0.255297
H102  H     H_    0.617412 0.092789 0.442939 0.211590
H103  H     H_    0.605383 0.051718 0.366195 0.226562
H104  H     H_    0.592627 0.057979 0.566021 0.236739
O1    O     O_3   0.249990 0.250010 0.000000 -0.499128
O2    O     O_R   0.835430 0.219350 0.353840 -0.604579
O3    O     O_R   0.835430 0.219350 0.646160 -0.612701
O4    O     O_R   0.835430 0.780650 0.353840 -0.608626
O5    O     O_R   0.164550 0.280640 0.853840 -0.651952
O6    O     O_R   0.164550 0.719360 0.146160 -0.644663
O7    O     O_R   0.164550 0.719360 0.853840 -0.647579
O8    O     O_R   0.164550 0.280640 0.146160 -0.635643
O9    O     O_R   0.664550 0.780640 0.353840 -0.642041
O10   O     O_R   0.664550 0.219360 0.646160 -0.639187
O11   O     O_R   0.664550 0.219360 0.353840 -0.638100
O12   O     O_3   0.249990 0.749990 0.000000 -0.504018
O13   O     O_R   0.664550 0.780640 0.646160 -0.633493
O14   O     O_R   0.396160 0.219380 0.914560 -0.642136
O15   O     O_R   0.396160 0.780620 0.085440 -0.627040
O16   O     O_R   0.396160 0.780620 0.914560 -0.632405
O17   O     O_R   0.396160 0.219380 0.085440 -0.655649
O18   O     O_R   0.896160 0.719380 0.414560 -0.646029
O19   O     O_R   0.896160 0.280620 0.585440 -0.642779
O20   O     O_R   0.896160 0.280620 0.414560 -0.645516
O21   O     O_R   0.896160 0.719380 0.585440 -0.645138
O22   O     O_R   0.103840 0.219370 0.085450 -0.634417
O23   O     O_3   0.749990 0.750010 0.500000 -0.504104
O24   O     O_R   0.103840 0.780630 0.914550 -0.626286
O25   O     O_R   0.103840 0.780630 0.085450 -0.634966
O26   O     O_R   0.103840 0.219370 0.914550 -0.626872
O27   O     O_R   0.603840 0.719370 0.585450 -0.637195
O28   O     O_R   0.603840 0.280630 0.414550 -0.650356
O29   O     O_R   0.603840 0.280630 0.585450 -0.650401
O30   O     O_R   0.603840 0.719370 0.414550 -0.630978
O31   O     O_R   0.310730 0.133160 0.000000 -0.644085
O32   O     O_R   0.310730 0.866840 0.000000 -0.639934
O33   O     O_R   0.810730 0.633160 0.500000 -0.641921
O34   O     O_3   0.749990 0.249990 0.500000 -0.500528
O35   O     O_R   0.810730 0.366840 0.500000 -0.641933
O36   O     O_R   0.249970 0.366860 0.060720 -0.626142
O37   O     O_R   0.249970 0.633140 0.939280 -0.614755
O38   O     O_R   0.249970 0.633140 0.060720 -0.633051
O39   O     O_R   0.249970 0.366860 0.939280 -0.622089
O40   O     O_R   0.749970 0.866860 0.560720 -0.616679
O41   O     O_R   0.749970 0.133140 0.439280 -0.627031
O42   O     O_R   0.749970 0.133140 0.560720 -0.625345
O43   O     O_R   0.749970 0.866860 0.439280 -0.628943
O44   O     O_R   0.189290 0.133150 0.000000 -0.631740
O45   O     O_R   0.335430 0.280650 0.146160 -0.633544
O46   O     O_R   0.189290 0.866850 0.000000 -0.633173
O47   O     O_R   0.689290 0.633150 0.500000 -0.636123
O48   O     O_R   0.689290 0.366850 0.500000 -0.633738
O49   O     O_R   0.335430 0.719350 0.853840 -0.619733
O50   O     O_R   0.335430 0.719350 0.146160 -0.622550
O51   O     O_R   0.335430 0.280650 0.853840 -0.619175
O52   O     O_R   0.835430 0.780650 0.646160 -0.609727
Zn1   Zn    Zn3+2 0.249990 0.293780 0.913250 0.987345
Zn2   Zn    Zn3+2 0.336760 0.793760 0.000000 0.983569
Zn3   Zn    Zn3+2 0.836760 0.706240 0.500000 0.967294
Zn4   Zn    Zn3+2 0.836760 0.293760 0.500000 0.973923
Zn5   Zn    Zn3+2 0.163250 0.206230 0.000000 0.970105
Zn6   Zn    Zn3+2 0.163250 0.793770 0.000000 0.972833
Zn7   Zn    Zn3+2 0.663250 0.706230 0.500000 0.964631
Zn8   Zn    Zn3+2 0.663250 0.293770 0.500000 0.955063
Zn9   Zn    Zn3+2 0.249990 0.706220 0.086750 0.981736
Zn10  Zn    Zn3+2 0.249990 0.706220 0.913250 0.993247
Zn11  Zn    Zn3+2 0.249990 0.293780 0.086750 0.994429
Zn12  Zn    Zn3+2 0.749990 0.793780 0.413250 0.994131
Zn13  Zn    Zn3+2 0.749990 0.206220 0.586750 0.994979
Zn14  Zn    Zn3+2 0.749990 0.206220 0.413250 1.003292
Zn15  Zn    Zn3+2 0.749990 0.793780 0.586750 1.006363
Zn16  Zn    Zn3+2 0.336760 0.206240 0.000000 0.966597

loop_
_geom_bond_atom_site_label_1
_geom_bond_atom_site_label_2
_ccdc_geom_bond_type
O5    Zn1   S    
C182  O9    A    
C75   C117  A    
C74   C83   A    
O22   Zn5   S    
C9    C143  A    
O1    Zn16  S    
C136  C162  A    
C16   H22   S    
C97   H102  S    
O16   Zn2   S    
C167  O18   A    
C187  H42   S    
C62   H61   S    
C58   C60   S    
C29   C33   A    
C101  C128  S    
C118  C153  A    
C114  C131  A    
O38   Zn9   S    
C61   C63   S    
C62   C64   S    
C131  C140  A    
C175  C188  A    
C130  C167  S    
C109  C127  A    
C56   H1    S    
C60   H39   S    
C184  O28   A    
O32   Zn2   S    
C96   H99   S    
C4    C12   A    
C147  C155  A    
C48   O31   A    
C13   H69   S    
C131  C134  S    
C153  C180  S    
C100  C109  A    
O14   Zn16  S    
C21   C22   A    
O49   Zn10  S    
C98   H4    S    
C102  H79   S    
C82   C124  A    
C80   C121  A    
C45   C47   A    
C155  C182  S    
C150  C159  A    
C27   C31   A    
C28   C32   A    
C177  O26   A    
C53   O38   A    
C30   C34   A    
C88   H64   S    
C123  C126  S    
C20   C28   A    
C33   C50   S    
C120  C155  A    
C76   C118  A    
C82   C91   A    
C94   H91   S    
C172  Cl15  S    
C19   C23   A    
C43   C44   A    
C12   H19   S    
C37   C38   A    
C134  O52   A    
C183  O29   A    
O12   Zn6   S    
C146  C154  A    
C82   H57   S    
C122  C158  A    
O23   Zn15  S    
C164  C173  A    
O34   Zn14  S    
C163  C172  A    
C112  C125  S    
C169  Cl12  S    
C46   C84   A    
C181  O8    A    
O48   Zn8   S    
C31   C48   S    
O2    Zn14  S    
C3    H44   S    
C86   H62   S    
C176  Cl11  S    
C53   C71   S    
C107  C120  A    
C15   C149  A    
C123  O51   A    
C178  H67   S    
O11   Zn14  S    
C54   O43   A    
C92   H86   S    
C141  C168  A    
O12   Zn9   S    
C50   O47   A    
C5    H46   S    
C58   C93   S    
C33   C38   A    
C129  C156  S    
O15   Zn2   S    
C63   C98   S    
O17   Zn16  S    
O23   Zn7   S    
C167  O4    A    
C56   C59   S    
O27   Zn7   S    
C106  C115  A    
C133  C160  A    
C8    C186  A    
C80   C88   A    
O50   Zn9   S    
C53   O37   A    
C152  C179  S    
O7    Zn10  S    
C57   C85   A    
C44   H23   S    
C3    C11   A    
C60   C95   S    
C3    C176  A    
C134  O21   A    
O24   Zn6   S    
C1    O45   A    
C41   C45   A    
C31   C36   A    
O23   Zn12  S    
C108  C126  A    
C76   C85   A    
C110  C128  A    
C180  O24   A    
C78   C87   A    
C61   C96   S    
C24   H70   S    
C15   H21   S    
C132  C145  S    
C75   H51   S    
C55   O42   A    
C75   C84   A    
C151  C177  S    
C21   H32   S    
C25   H35   S    
C65   C70   S    
C69   Cl7   S    
C46   H73   S    
C2    C90   A    
C67   C72   S    
C139  C165  A    
C101  O49   A    
C139  C143  A    
C145  O2    A    
C64   C99   S    
C79   H76   S    
C10   C188  A    
C5    C170  A    
C101  O16   A    
C62   C73   S    
C133  C147  A    
C60   C70   S    
O45   Zn11  S    
C149  C158  A    
C181  O22   A    
C22   H33   S    
C57   H74   S    
C77   H53   S    
O19   Zn4   S    
C135  C161  A    
C96   H98   S    
C58   H17   S    
C111  C129  A    
C115  C132  A    
C95   H97   S    
C113  C130  A    
C162  C171  A    
C34   C39   A    
C17   C27   A    
C112  O50   A    
C107  C125  A    
C137  C163  A    
C23   H34   S    
C164  H10   S    
C165  C174  A    
O34   Zn8   S    
C174  C187  A    
C62   C97   S    
O28   Zn8   S    
O4    Zn12  S    
C93   H89   S    
C80   H55   S    
C10   C144  A    
C32   C37   A    
C113  C117  A    
C26   C30   A    
C115  C119  A    
C137  C150  A    
O41   Zn14  S    
C51   O35   A    
C67   Cl8   S    
C19   H30   S    
C103  H80   S    
C43   H24   S    
C99   H5    S    
C132  C141  A    
C168  C176  A    
C174  Cl9   S    
C93   H88   S    
C49   O46   A    
C18   C22   A    
C11   C146  A    
O12   Zn2   S    
C2    H68   S    
O44   Zn5   S    
C97   H101  S    
O30   Zn7   S    
C159  C185  S    
C171  Cl14  S    
C90   C108  A    
C66   Cl2   S    
C34   C36   A    
C148  C157  A    
C177  O5    A    
C37   C41   A    
O25   Zn6   S    
C76   H52   S    
C104  C113  A    
C55   C73   S    
C182  O30   A    
C45   H26   S    
C185  O13   A    
O8    Zn11  S    
C16   C150  A    
C96   H100  S    
C7    C172  A    
C116  C151  A    
C87   H63   S    
O23   Zn3   S    
C95   H96   S    
O39   Zn1   S    
C18   C26   A    
C108  C121  A    
C91   H66   S    
C136  C149  A    
C26   C27   A    
C6    H47   S    
C106  H84   S    
C12   C147  A    
C28   C29   A    
O40   Zn15  S    
C4    H45   S    
C35   C103  A    
O18   Zn3   S    
O3    Zn13  S    
O42   Zn13  S    
C58   C71   S    
C20   C25   A    
C154  C181  S    
C188  H43   S    
C103  C111  A    
C94   H92   S    
O10   Zn13  S    
C110  C124  A    
C165  H11   S    
O20   Zn4   S    
O6    Zn9   S    
C160  C169  A    
C69   C73   S    
C111  C116  A    
C59   C94   S    
C168  H13   S    
C40   H37   S    
O52   Zn15  S    
C81   C89   A    
C9    H15   S    
C90   H77   S    
C130  C139  A    
C140  C166  A    
C97   H103  S    
O12   Zn10  S    
C98   H104  S    
C138  C142  A    
C35   C83   A    
C52   O39   A    
C99   H7    S    
C63   C73   S    
C9    C187  A    
C46   C104  A    
C32   C51   S    
C66   C71   S    
O29   Zn8   S    
C55   O41   A    
C20   H31   S    
O47   Zn7   S    
C78   H54   S    
C79   C107  A    
C127  C136  A    
C5    C14   A    
C141  C146  A    
C61   C72   S    
C143  C152  A    
C156  O3    A    
C126  C135  A    
C119  C154  A    
C161  H2    S    
C102  C110  A    
C85   H60   S    
C19   C29   A    
O1    Zn5   S    
C81   H56   S    
O34   Zn4   S    
C140  C144  A    
C179  O25   A    
C180  O7    A    
C7    H48   S    
C81   C122  A    
O36   Zn11  S    
C179  O6    A    
C87   C178  A    
C163  H9    S    
C65   Cl16  S    
C69   Cl6   S    
O34   Zn13  S    
C24   C102  A    
C17   C21   A    
C74   H49   S    
C8    H14   S    
C63   H72   S    
C52   O36   A    
C8    C142  A    
C157  C183  S    
C158  C184  S    
O1    Zn11  S    
C166  H12   S    
C142  C151  A    
C57   C105  A    
C123  O14   A    
C54   O40   A    
C61   H50   S    
O46   Zn6   S    
C68   C86   A    
C78   C120  A    
C17   H27   S    
C18   H29   S    
C10   H16   S    
C175  Cl10  S    
C68   H75   S    
C89   H65   S    
C14   H20   S    
C38   C42   A    
C109  C122  A    
O21   Zn3   S    
C124  C159  A    
C14   C148  A    
C51   O48   A    
C42   H40   S    
C144  C153  A    
C160  H94   S    
C170  Cl13  S    
C48   O44   A    
C6    C15   A    
C129  C138  A    
C92   H85   S    
C84   H59   S    
C2    C88   A    
C117  C152  A    
C185  O27   A    
C104  H81   S    
C23   C25   A    
C121  C157  A    
C68   C106  A    
O9    Zn12  S    
C59   H28   S    
C11   H18   S    
C39   H36   S    
C6    C171  A    
C173  C186  A    
C4    C169  A    
C183  O10   A    
C105  C114  A    
C36   C40   A    
C35   H71   S    
C39   C43   A    
C67   C69   S    
O31   Zn16  S    
C128  C137  A    
C166  C175  A    
C65   Cl4   S    
C40   C44   A    
O43   Zn12  S    
C74   C116  A    
C66   Cl3   S    
O13   Zn15  S    
C79   C178  A    
O51   Zn1   S    
C114  C118  A    
C161  C170  A    
C49   O32   A    
C77   C86   A    
C65   C66   S    
C56   C70   S    
C145  O20   A    
C24   C91   A    
C64   H83   S    
C125  C133  A    
O37   Zn10  S    
C7    C16   A    
C50   O33   A    
C13   C89   A    
C95   H95   S    
C30   C49   S    
C1    C127  S    
C77   C119  A    
C112  O15   A    
C47   H25   S    
C105  H82   S    
C41   H38   S    
C13   C100  A    
C184  O11   A    
O33   Zn3   S    
C162  H8    S    
C92   H87   S    
C173  Cl1   S    
C93   H90   S    
O26   Zn5   S    
C42   C47   A    
C64   C72   S    
C94   H93   S    
C98   H3    S    
C156  O19   A    
C52   C70   S    
O1    Zn1   S    
O35   Zn4   S    
C54   C72   S    
C135  C148  A    
C100  H78   S    
C83   H58   S    
C138  C164  A    
C67   Cl5   S    
C56   C92   S    
C186  H41   S    
C1    O17   A    
C59   C71   S    
C99   H6    S    
