data_mof_unit_29889.cif
_audit_creation_date              2012-10-26T20:40:21-0400
_audit_creation_method            fapswitch 2.2
_symmetry_space_group_name_H-M    P1
_symmetry_Int_Tables_number       1
_space_group_crystal_system       triclinic
_cell_length_a                    15.074277
_cell_length_b                    10.762466
_cell_length_c                    9.635236
_cell_angle_alpha                 90.842905
_cell_angle_beta                  89.820358
_cell_angle_gamma                 93.635216
_cell_volume                      1559.86811288

loop_
_atom_site_label
_atom_site_type_symbol
_atom_type_description
_atom_site_fract_x
_atom_site_fract_y
_atom_site_fract_z
_atom_type_partial_charge
C1    C     C_R   0.495950 0.262598 0.499202 0.531902
C2    C     C_R   0.185314 0.504042 0.626589 -0.148283
C3    C     C_R   0.231874 0.500938 0.500349 -0.014637
C4    C     C_R   0.328799 0.499869 0.500173 0.528123
C5    C     C_R   0.185610 0.499016 0.374042 -0.134736
C6    C     C_R   0.354989 0.119122 0.648222 -0.108667
C7    C     C_R   0.290235 0.049451 0.722320 -0.125176
C8    C     C_R   0.290421 0.920233 0.723064 -0.121380
C9    C     C_R   0.355433 0.859875 0.649871 -0.116201
C10   C     C_R   0.422786 0.928685 0.576098 0.016154
C11   C     C_R   0.422515 0.060081 0.575064 0.024745
C12   C     C_R   0.907310 0.498779 0.372783 0.010154
C13   C     C_R   0.488447 0.128139 0.497266 -0.004184
C14   C     C_R   0.549777 0.067359 0.416632 -0.160619
C15   C     C_R   0.550068 0.939359 0.417784 -0.166794
C16   C     C_R   0.496204 0.736798 0.500479 0.546819
C17   C     C_R   0.489245 0.870120 0.499979 -0.004105
C18   C     C_R   0.632832 0.639979 0.150266 -0.109591
C19   C     C_R   0.712720 0.675685 0.088003 -0.239453
C20   C     C_R   0.719463 0.667704 0.946210 -0.163534
C21   C     C_R   0.642085 0.641105 0.867363 0.305252
C22   C     C_R   0.568002 0.568788 0.927767 0.154641
C23   C     C_R   0.953428 0.506618 0.752994 -0.138107
C24   C     C_R   0.566024 0.568794 0.077116 0.115891
C25   C     C_R   0.437066 0.434011 0.072742 -0.008157
C26   C     C_R   0.436861 0.434394 0.925214 -0.020353
C27   C     C_R   0.671200 0.499833 0.499828 0.562496
C28   C     C_R   0.814838 0.497580 0.373591 -0.151498
C29   C     C_R   0.768198 0.499933 0.499736 -0.014493
C30   C     C_R   0.814499 0.502380 0.625991 -0.132301
C31   C     C_R   0.906938 0.503666 0.627064 0.007181
C32   C     C_R   0.953601 0.501724 0.499994 0.061692
C33   C     C_3   0.653751 0.831645 0.753629 0.006894
C34   C     C_R   0.045950 0.507088 0.753141 -0.136511
C35   C     C_3   0.586034 0.894135 0.847498 -0.273451
C36   C     C_3   0.598846 0.035790 0.842382 -0.465071
C37   C     C_R   0.092882 0.504552 0.627372 0.012020
C38   C     C_R   0.046614 0.502094 0.500137 0.062216
C39   C     C_R   0.093230 0.499549 0.373033 0.012027
C40   C     C_R   0.046718 0.497201 0.247119 -0.135025
C41   C     C_R   0.954211 0.496830 0.246992 -0.135867
Cu1   Cu    Cu3+1 0.499990 0.499990 0.640660 0.963558
Cu2   Cu    Cu3+1 0.500010 0.500010 0.359340 0.927235
H1    H     H_    0.779366 0.494194 0.275873 0.136765
H2    H     H_    0.780482 0.703750 0.897759 0.115267
H3    H     H_    0.778797 0.502812 0.723678 0.135087
H4    H     H_    0.385086 0.380237 0.869755 0.105890
H5    H     H_    0.918237 0.508413 0.851213 0.101733
H6    H     H_    0.080763 0.509135 0.851478 0.099344
H7    H     H_    0.220817 0.505857 0.724377 0.118767
H8    H     H_    0.221307 0.496758 0.276249 0.124130
H9    H     H_    0.081856 0.495403 0.148870 0.099611
H10   H     H_    0.919357 0.494866 0.148675 0.104432
H11   H     H_    0.599450 0.119605 0.355674 0.129576
H12   H     H_    0.350225 0.218883 0.646823 0.127809
H13   H     H_    0.649542 0.869856 0.647881 0.148519
H14   H     H_    0.722777 0.858155 0.787511 0.111225
H15   H     H_    0.517497 0.864458 0.814326 0.190271
H16   H     H_    0.593863 0.865492 0.956805 0.153271
H17   H     H_    0.665374 0.067496 0.883541 0.145007
H18   H     H_    0.547123 0.078095 0.906794 0.159916
H19   H     H_    0.593046 0.068207 0.734232 0.165871
H20   H     H_    0.238960 0.095880 0.777845 0.108772
H21   H     H_    0.239322 0.866377 0.779209 0.114568
H22   H     H_    0.351322 0.759315 0.650311 0.138653
H23   H     H_    0.599911 0.894139 0.357384 0.112188
H24   H     H_    0.385425 0.379464 0.126765 0.113444
H25   H     H_    0.626848 0.669060 0.255626 0.190317
H26   H     H_    0.767252 0.717923 0.148767 0.127381
N1    N     N_R   0.500860 0.501210 0.147910 -0.239442
N2    N     N_R   0.500890 0.501290 0.852040 -0.237951
O1    O     O_R   0.499990 0.319640 0.618810 -0.512332
O2    O     O_R   0.500000 0.319660 0.381240 -0.496063
O3    O     O_R   0.370250 0.499960 0.618800 -0.530638
O4    O     O_R   0.370260 0.499980 0.381230 -0.507229
O5    O     O_R   0.500000 0.680340 0.618760 -0.451653
O6    O     O_R   0.500010 0.680360 0.381190 -0.521876
O7    O     O_R   0.629740 0.500020 0.618770 -0.451264
O8    O     O_R   0.629750 0.500040 0.381200 -0.529106
O9    O     O_3   0.636516 0.700070 0.741750 -0.521071

loop_
_geom_bond_atom_site_label_1
_geom_bond_atom_site_label_2
_ccdc_geom_bond_type
Cu2   O2    S    
C27   C29   S    
C34   C37   A    
C19   C20   A    
C25   H24   S    
C6    H12   S    
C27   O7    A    
C24   N1    A    
C7    C8    A    
C37   C38   A    
C12   C28   A    
C35   H15   S    
C18   C24   A    
C28   C29   A    
C18   C19   A    
C27   O8    A    
C38   C39   A    
C10   C17   A    
Cu2   O8    S    
C35   H16   S    
C16   O6    A    
C4    O4    A    
C2    H7    S    
C35   C36   S    
C8    C9    A    
C32   C38   A    
C29   C30   A    
C9    C10   A    
C4    O3    A    
C20   H2    S    
C33   H13   S    
C13   C14   A    
C12   C32   A    
C26   N2    A    
C36   H19   S    
Cu2   O4    S    
Cu1   O3    S    
C1    O1    A    
C39   C40   A    
C16   C17   S    
C36   H17   S    
C25   C26   A    
C40   H9    S    
C15   H23   S    
C28   H1    S    
C23   C31   A    
C12   C41   A    
C31   C32   A    
C23   C34   A    
C41   H10   S    
Cu1   O1    S    
C7    H20   S    
C26   H4    S    
C8    H21   S    
C40   C41   A    
C14   H11   S    
Cu1   O7    S    
Cu2   N1    S    
C5    C39   A    
C22   C24   A    
C19   H26   S    
C1    C13   S    
Cu1   Cu2   S    
C3    C4    S    
C22   N2    A    
C6    C11   A    
C15   C17   A    
C34   H6    S    
C33   H14   S    
C23   H5    S    
C16   O5    A    
C30   H3    S    
C3    C5    A    
C33   O9    S    
C6    C7    A    
Cu2   O6    S    
Cu1   O5    S    
C1    O2    A    
C2    C3    A    
C11   C13   A    
C2    C37   A    
C30   C31   A    
C21   O9    S    
Cu1   N2    S    
C33   C35   S    
C9    H22   S    
C10   C11   A    
C20   C21   A    
C14   C15   A    
C5    H8    S    
C25   N1    A    
C21   C22   A    
C18   H25   S    
C36   H18   S    
