data_mof_unit_42811.cif
_audit_creation_date              2012-12-10T20:25:39-0500
_audit_creation_method            fapswitch 2.2
_symmetry_space_group_name_H-M    P1
_symmetry_Int_Tables_number       1
_space_group_crystal_system       triclinic
_cell_length_a                    8.561428
_cell_length_b                    10.659491
_cell_length_c                    9.887063
_cell_angle_alpha                 89.514228
_cell_angle_beta                  98.034939
_cell_angle_gamma                 90.736111
_cell_volume                      893.346037625

loop_
_atom_site_label
_atom_site_type_symbol
_atom_type_description
_atom_site_fract_x
_atom_site_fract_y
_atom_site_fract_z
_atom_type_partial_charge
C1    C     C_R   0.501533 0.260446 0.500649 0.920539
C2    C     C_R   0.410782 0.935874 0.388110 0.508060
C3    C     C_R   0.504510 0.871383 0.494176 -0.155274
C4    C     C_R   0.617460 0.935731 0.582675 -0.050705
C5    C     C_3   0.676229 0.923404 0.731415 -0.511786
C6    C     C_3   0.677071 0.066842 0.735549 0.406900
C7    C     C_R   0.366384 0.469295 0.055708 0.200838
C8    C     C_R   0.627711 0.541245 0.086863 -0.150283
C9    C     C_R   0.627720 0.541278 0.943156 -0.115778
C10   C     C_R   0.365885 0.468473 0.913146 0.044666
C11   C     C_3   0.279058 0.344635 0.903359 -0.336491
C12   C     C_R   0.201415 0.501109 0.464390 0.995219
C13   C     C_3   0.275220 0.350008 0.057783 0.234052
C14   C     C_R   0.499581 0.739540 0.499011 0.926062
C15   C     C_R   0.798462 0.504991 0.535062 0.955241
C16   C     C_2   0.036384 0.499112 0.444768 -0.334539
C17   C     C_2   0.962883 0.519341 0.551759 -0.344661
C18   C     C_R   0.617041 0.063102 0.585851 0.032013
C19   C     C_R   0.504853 0.128710 0.498742 -0.102449
C20   C     C_R   0.410073 0.066227 0.392868 -0.328289
H1    H     H_    0.975975 0.475891 0.343653 0.188706
H2    H     H_    0.731877 0.572873 0.901636 0.149887
H3    H     H_    0.352712 0.267835 0.873061 0.217687
H4    H     H_    0.343983 0.275582 0.118831 0.083668
H5    H     H_    0.023487 0.547085 0.650978 0.152012
H6    H     H_    0.330013 0.117843 0.319145 0.152895
H7    H     H_    0.588328 0.878081 0.789617 0.234100
H8    H     H_    0.796521 0.883231 0.750302 0.161952
H9    H     H_    0.796610 0.111586 0.755568 0.100064
H10   H     H_    0.731934 0.572761 0.152957 0.163881
N1    N     N_R   0.498950 0.499140 0.142680 -0.134162
N2    N     N_R   0.498950 0.499180 0.857030 -0.098028
O1    O     O_R   0.500020 0.316790 0.614690 -0.564855
O2    O     O_R   0.500000 0.316760 0.385350 -0.649039
O3    O     O_R   0.271760 0.500010 0.587850 -0.612972
O4    O     O_R   0.271740 0.499970 0.358500 -0.583875
O5    O     O_R   0.500000 0.683240 0.614650 -0.632339
O6    O     O_R   0.499980 0.683210 0.385310 -0.593341
O7    O     O_R   0.728260 0.500030 0.641500 -0.637292
O8    O     O_R   0.728240 0.499990 0.412150 -0.631381
Zn1   Zn    Zn3+2 0.500010 0.500020 0.653130 0.970849
Zn2   Zn    Zn3+2 0.499990 0.499980 0.346870 0.966307
C21   C     C_2   0.119767 0.349478 0.818012 0.516896
H11   H     H_    0.033818 0.417895 0.839321 0.086547
O9    O     O_2   0.084850 0.274596 0.725699 -0.597782
O10   O     O_3   0.124715 0.375052 0.094419 -0.593974
C22   C     C_3   0.053433 0.262524 0.131596 -0.338115
H12   H     H_    0.110304 0.230071 0.233341 0.178502
H13   H     H_    0.056091 0.187959 0.053722 0.161456
H14   H     H_    0.928099 0.281223 0.140236 0.183290
O11   O     O_3   0.304911 0.871342 0.293817 -0.600162
C23   C     C_3   0.342488 0.894176 0.161175 -0.265080
H15   H     H_    0.273658 0.827447 0.089964 0.192293
H16   H     H_    0.469739 0.878076 0.155293 0.156459
H17   H     H_    0.308863 0.990533 0.125471 0.142951
O12   O     O_3   0.563716 0.112689 0.812937 -0.566593
C24   C     C_3   0.635969 0.130938 0.948695 -0.360432
H18   H     H_    0.714337 0.215247 0.954790 0.176600
H19   H     H_    0.703037 0.047144 0.990868 0.159540
H20   H     H_    0.543331 0.147091 0.014264 0.169542

loop_
_geom_bond_atom_site_label_1
_geom_bond_atom_site_label_2
_ccdc_geom_bond_type
C8    C9    A    
C7    C10   A    
N2    Zn1   S    
C11   C21   S    
C16   H1    S    
N1    Zn2   S    
C12   O4    A    
C5    H8    S    
C11   C13   S    
O4    Zn2   S    
C19   C20   A    
O2    Zn2   S    
C23   H17   S    
C21   H11   S    
C8    H10   S    
O8    Zn2   S    
C2    C3    A    
O1    Zn1   S    
O7    Zn1   S    
O12   C24   S    
C14   O5    A    
C21   O9    D    
C15   O7    A    
C24   H18   S    
C13   O10   S    
C3    C14   S    
C20   H6    S    
C6    C18   S    
C11   H3    S    
C8    N1    A    
C23   H16   S    
C1    O2    A    
O6    Zn2   S    
C22   H14   S    
O5    Zn1   S    
C5    C6    S    
O3    Zn1   S    
C16   C17   D    
C15   O8    A    
C24   H19   S    
C14   O6    A    
C10   C11   S    
C1    O1    A    
O11   C23   S    
C22   H12   S    
C10   N2    A    
C7    C13   S    
C6    H9    S    
C7    N1    A    
C23   H15   S    
C22   H13   S    
C9    H2    S    
C2    O11   S    
C15   C17   S    
C18   C19   A    
O10   C22   S    
C4    C5    S    
C24   H20   S    
C12   C16   S    
C9    N2    A    
C5    H7    S    
C1    C19   S    
C2    C20   A    
C4    C18   A    
C3    C4    A    
C13   H4    S    
C6    O12   S    
C17   H5    S    
C12   O3    A    
