data_mof_unit_51582.cif
_audit_creation_date              2012-12-11T14:45:54-0500
_audit_creation_method            fapswitch 2.2
_symmetry_space_group_name_H-M    P1
_symmetry_Int_Tables_number       1
_space_group_crystal_system       triclinic
_cell_length_a                    10.956408
_cell_length_b                    10.9175
_cell_length_c                    18.77265
_cell_angle_alpha                 90.257686
_cell_angle_beta                  89.51313
_cell_angle_gamma                 120.125319
_cell_volume                      1942.14702594

loop_
_atom_site_label
_atom_site_type_symbol
_atom_type_description
_atom_site_fract_x
_atom_site_fract_y
_atom_site_fract_z
_atom_type_partial_charge
C1    C     C_R   0.903880 0.611183 0.611292 0.569287
C2    C     C_R   0.325918 0.559647 0.784754 -0.074542
C3    C     C_R   0.356458 0.572333 0.711902 -0.024792
C4    C     C_R   0.341332 0.674976 0.673342 -0.015860
C5    C     C_R   0.849449 0.157637 0.820277 0.001290
C6    C     C_R   0.041125 0.095671 0.806802 -0.055776
C7    C     C_R   0.121605 0.058416 0.763679 -0.162820
C8    C     C_R   0.103344 0.048421 0.690459 -0.122441
C9    C     C_R   0.006645 0.078797 0.659758 -0.067055
C10   C     C_R   0.925436 0.118862 0.702228 0.004259
C11   C     C_R   0.938264 0.123514 0.777641 0.027729
C12   C     C_R   0.276497 0.635487 0.602487 0.569770
C13   C     C_R   0.723885 0.153647 0.713926 0.015046
C14   C     C_R   0.755416 0.191311 0.785402 0.015851
C15   C     C_R   0.593857 0.131346 0.687064 -0.059314
C16   C     C_R   0.509953 0.168962 0.726830 -0.081344
C17   C     C_R   0.554331 0.229650 0.793593 -0.060056
C18   C     C_R   0.679325 0.246508 0.821614 -0.040301
C19   C     C_R   0.826487 0.147246 0.670553 -0.033140
C20   C     C_R   0.738154 0.539796 0.714608 -0.102493
C21   C     C_R   0.712158 0.558084 0.785249 -0.144178
C22   C     C_R   0.824874 0.642494 0.830039 0.018685
C23   C     C_R   0.857437 0.220252 0.600944 0.523575
C24   C     C_R   0.963769 0.706510 0.803688 -0.112704
C25   C     C_R   0.988014 0.696765 0.731991 -0.132879
C26   C     C_R   0.875552 0.615893 0.686810 0.028941
C27   C     C_R   0.403487 0.603452 0.298183 -0.124378
C28   C     C_R   0.439121 0.620517 0.226932 -0.130025
C29   C     C_R   0.432481 0.724475 0.187053 0.029840
C30   C     C_R   0.398218 0.818660 0.220733 -0.130057
C31   C     C_R   0.357017 0.798346 0.292274 -0.137738
C32   C     C_R   0.353591 0.686180 0.330336 0.030401
C33   C     C_R   0.775838 0.240436 0.276665 -0.124510
C34   C     C_R   0.869987 0.636693 0.395363 0.562557
C35   C     C_R   0.776088 0.227391 0.203923 -0.132262
C36   C     C_R   0.850579 0.168362 0.172466 0.033978
C37   C     C_R   0.937296 0.136479 0.214081 -0.128005
C38   C     C_R   0.940728 0.154339 0.287555 -0.135732
C39   C     C_R   0.855544 0.201351 0.319132 0.037342
C40   C     C_R   0.960708 0.743215 0.279148 -0.133110
C41   C     C_R   0.950723 0.742597 0.206424 -0.126885
C42   C     C_R   0.822486 0.650663 0.173211 0.034274
C43   C     C_R   0.711041 0.544889 0.213009 -0.153952
C44   C     C_R   0.721637 0.543941 0.286902 -0.148079
C45   C     C_R   0.275827 0.636601 0.397462 0.553915
C46   C     C_R   0.845438 0.646461 0.320354 0.034917
C47   C     C_R   0.809551 0.104296 0.894635 0.554916
C48   C     C_R   0.393989 0.699900 0.896184 0.608974
C49   C     C_R   0.798807 0.689081 0.898226 0.547016
C50   C     C_R   0.808918 0.108269 0.101922 0.543390
C51   C     C_R   0.460288 0.729254 0.110704 0.561611
C52   C     C_R   0.799045 0.691553 0.103313 0.539359
C53   C     C_R   0.864289 0.234229 0.394244 0.545323
C54   C     C_R   0.344044 0.788363 0.709918 -0.149563
C55   C     C_R   0.351562 0.794434 0.784026 0.323669
C56   C     C_R   0.342660 0.679987 0.822367 0.044236
Cr1   Cr    Cr6+3 0.791660 0.390250 0.499930 1.028828
Cr2   Cr    Cr6+3 0.098520 0.708290 0.500540 1.000176
Cr3   Cr    Cr6+3 0.109770 0.401430 0.499480 1.035657
Cr4   Cr    Cr6+3 0.874790 0.925890 0.000070 1.022218
Cr5   Cr    Cr6+3 0.574120 0.948670 0.999300 1.058130
Cr6   Cr    Cr6+3 0.551420 0.625320 0.000920 1.026329
H1    H     H_    0.334670 0.869019 0.681284 0.126437
H2    H     H_    0.412332 0.153854 0.705114 0.092417
H3    H     H_    0.556061 0.083729 0.635304 0.127687
H4    H     H_    0.491098 0.262076 0.824076 0.096807
H5    H     H_    0.650589 0.470715 0.681225 0.176493
H6    H     H_    0.604174 0.511188 0.803930 0.111666
H7    H     H_    0.052962 0.773044 0.837261 0.172465
H8    H     H_    0.093698 0.755850 0.711126 0.128401
H9    H     H_    0.404351 0.517497 0.326356 0.134434
H10   H     H_    0.464572 0.547086 0.201910 0.127016
H11   H     H_    0.395583 0.902228 0.191167 0.129789
H12   H     H_    0.320249 0.864440 0.316325 0.119348
H13   H     H_    0.713458 0.282478 0.299531 0.138506
H14   H     H_    0.709963 0.254379 0.172849 0.131261
H15   H     H_    0.995491 0.090149 0.190609 0.134624
H16   H     H_    0.006574 0.128635 0.319618 0.120473
H17   H     H_    0.060608 0.818876 0.302721 0.129362
H18   H     H_    0.041197 0.822048 0.176873 0.134975
H19   H     H_    0.614634 0.467506 0.187416 0.110251
H20   H     H_    0.634138 0.463586 0.317659 0.115886
H21   H     H_    0.199380 0.038073 0.787402 0.158968
H22   H     H_    0.164361 0.017122 0.657294 0.120310
H23   H     H_    0.069204 0.110518 0.862215 0.182802
H24   H     H_    0.992098 0.065702 0.602702 0.134590
H25   H     H_    0.712278 0.296201 0.873367 0.127534
O1    O     O_R   0.766500 0.250040 0.579790 -0.532326
O2    O     O_R   0.218690 0.701900 0.425960 -0.508384
O3    O     O_R   0.249490 0.516440 0.419420 -0.513776
O4    O     O_R   0.982880 0.281910 0.424890 -0.502809
O5    O     O_3   0.999980 0.499990 0.499980 -0.271642
O6    O     O_R   0.895110 0.806860 0.920430 -0.519856
O7    O     O_R   0.872260 0.046970 0.925000 -0.504408
O8    O     O_R   0.691430 0.085060 0.918550 -0.498813
O9    O     O_R   0.451490 0.822460 0.925250 -0.435632
O10   O     O_R   0.413330 0.603360 0.920440 -0.490441
O11   O     O_R   0.676110 0.626250 0.926750 -0.511839
O12   O     O_R   0.798570 0.516780 0.574780 -0.478339
O13   O     O_R   0.895350 0.809870 0.080950 -0.524414
O14   O     O_R   0.872490 0.049760 0.073800 -0.503225
O15   O     O_R   0.691680 0.088070 0.079070 -0.535854
O16   O     O_R   0.451720 0.825250 0.074050 -0.505483
O17   O     O_R   0.413580 0.606370 0.080960 -0.507160
O18   O     O_R   0.676340 0.629040 0.075550 -0.526348
O19   O     O_3   0.666780 0.833290 0.000090 -0.280169
O20   O     O_R   0.984000 0.732950 0.581090 -0.516779
O21   O     O_R   0.218600 0.700890 0.574760 -0.542187
O22   O     O_R   0.249390 0.515350 0.579940 -0.459768
O23   O     O_R   0.982790 0.280900 0.573700 -0.505648
O24   O     O_R   0.766600 0.251130 0.419260 -0.528700
O25   O     O_R   0.798660 0.517790 0.425980 -0.496910
O26   O     O_R   0.984100 0.734040 0.420570 -0.523853
F1    F     F_    0.360638 0.908303 0.818284 -0.652834
C57   C     C_2   0.271668 0.420893 0.820879 0.238213
H26   H     H_    0.309322 0.349369 0.806970 0.069782
O27   O     O_2   0.182377 0.385634 0.867831 -0.511150
C58   C     C_2   0.402065 0.479148 0.676408 0.237650
H27   H     H_    0.372867 0.375567 0.696966 0.066759
O28   O     O_2   0.477477 0.520322 0.623382 -0.493651

loop_
_geom_bond_atom_site_label_1
_geom_bond_atom_site_label_2
_ccdc_geom_bond_type
C7    H21   S    
C55   C56   A    
Cr1   O5    S    
C34   O25   A    
C41   C42   A    
C14   C18   A    
C20   H5    S    
C35   C36   A    
C1    O12   A    
C41   H18   S    
Cr5   O9    S    
C36   C50   S    
C7    C8    A    
Cr6   O18   S    
C39   C53   S    
C34   O26   A    
C40   C46   A    
C48   O10   A    
C5    C47   S    
C17   H4    S    
C29   C30   A    
C6    H23   S    
C28   C29   A    
Cr5   O16   S    
C5    C11   A    
C44   H20   S    
C30   C31   A    
Cr1   O25   S    
C54   H1    S    
C51   O16   A    
C57   H26   S    
C15   H3    S    
Cr3   O23   S    
Cr2   O20   S    
C32   C45   S    
C58   H27   S    
C33   C35   A    
C49   O11   A    
Cr6   O11   S    
C33   H13   S    
C8    C9    A    
C57   O27   D    
C53   O4    A    
Cr2   O26   S    
C34   C46   S    
C4    C12   S    
C45   O2    A    
C9    C10   A    
Cr4   O6    S    
C53   O24   A    
C21   C22   A    
C28   H10   S    
C12   O22   A    
C44   C46   A    
C24   H7    S    
Cr6   O17   S    
C38   C39   A    
C35   H14   S    
C15   C16   A    
C13   C19   A    
C24   C25   A    
C6    C11   A    
C12   O21   A    
C30   H11   S    
C16   C17   A    
C31   H12   S    
Cr3   O4    S    
C38   H16   S    
C51   O17   A    
C37   H15   S    
C52   O13   A    
C27   H9    S    
Cr3   O3    S    
C19   C23   S    
C43   C44   A    
Cr4   O7    S    
C37   C38   A    
Cr5   O19   S    
C3    C58   S    
C9    H24   S    
Cr6   O10   S    
C2    C57   S    
C31   C32   A    
C10   C19   A    
C17   C18   A    
C40   H17   S    
C33   C39   A    
C45   O3    A    
C5    C14   A    
C1    O20   A    
C22   C49   S    
C40   C41   A    
C52   O18   A    
C50   O15   A    
C23   O1    A    
C13   C15   A    
C21   H6    S    
C1    C26   S    
C43   H19   S    
C22   C24   A    
C42   C43   A    
C3    C4    A    
Cr4   O19   S    
C29   C51   S    
C48   C56   S    
C23   O23   A    
C54   C55   A    
C36   C37   A    
C48   O9    A    
C4    C54   A    
C27   C32   A    
C8    H22   S    
Cr4   O13   S    
Cr5   O8    S    
C6    C7    A    
Cr6   O19   S    
C55   F1    S    
C18   H25   S    
Cr1   O1    S    
C2    C3    A    
C25   C26   A    
C2    C56   A    
Cr1   O24   S    
C20   C26   A    
Cr3   O22   S    
C47   O7    A    
Cr5   O15   S    
Cr2   O21   S    
Cr3   O5    S    
Cr2   O2    S    
C58   O28   D    
C10   C11   A    
C20   C21   A    
C50   O14   A    
C27   C28   A    
C47   O8    A    
C25   H8    S    
C16   H2    S    
C49   O6    A    
C13   C14   A    
Cr2   O5    S    
Cr4   O14   S    
C42   C52   S    
Cr1   O12   S    
