data_mof_unit_19882.cif
_audit_creation_date              2012-12-11T17:45:24-0500
_audit_creation_method            fapswitch 2.2
_symmetry_space_group_name_H-M    P1
_symmetry_Int_Tables_number       1
_space_group_crystal_system       triclinic
_cell_length_a                    15.007871
_cell_length_b                    14.928347
_cell_length_c                    15.082971
_cell_angle_alpha                 110.612485
_cell_angle_beta                  108.427842
_cell_angle_gamma                 108.784467
_cell_volume                      2619.23827573

loop_
_atom_site_label
_atom_site_type_symbol
_atom_type_description
_atom_site_fract_x
_atom_site_fract_y
_atom_site_fract_z
_atom_type_partial_charge
C1    C     C_R   0.975544 0.251032 0.063767 -0.125862
C2    C     C_R   0.701369 0.198297 0.790275 -0.098077
C3    C     C_R   0.776637 0.592109 0.027342 -0.148648
C4    C     C_R   0.313227 0.758027 0.223663 -0.112970
C5    C     C_R   0.945989 0.410044 0.685905 -0.119489
C6    C     C_R   0.675626 0.499635 0.954384 0.018841
C7    C     C_R   0.966554 0.504603 0.679229 0.054627
C8    C     C_R   0.697560 0.141358 0.694085 0.080662
C9    C     C_R   0.053569 0.864805 0.060935 0.058375
C10   C     C_R   0.597419 0.281579 0.114352 -0.127100
C11   C     C_R   0.686237 0.365466 0.214342 -0.125239
C12   C     C_R   0.319579 0.785618 0.324469 0.065362
C13   C     C_R   0.742349 0.340497 0.287610 0.114645
C14   C     C_R   0.705676 0.230172 0.260369 -0.159609
C15   C     C_R   0.615646 0.146463 0.160578 -0.097934
C16   C     C_R   0.208935 0.408189 0.903431 -0.149442
C17   C     C_R   0.561891 0.172137 0.087350 -0.109718
C18   C     C_R   0.854772 0.431166 0.486738 -0.231875
C19   C     C_R   0.949026 0.512915 0.583817 0.063870
C20   C     C_R   0.028165 0.599533 0.587607 0.013225
C21   C     C_R   0.011804 0.600472 0.493781 -0.236888
C22   C     C_R   0.924180 0.512769 0.394929 0.060401
C23   C     C_R   0.301912 0.498806 0.935925 -0.006503
C24   C     C_R   0.841355 0.429368 0.390418 0.020679
C25   C     C_R   0.161541 0.793020 0.736665 -0.181079
C26   C     C_R   0.261918 0.870665 0.828205 -0.127840
C27   C     C_R   0.338347 0.839714 0.864197 -0.111883
C28   C     C_R   0.993745 0.593243 0.297303 -0.158305
C29   C     C_R   0.314368 0.730784 0.808950 -0.113597
C30   C     C_R   0.213272 0.652002 0.718824 -0.121032
C31   C     C_R   0.135795 0.682588 0.682839 0.108824
C32   C     C_R   0.171495 0.005062 0.374395 -0.119693
C33   C     C_R   0.266772 0.001011 0.392215 -0.113505
C34   C     C_R   0.936436 0.504212 0.301802 0.060573
C35   C     C_R   0.310398 0.972748 0.468030 0.105331
C36   C     C_R   0.258867 0.950307 0.526919 -0.205174
C37   C     C_R   0.161651 0.951059 0.506098 -0.132000
C38   C     C_R   0.118113 0.978823 0.430103 -0.104993
C39   C     C_R   0.508275 0.060407 0.569491 -0.078877
C40   C     C_R   0.300278 0.590595 0.997471 -0.089450
C41   C     C_R   0.601839 0.049821 0.599957 0.017250
C42   C     C_R   0.600995 0.951667 0.542792 -0.012630
C43   C     C_R   0.506451 0.865301 0.451477 -0.233699
C44   C     C_R   0.412718 0.872663 0.424909 0.073548
C45   C     C_R   0.687622 0.407972 0.935933 -0.086416
C46   C     C_R   0.411290 0.967682 0.487823 -0.082847
C47   C     C_R   0.736349 0.900810 0.512121 -0.159219
C48   C     C_R   0.812056 0.866587 0.540404 -0.110869
C49   C     C_R   0.843682 0.862135 0.635719 -0.097481
C50   C     C_R   0.801941 0.894781 0.704416 -0.118164
C51   C     C_R   0.727506 0.930624 0.677276 -0.130957
C52   C     C_R   0.908052 0.410923 0.210829 -0.133578
C53   C     C_R   0.693116 0.932478 0.580173 0.132317
C54   C     C_3   0.475763 0.382314 0.859748 -0.401015
C55   C     C_3   0.372648 0.383092 0.852954 -0.431860
C56   C     C_R   0.028493 0.593754 0.781840 -0.108208
C57   C     C_3   0.582525 0.533957 0.056362 -0.504748
C58   C     C_3   0.557152 0.579064 0.906727 -0.387385
C59   C     C_3   0.574484 0.498618 0.943051 0.387924
C60   C     C_3   0.399186 0.498252 0.935339 0.304235
C61   C     C_3   0.479935 0.534712 0.052919 -0.158334
C62   C     C_3   0.453259 0.579679 0.902750 -0.420344
C63   C     C_R   0.121929 0.056354 0.775331 -0.132846
C64   C     C_R   0.217670 0.746769 0.311792 -0.097060
C65   C     C_R   0.098874 0.064835 0.859784 -0.165176
C66   C     C_R   0.182321 0.122163 0.967166 0.109077
C67   C     C_R   0.790073 0.200742 0.696142 -0.067680
C68   C     C_R   0.289249 0.163991 0.987686 -0.163719
C69   C     C_R   0.311767 0.152700 0.902361 -0.177004
C70   C     C_R   0.228523 0.100270 0.796766 -0.115473
C71   C     C_R   0.161146 0.035485 0.071781 -0.221252
C72   C     C_R   0.086237 0.980796 0.096581 0.046411
C73   C     C_R   0.036956 0.035747 0.142384 -0.013159
C74   C     C_R   0.065122 0.140771 0.159510 -0.209539
C75   C     C_R   0.101517 0.169850 0.093848 0.070814
C76   C     C_R   0.073291 0.259710 0.978822 -0.116960
C77   C     C_R   0.156084 0.118575 0.052856 0.026902
C78   C     C_R   0.997084 0.801978 0.092979 -0.130011
C79   C     C_R   0.839751 0.910844 0.044567 -0.125895
C80   C     C_R   0.740853 0.875458 0.043193 -0.150574
C81   C     C_R   0.737174 0.906068 0.140268 -0.100805
C82   C     C_R   0.832530 0.975949 0.239043 -0.108481
C83   C     C_R   0.931457 0.015652 0.240676 -0.192718
C84   C     C_R   0.936056 0.981065 0.143446 0.116934
C85   C     C_R   0.056134 0.228935 0.050822 0.058417
C86   C     C_2   0.510537 0.167974 0.619049 0.483822
C87   C     C_2   0.433590 0.465673 0.096657 0.523667
C88   C     C_R   0.087712 0.802482 0.001376 -0.147907
H1    H     H_    0.940282 0.237549 0.113100 0.098543
H2    H     H_    0.557189 0.302030 0.057817 0.088230
H3    H     H_    0.712622 0.449796 0.233770 0.109785
H4    H     H_    0.378767 0.780204 0.205883 0.096982
H5    H     H_    0.748119 0.208781 0.315088 0.108710
H6    H     H_    0.588375 0.061664 0.139517 0.100656
H7    H     H_    0.793172 0.367605 0.485991 0.141014
H8    H     H_    0.076432 0.664092 0.497733 0.131587
H9    H     H_    0.102911 0.818069 0.709514 0.120733
H10   H     H_    0.280424 0.954634 0.871729 0.139130
H11   H     H_    0.416246 0.900087 0.934737 0.095504
H12   H     H_    0.054689 0.678565 0.806055 0.115578
H13   H     H_    0.374360 0.707818 0.836182 0.098382
H14   H     H_    0.195186 0.567491 0.677314 0.107158
H15   H     H_    0.043267 0.980182 0.414819 0.101186
H16   H     H_    0.178687 0.323553 0.845530 0.099298
H17   H     H_    0.139377 0.028337 0.317149 0.118599
H18   H     H_    0.306465 0.019799 0.347317 0.117346
H19   H     H_    0.292427 0.929158 0.586369 0.122426
H20   H     H_    0.120077 0.930113 0.548763 0.105120
H21   H     H_    0.504422 0.790118 0.403281 0.158649
H22   H     H_    0.709632 0.900372 0.436241 0.105146
H23   H     H_    0.815789 0.174711 0.636879 0.077719
H24   H     H_    0.844758 0.841655 0.487514 0.103222
H25   H     H_    0.900883 0.833782 0.656594 0.104573
H26   H     H_    0.826469 0.891253 0.778220 0.105025
H27   H     H_    0.015985 0.677708 0.347549 0.101663
H28   H     H_    0.693457 0.952639 0.729642 0.105790
H29   H     H_    0.482255 0.322252 0.884950 0.135963
H30   H     H_    0.470477 0.353946 0.778509 0.175287
H31   H     H_    0.317702 0.359433 0.769225 0.169451
H32   H     H_    0.331558 0.320683 0.870272 0.164232
H33   H     H_    0.598922 0.478636 0.084658 0.147404
H34   H     H_    0.975670 0.829862 0.155399 0.110036
H35   H     H_    0.626403 0.662401 0.964892 0.156438
H36   H     H_    0.551831 0.555216 0.825771 0.168218
H37   H     H_    0.396956 0.555575 0.819434 0.163508
H38   H     H_    0.356568 0.675226 0.029444 0.070538
H39   H     H_    0.474173 0.664386 0.958739 0.140017
H40   H     H_    0.651802 0.617903 0.117058 0.163716
H41   H     H_    0.502696 0.620932 0.107665 0.136107
H42   H     H_    0.247121 0.093550 0.731861 0.119607
H43   H     H_    0.057432 0.014756 0.693244 0.113172
H44   H     H_    0.016295 0.028394 0.842670 0.124263
H45   H     H_    0.145888 0.829563 0.976085 0.099524
H46   H     H_    0.354592 0.202983 0.068944 0.133209
H47   H     H_    0.393429 0.183131 0.916951 0.105421
H48   H     H_    0.206869 0.000588 0.044760 0.123686
H49   H     H_    0.032555 0.184772 0.200723 0.126933
H50   H     H_    0.855489 0.326842 0.184169 0.111111
H51   H     H_    0.841168 0.888017 0.968623 0.108096
H52   H     H_    0.666940 0.825524 0.966655 0.111413
H53   H     H_    0.660396 0.877542 0.138876 0.092399
H54   H     H_    0.829571 0.002104 0.314232 0.099574
H55   H     H_    0.003835 0.075835 0.317318 0.109538
H56   H     H_    0.645189 0.169755 0.817445 0.067599
H57   H     H_    0.194368 0.753703 0.373483 0.114327
H58   H     H_    0.135085 0.263818 0.956868 0.128770
H59   H     H_    0.626925 0.322852 0.887456 0.086837
H60   H     H_    0.445393 0.172151 0.633846 0.005781
H61   H     H_    0.413907 0.380551 0.060888 0.018020
H62   H     H_    0.795411 0.676941 0.064133 0.109540
H63   H     H_    0.901761 0.326161 0.620086 0.094294
H64   H     H_    0.493077 0.107266 0.009634 0.098271
N1    N     N_R   0.947080 0.293830 0.002870 -0.047258
N2    N     N_R   0.153670 0.443180 0.946090 -0.033596
N3    N     N_R   0.002360 0.556820 0.208890 -0.038033
N4    N     N_R   0.210070 0.556820 0.002870 -0.029063
N5    N     N_R   0.945960 0.443180 0.152110 -0.039917
N6    N     N_R   0.151710 0.706170 0.208890 -0.045766
N7    N     N_R   0.004320 0.293830 0.946090 -0.050311
N8    N     N_R   0.789930 0.443180 0.997130 -0.042934
N9    N     N_R   0.054040 0.556820 0.847890 -0.045604
N10   N     N_R   0.848290 0.293830 0.791110 -0.040609
N11   N     N_R   0.995680 0.706170 0.053910 -0.038188
N12   N     N_R   0.052920 0.706170 0.997130 -0.040466
N13   N     N_R   0.791050 0.293830 0.847890 -0.032734
N14   N     N_R   0.846330 0.556820 0.053910 -0.040046
N15   N     N_R   0.997640 0.443180 0.791110 -0.045199
N16   N     N_R   0.208950 0.706170 0.152110 -0.046387
Ni1   Ni    Ni4+2 0.869690 0.369690 0.000000 0.218877
Ni2   Ni    Ni4+2 0.130310 0.630310 0.000000 0.221935
Ni3   Ni    Ni4+2 0.000970 0.369690 0.869780 0.218288
Ni4   Ni    Ni4+2 0.999030 0.630310 0.130220 0.221210
O1    O     O_2   0.583056 0.252050 0.639428 -0.576030
O2    O     O_2   0.419090 0.505543 0.173116 -0.584167

loop_
_geom_bond_atom_site_label_1
_geom_bond_atom_site_label_2
_ccdc_geom_bond_type
C25   C31   A    
C66   C68   A    
C63   C65   A    
C76   N7    A    
C58   C62   S    
C6    C45   A    
C64   H57   S    
C27   C29   A    
C2    H56   S    
C41   C42   A    
C49   H25   S    
N11   N12   A    
C9    C72   S    
C82   H54   S    
C3    C6    A    
C15   H6    S    
C81   C82   A    
N6    N16   A    
C39   C41   A    
C55   H31   S    
N14   Ni4   S    
C27   H11   S    
C58   H35   S    
C37   C38   A    
N7    Ni3   S    
C83   C84   A    
C18   C24   A    
C36   C37   A    
C88   H45   S    
C42   C53   S    
C79   C84   A    
C12   C64   A    
C57   C59   S    
N3    N5    A    
C10   C17   A    
C23   C40   A    
C70   H42   S    
C60   C62   S    
C18   C19   A    
C73   C74   A    
C55   H32   S    
C87   O2    D    
C34   C52   A    
C61   C87   S    
C13   C14   A    
N5    Ni1   S    
N12   Ni2   S    
N3    Ni4   S    
C75   C85   S    
N10   Ni3   S    
C35   C36   A    
C68   C69   A    
C28   N3    A    
C52   H50   S    
N8    Ni1   S    
N8    N14   A    
C4    C12   A    
C29   C30   A    
C14   H5    S    
N2    N4    A    
C61   H41   S    
C47   C53   A    
N16   Ni2   S    
C76   H58   S    
C78   N11   A    
C69   H47   S    
C55   C60   S    
C36   H19   S    
C1    C85   A    
C18   H7    S    
C45   N8    A    
C7    C56   A    
C57   H40   S    
C44   C46   A    
C54   C59   S    
N13   Ni1   S    
C23   C60   S    
C22   C34   S    
C74   H49   S    
C74   C75   A    
C8    C41   S    
C37   H20   S    
C79   H51   S    
C71   H48   S    
C5    C7    A    
C72   C73   A    
N15   Ni3   S    
C25   C26   A    
C80   H52   S    
C57   H33   S    
C56   N9    A    
C82   C83   A    
C4    N16   A    
C13   C24   S    
C60   C61   S    
C50   H26   S    
N1    N7    A    
C43   C44   A    
C38   H15   S    
C28   H27   S    
N10   N13   A    
C47   C48   A    
C63   C70   A    
C30   C31   A    
C40   H38   S    
C81   H53   S    
C30   H14   S    
C50   C51   A    
C26   C27   A    
C29   H13   S    
C1    N1    A    
N11   Ni4   S    
C75   C77   A    
C2    N13   A    
N9    N15   A    
C63   H43   S    
C26   H10   S    
C39   C46   A    
N9    Ni2   S    
C25   H9    S    
C48   C49   A    
C48   H24   S    
C49   C50   A    
C16   C23   A    
C32   C38   A    
C16   H16   S    
C54   H30   S    
C16   N2    A    
C22   C24   A    
C17   H64   S    
C42   C43   A    
C56   H12   S    
C64   N6    A    
C71   C77   A    
C65   H44   S    
C67   H23   S    
C52   N5    A    
C15   C17   A    
C66   C77   S    
C54   C55   S    
C3    H62   S    
C1    H1    S    
C73   C84   S    
C45   H59   S    
C58   H36   S    
C6    C59   S    
C2    C8    A    
C33   H18   S    
C80   C81   A    
C86   H60   S    
C62   H37   S    
C57   C61   S    
C21   H8    S    
C47   H22   S    
C7    C19   S    
C51   H28   S    
C5    H63   S    
C32   H17   S    
C86   O1    D    
C32   C33   A    
C19   C20   A    
C68   H46   S    
C58   C59   S    
C71   C72   A    
C9    C88   A    
C88   N12   A    
C83   H55   S    
C11   C13   A    
C67   N10   A    
N6    Ni4   S    
C62   H39   S    
N4    Ni2   S    
C33   C35   A    
N2    Ni3   S    
C9    C78   A    
C5    N15   A    
C69   C70   A    
C78   H34   S    
C10   C11   A    
C28   C34   A    
C79   C80   A    
C11   H3    S    
C20   C21   A    
C10   H2    S    
C8    C67   A    
C12   C44   S    
C65   C66   A    
C87   H61   S    
C54   H29   S    
N1    Ni1   S    
C14   C15   A    
C40   N4    A    
C43   H21   S    
C39   C86   S    
C51   C53   A    
C21   C22   A    
C35   C46   S    
C76   C85   A    
C3    N14   A    
C4    H4    S    
C20   C31   S    
