data_mof_unit_62553.cif
_audit_creation_date              2012-12-10T16:51:45-0500
_audit_creation_method            fapswitch 2.2
_symmetry_space_group_name_H-M    P1
_symmetry_Int_Tables_number       1
_space_group_crystal_system       monoclinic
_cell_length_a                    30.101423
_cell_length_b                    30.501403
_cell_length_c                    21.629657
_cell_angle_alpha                 90.0
_cell_angle_beta                  134.238445
_cell_angle_gamma                 90.0
_cell_volume                      14227.8051801

loop_
_atom_site_label
_atom_site_type_symbol
_atom_type_description
_atom_site_fract_x
_atom_site_fract_y
_atom_site_fract_z
_atom_type_partial_charge
C1    C     C_R   0.689070 0.809882 0.881503 0.935035
C2    C     C_R   0.310930 0.809882 0.118497 0.935035
C3    C     C_R   0.189070 0.309882 0.881503 0.935035
C4    C     C_R   0.810930 0.309882 0.118497 0.935035
C5    C     C_R   0.452985 0.790174 0.998812 0.121409
C6    C     C_R   0.547015 0.790174 0.001188 0.121409
C7    C     C_R   0.952985 0.290174 0.998812 0.121409
C8    C     C_R   0.047015 0.290174 0.001188 0.121409
C9    C     C_R   0.477403 0.669953 0.001061 -0.217115
C10   C     C_R   0.522597 0.669953 0.998939 -0.217116
C11   C     C_R   0.977403 0.169953 0.001061 -0.217115
C12   C     C_R   0.022597 0.169953 0.998939 -0.217116
C13   C     C_R   0.523586 0.829934 0.000910 -0.216735
C14   C     C_R   0.476414 0.829934 0.999089 -0.216734
C15   C     C_R   0.023586 0.329934 0.000910 -0.216735
C16   C     C_R   0.976414 0.329934 0.999089 -0.216734
C17   C     C_2   0.560064 0.873763 0.681562 -0.154856
C18   C     C_2   0.439936 0.873763 0.318438 -0.154855
C19   C     C_2   0.060064 0.373763 0.681562 -0.154856
C20   C     C_2   0.939936 0.373763 0.318438 -0.154856
C21   C     C_2   0.590112 0.903413 0.676511 -0.331482
C22   C     C_2   0.409888 0.903413 0.323489 -0.331482
C23   C     C_2   0.090112 0.403413 0.676511 -0.331483
C24   C     C_2   0.909888 0.403413 0.323489 -0.331481
C25   C     C_2   0.594688 0.837605 0.743051 -0.157647
C26   C     C_2   0.405312 0.837605 0.256949 -0.157647
C27   C     C_2   0.094688 0.337605 0.743051 -0.157647
C28   C     C_2   0.905312 0.337605 0.256949 -0.157647
C29   C     C_2   0.652805 0.844275 0.818783 -0.339855
C30   C     C_2   0.347195 0.844275 0.181217 -0.339855
C31   C     C_2   0.152805 0.344275 0.818783 -0.339856
C32   C     C_2   0.847195 0.344275 0.181217 -0.339855
C33   C     C_R   0.131908 0.748580 0.078451 -0.257882
C34   C     C_R   0.868092 0.748580 0.921549 -0.257882
C35   C     C_R   0.631908 0.248580 0.078451 -0.257881
C36   C     C_R   0.368092 0.248580 0.921549 -0.257882
C37   C     C_R   0.115282 0.750004 0.999921 -0.059111
C38   C     C_R   0.884718 0.750004 0.000079 -0.059111
C39   C     C_R   0.615282 0.250004 0.999921 -0.059111
C40   C     C_R   0.384718 0.250004 0.000079 -0.059111
C41   C     C_R   0.053173 0.751250 0.921399 -0.263423
C42   C     C_R   0.946827 0.751250 0.078601 -0.263422
C43   C     C_R   0.553173 0.251250 0.921399 -0.263422
C44   C     C_R   0.446827 0.251250 0.078601 -0.263422
C45   C     C_R   0.663083 0.749960 0.999923 0.893299
C46   C     C_R   0.336917 0.749960 0.000077 0.893300
C47   C     C_R   0.163083 0.249960 0.999923 0.893299
C48   C     C_R   0.836917 0.249960 0.000077 0.893300
C49   C     C_R   0.006693 0.750459 0.920768 0.123908
C50   C     C_R   0.993307 0.750459 0.079232 0.123908
C51   C     C_R   0.506693 0.250460 0.920768 0.123908
C52   C     C_R   0.493307 0.250459 0.079232 0.123908
C53   C     C_R   0.023198 0.749807 0.999979 0.057467
C54   C     C_R   0.976802 0.749807 0.000021 0.057467
C55   C     C_R   0.523198 0.249807 0.999979 0.057467
C56   C     C_R   0.476802 0.249807 0.000021 0.057467
C57   C     C_R   0.086101 0.749174 0.079150 0.120985
C58   C     C_R   0.913899 0.749174 0.920850 0.120985
C59   C     C_R   0.586101 0.249174 0.079150 0.120985
C60   C     C_R   0.413899 0.249174 0.920850 0.120985
C61   C     C_R   0.944170 0.750208 0.842524 -0.221383
C62   C     C_R   0.055830 0.750208 0.157476 -0.221383
C63   C     C_R   0.444170 0.250208 0.842524 -0.221383
C64   C     C_R   0.555830 0.250208 0.157476 -0.221383
C65   C     C_R   0.897933 0.749271 0.842567 -0.217297
C66   C     C_R   0.102067 0.749271 0.157433 -0.217297
C67   C     C_R   0.397933 0.249271 0.842567 -0.217296
C68   C     C_R   0.602067 0.249271 0.157433 -0.217296
C69   C     C_2   0.941727 0.628337 0.322464 0.528707
C70   C     C_2   0.058273 0.628337 0.677536 0.528707
C71   C     C_2   0.441727 0.128338 0.322464 0.528708
C72   C     C_2   0.558273 0.128338 0.677535 0.528710
C73   C     C_2   0.911187 0.597623 0.325274 -0.409523
C74   C     C_2   0.088813 0.597623 0.674726 -0.409526
C75   C     C_2   0.411187 0.097623 0.325274 -0.409525
C76   C     C_2   0.588813 0.097623 0.674726 -0.409524
C77   C     C_2   0.904395 0.664494 0.260206 -0.316509
C78   C     C_2   0.095605 0.664494 0.739794 -0.316508
C79   C     C_2   0.404395 0.164494 0.260207 -0.316512
C80   C     C_2   0.595605 0.164495 0.739793 -0.316513
C81   C     C_2   0.848837 0.655937 0.181638 -0.399291
C82   C     C_2   0.151163 0.655937 0.818362 -0.399293
C83   C     C_2   0.348837 0.155937 0.181638 -0.399290
C84   C     C_2   0.651163 0.155937 0.818362 -0.399289
C85   C     C_R   0.058215 0.560870 0.616163 0.975400
C86   C     C_R   0.941785 0.560870 0.383837 0.975398
C87   C     C_R   0.558215 0.060870 0.616164 0.975399
C88   C     C_R   0.441785 0.060870 0.383837 0.975398
C89   C     C_R   0.810956 0.690087 0.118570 0.973813
C90   C     C_R   0.189044 0.690087 0.881430 0.973813
C91   C     C_R   0.310956 0.190087 0.118570 0.973813
C92   C     C_R   0.689044 0.190087 0.881430 0.973812
C93   C     C_R   0.558606 0.939447 0.616794 0.919087
C94   C     C_R   0.441393 0.939447 0.383206 0.919086
C95   C     C_R   0.058607 0.439447 0.616794 0.919088
C96   C     C_R   0.941393 0.439447 0.383206 0.919087
C97   C     C_R   0.836896 0.750011 0.000021 0.891932
C98   C     C_R   0.163104 0.750011 0.999979 0.891931
C99   C     C_R   0.336896 0.250011 0.000021 0.891932
C100  C     C_R   0.663104 0.250011 0.999979 0.891931
C101  C     C_R   0.406153 0.789835 0.997480 -0.257806
C102  C     C_R   0.593847 0.789835 0.002520 -0.257806
C103  C     C_R   0.906153 0.289835 0.997480 -0.257806
C104  C     C_R   0.093846 0.289835 0.002520 -0.257806
C105  C     C_R   0.384794 0.749945 0.000244 -0.060496
C106  C     C_R   0.615206 0.749945 0.999756 -0.060496
C107  C     C_R   0.884794 0.249945 0.000244 -0.060496
C108  C     C_R   0.115206 0.249945 0.999756 -0.060496
C109  C     C_R   0.408923 0.710054 0.003012 -0.257714
C110  C     C_R   0.591077 0.710054 0.996988 -0.257715
C111  C     C_R   0.908923 0.210054 0.003012 -0.257714
C112  C     C_R   0.091077 0.210054 0.996988 -0.257715
C113  C     C_R   0.454325 0.709713 0.001487 0.121627
C114  C     C_R   0.545675 0.709713 0.998513 0.121628
C115  C     C_R   0.954325 0.209713 0.001487 0.121627
C116  C     C_R   0.045675 0.209713 0.998513 0.121628
C117  C     C_R   0.476829 0.749943 0.000078 0.057336
C118  C     C_R   0.523171 0.749943 0.999922 0.057336
C119  C     C_R   0.976829 0.249943 0.000078 0.057336
C120  C     C_R   0.023171 0.249943 0.999922 0.057336
H1    H     H_    0.387111 0.820462 0.996043 0.149037
H2    H     H_    0.612889 0.820462 0.003957 0.149037
H3    H     H_    0.887111 0.320462 0.996043 0.149037
H4    H     H_    0.112889 0.320462 0.003957 0.149037
H5    H     H_    0.041262 0.751922 0.861101 0.142816
H6    H     H_    0.958738 0.751922 0.138899 0.142816
H7    H     H_    0.541262 0.251922 0.861101 0.142816
H8    H     H_    0.458738 0.251922 0.138899 0.142816
H9    H     H_    0.931105 0.750530 0.781459 0.144303
H10   H     H_    0.068895 0.750531 0.218541 0.144303
H11   H     H_    0.431105 0.250531 0.781459 0.144303
H12   H     H_    0.568895 0.250531 0.218541 0.144303
H13   H     H_    0.849769 0.748878 0.781529 0.147521
H14   H     H_    0.150231 0.748878 0.218471 0.147521
H15   H     H_    0.349769 0.248878 0.781529 0.147521
H16   H     H_    0.650231 0.248878 0.218471 0.147521
H17   H     H_    0.861846 0.600931 0.286658 0.124166
H18   H     H_    0.138154 0.600931 0.713341 0.124167
H19   H     H_    0.361846 0.100931 0.286658 0.124165
H20   H     H_    0.638154 0.100931 0.713343 0.124165
H21   H     H_    0.922947 0.697600 0.278285 0.175065
H22   H     H_    0.077052 0.697600 0.721716 0.175066
H23   H     H_    0.422947 0.197600 0.278285 0.175064
H24   H     H_    0.577054 0.197600 0.721715 0.175063
H25   H     H_    0.832498 0.622388 0.160928 0.155654
H26   H     H_    0.167502 0.622388 0.839072 0.155654
H27   H     H_    0.332498 0.122388 0.160928 0.155655
H28   H     H_    0.667501 0.122388 0.839072 0.155655
H29   H     H_    0.391329 0.679429 0.004470 0.147898
H30   H     H_    0.608671 0.679429 0.995530 0.147898
H31   H     H_    0.891329 0.179429 0.004470 0.147898
H32   H     H_    0.108671 0.179429 0.995530 0.147898
H33   H     H_    0.460257 0.638936 0.001874 0.147759
H34   H     H_    0.539743 0.638936 0.998126 0.147759
H35   H     H_    0.960257 0.138936 0.001874 0.147759
H36   H     H_    0.039743 0.138936 0.998126 0.147759
H37   H     H_    0.510010 0.874981 0.638371 0.166958
H38   H     H_    0.489990 0.874981 0.361629 0.166958
H39   H     H_    0.010010 0.374981 0.638371 0.166958
H40   H     H_    0.989990 0.374981 0.361629 0.166958
H41   H     H_    0.638894 0.899281 0.712638 0.157011
H42   H     H_    0.361106 0.899281 0.287362 0.157011
H43   H     H_    0.138894 0.399281 0.712638 0.157011
H44   H     H_    0.861106 0.399281 0.287362 0.157011
H45   H     H_    0.571893 0.806179 0.727445 0.166991
H46   H     H_    0.428107 0.806179 0.272555 0.166991
H47   H     H_    0.071893 0.306179 0.727445 0.166991
H48   H     H_    0.928107 0.306179 0.272555 0.166991
H49   H     H_    0.673010 0.876925 0.838447 0.157109
H50   H     H_    0.326990 0.876925 0.161553 0.157109
H51   H     H_    0.173010 0.376925 0.838447 0.157109
H52   H     H_    0.826990 0.376925 0.161553 0.157109
H53   H     H_    0.180451 0.747907 0.138738 0.149479
H54   H     H_    0.819549 0.747907 0.861262 0.149479
H55   H     H_    0.680451 0.247907 0.138738 0.149479
H56   H     H_    0.319549 0.247907 0.861262 0.149479
O1    O     O_R   0.679230 0.769690 0.858450 -0.617897
O2    O     O_R   0.320770 0.769690 0.141550 -0.617897
O3    O     O_R   0.179230 0.269690 0.858450 -0.617897
O4    O     O_R   0.820770 0.269690 0.141550 -0.617897
O5    O     O_R   0.082500 0.545230 0.590410 -0.626245
O6    O     O_R   0.917500 0.545230 0.409590 -0.626246
O7    O     O_R   0.582500 0.045230 0.590410 -0.626245
O8    O     O_R   0.417500 0.045230 0.409590 -0.626246
O9    O     O_R   0.507930 0.954750 0.590450 -0.621499
O10   O     O_R   0.492070 0.954750 0.409550 -0.621499
O11   O     O_R   0.007930 0.454750 0.590450 -0.621500
O12   O     O_R   0.992070 0.454750 0.409550 -0.621499
O13   O     O_R   0.582530 0.954770 0.590430 -0.630441
O14   O     O_R   0.417470 0.954770 0.409570 -0.630441
O15   O     O_R   0.082530 0.454770 0.590430 -0.630441
O16   O     O_R   0.917470 0.454770 0.409570 -0.630441
O17   O     O_R   0.730270 0.820760 0.960570 -0.625113
O18   O     O_R   0.269730 0.820760 0.039430 -0.625113
O19   O     O_R   0.230270 0.320760 0.960570 -0.625113
O20   O     O_R   0.769730 0.320760 0.039430 -0.625113
O21   O     O_R   0.658400 0.724440 0.948940 -0.627164
O22   O     O_R   0.341600 0.724440 0.051060 -0.627164
O23   O     O_R   0.158400 0.224440 0.948940 -0.627163
O24   O     O_R   0.841600 0.224440 0.051060 -0.627164
O25   O     O_R   0.709450 0.775510 0.051050 -0.622417
O26   O     O_R   0.290550 0.775510 0.948950 -0.622417
O27   O     O_R   0.209450 0.275510 0.051050 -0.622417
O28   O     O_R   0.790550 0.275510 0.948950 -0.622417
O29   O     O_R   0.769710 0.679220 0.039380 -0.628455
O30   O     O_R   0.230290 0.679220 0.960620 -0.628455
O31   O     O_R   0.269710 0.179220 0.039380 -0.628455
O32   O     O_R   0.730290 0.179220 0.960620 -0.628455
O33   O     O_R   0.820750 0.730290 0.141500 -0.617600
O34   O     O_R   0.179250 0.730290 0.858500 -0.617600
O35   O     O_R   0.320750 0.230290 0.141500 -0.617601
O36   O     O_R   0.679250 0.230290 0.858500 -0.617601
O37   O     O_R   0.790530 0.724470 0.948890 -0.623835
O38   O     O_R   0.209470 0.724470 0.051110 -0.623835
O39   O     O_R   0.290530 0.224470 0.948890 -0.623835
O40   O     O_R   0.709470 0.224470 0.051110 -0.623835
O41   O     O_R   0.841580 0.775540 0.051010 -0.626887
O42   O     O_R   0.158420 0.775540 0.948990 -0.626886
O43   O     O_R   0.341580 0.275540 0.051010 -0.626887
O44   O     O_R   0.658420 0.275540 0.948990 -0.626886
O45   O     O_R   0.007900 0.545210 0.590430 -0.572142
O46   O     O_R   0.992100 0.545210 0.409570 -0.572141
O47   O     O_R   0.507900 0.045210 0.590430 -0.572140
O48   O     O_R   0.492100 0.045210 0.409570 -0.572140
Zn1   Zn    Zn3+2 0.715910 0.715890 0.931790 0.949680
Zn2   Zn    Zn3+2 0.284090 0.715890 0.068210 0.949680
Zn3   Zn    Zn3+2 0.215910 0.215890 0.931790 0.949680
Zn4   Zn    Zn3+2 0.784090 0.215890 0.068210 0.949680
Zn5   Zn    Zn3+2 0.784070 0.784090 0.068160 0.951191
Zn6   Zn    Zn3+2 0.215930 0.784090 0.931840 0.951191
Zn7   Zn    Zn3+2 0.284070 0.284090 0.068160 0.951190
Zn8   Zn    Zn3+2 0.715930 0.284090 0.931840 0.951190
Zn9   Zn    Zn3+2 0.450180 0.999980 0.499990 0.973209
Zn10  Zn    Zn3+2 0.549820 0.999980 0.500010 0.973208
Zn11  Zn    Zn3+2 0.950180 0.499980 0.499990 0.973206
Zn12  Zn    Zn3+2 0.049820 0.499980 0.500010 0.973207
O49   O     O_3   0.006427 0.627684 0.383601 -0.586196
C121  C     C_3   0.029974 0.648696 0.353210 0.109324
H57   H     H_    0.026985 0.684899 0.355541 0.134666
H58   H     H_    0.004786 0.638185 0.286231 0.139264
C122  C     C_3   0.097914 0.636533 0.411416 -0.806711
H59   H     H_    0.102615 0.600491 0.410319 0.255292
H60   H     H_    0.117135 0.653021 0.388503 0.198899
H61   H     H_    0.124735 0.647084 0.478697 0.258757
O50   O     O_3   0.993573 0.627684 0.616400 -0.586195
C123  C     C_3   0.970027 0.648694 0.646793 0.109327
H62   H     H_    0.973015 0.684897 0.644464 0.134664
H63   H     H_    0.995215 0.638181 0.713772 0.139262
C124  C     C_3   0.902087 0.636530 0.588588 -0.806707
H64   H     H_    0.897386 0.600487 0.589683 0.255291
H65   H     H_    0.882866 0.653016 0.611504 0.198899
H66   H     H_    0.875264 0.647083 0.521307 0.258756
O51   O     O_3   0.506427 0.127685 0.383602 -0.586196
C125  C     C_3   0.529975 0.148698 0.353213 0.109324
H67   H     H_    0.526986 0.184901 0.355547 0.134665
H68   H     H_    0.504787 0.138188 0.286233 0.139264
C126  C     C_3   0.597915 0.136535 0.411419 -0.806708
H69   H     H_    0.602616 0.100493 0.410318 0.255290
H70   H     H_    0.617136 0.153025 0.388508 0.198899
H71   H     H_    0.624736 0.147085 0.478701 0.258757
O52   O     O_3   0.493573 0.127685 0.616398 -0.586196
C127  C     C_3   0.470025 0.148700 0.646784 0.109321
H72   H     H_    0.473013 0.184903 0.644447 0.134666
H73   H     H_    0.495212 0.138192 0.713765 0.139265
C128  C     C_3   0.402084 0.136537 0.588579 -0.806709
H74   H     H_    0.397384 0.100496 0.589683 0.255291
H75   H     H_    0.382863 0.153029 0.611488 0.198900
H76   H     H_    0.375264 0.147085 0.521296 0.258758
H77   H     H_    0.541498 0.860951 0.001623 0.148676
H78   H     H_    0.458502 0.860951 0.998377 0.148676
H79   H     H_    0.041498 0.360951 0.001623 0.148676
H80   H     H_    0.958502 0.360951 0.998377 0.148676

loop_
_geom_bond_atom_site_label_1
_geom_bond_atom_site_label_2
_ccdc_geom_bond_type
O10   Zn10  S    
O9    Zn9   S    
C55   C56   A    
C49   C53   A    
C123  H63   S    
C55   C59   A    
C70   C78   S    
C44   H8    S    
C62   H10   S    
C69   C77   S    
C18   C26   S    
C50   C54   A    
O17   Zn5   S    
C57   C66   A    
C72   C76   D    
C103  H3    S    
C10   H34   S    
C127  C128  S    
C71   C79   S    
C39   C100  S    
C95   O11   A    
O42   Zn6   S    
C53   C54   A    
C123  C124  S    
C74   H18   S    
C121  C122  S    
O46   Zn12  S    
C72   O52   S    
O40   Zn4   S    
O35   Zn7   S    
C48   O24   A    
C18   H38   S    
C64   C68   A    
C35   H55   S    
C12   H36   S    
C122  H59   S    
C78   H22   S    
C54   C58   A    
O51   C125  S    
C22   H42   S    
O43   Zn7   S    
C46   O22   A    
C48   C107  S    
C45   O21   A    
C15   C16   A    
C46   C105  S    
C35   C59   A    
C126  H69   S    
O24   Zn4   S    
C111  H31   S    
O19   Zn7   S    
C6    C118  A    
C65   H13   S    
C3    O3    A    
C30   H50   S    
C125  H68   S    
C69   O49   S    
O47   Zn9   S    
O41   Zn5   S    
C66   H14   S    
C52   C56   A    
C1    O1    A    
C79   H23   S    
C64   H12   S    
C60   C67   A    
C33   H53   S    
C80   H24   S    
C7    C119  A    
C70   C74   D    
C33   C57   A    
C112  H32   S    
C69   C73   D    
C47   C108  S    
C63   H11   S    
C19   C27   S    
C128  H74   S    
C110  C114  A    
C51   C55   A    
C10   C114  A    
C109  C113  A    
C3    C31   S    
C81   C89   S    
C44   C52   A    
C31   H51   S    
O25   Zn5   S    
C98   O38   A    
C46   O26   A    
C9    H33   S    
C97   O37   A    
C13   C14   A    
O45   Zn11  S    
C101  C105  A    
C22   C94   S    
C47   O23   A    
C24   H44   S    
C4    O4    A    
C38   C97   S    
C15   H79   S    
C40   C99   S    
C41   C49   A    
C37   C98   S    
C82   H26   S    
O48   Zn10  S    
C42   H6    S    
C23   H43   S    
C84   H28   S    
C25   C29   D    
O8    Zn9   S    
O2    Zn2   S    
C63   C67   A    
C124  H65   S    
C49   C61   A    
C16   H80   S    
C27   C31   D    
C80   C84   D    
C41   H5    S    
C36   C40   A    
C62   C66   A    
C51   C63   A    
C88   O8    A    
C91   O35   A    
C93   O13   A    
C52   C64   A    
C121  H58   S    
O7    Zn10  S    
C90   O34   A    
O44   Zn8   S    
C123  H62   S    
C127  H73   S    
C20   C28   S    
C125  C126  S    
C25   H45   S    
O15   Zn12  S    
O4    Zn4   S    
O3    Zn3   S    
C3    O19   A    
C116  C120  A    
C5    C117  A    
C122  H60   S    
C87   O47   A    
O28   Zn8   S    
C19   C23   D    
O18   Zn6   S    
C94   O14   A    
O30   Zn2   S    
C67   H15   S    
C34   H54   S    
C13   H77   S    
C59   C68   A    
C128  H75   S    
C78   C82   D    
C58   C65   A    
C91   O31   A    
C86   O6    A    
C28   C32   D    
C109  H29   S    
C119  C120  A    
C17   H37   S    
C24   C96   S    
C88   O48   A    
C124  H64   S    
C47   O27   A    
O14   Zn9   S    
O33   Zn5   S    
C68   H16   S    
O29   Zn1   S    
O13   Zn10  S    
C8    C104  A    
C76   C87   S    
C100  O44   A    
C5    C14   A    
C114  C118  A    
C102  H2    S    
O6    Zn11  S    
C42   C50   A    
C83   H27   S    
C111  C115  A    
O31   Zn3   S    
C7    C16   A    
C99   O43   A    
C26   C30   D    
C8    C15   A    
C115  C119  A    
C98   O42   A    
C20   H40   S    
C50   C62   A    
C97   O41   A    
C11   H35   S    
C92   O36   A    
C36   H56   S    
C93   O9    A    
C76   H20   S    
C43   H7    S    
C83   C91   S    
O21   Zn1   S    
C104  C108  A    
C11   C115  A    
C45   C106  S    
C8    C120  A    
O16   Zn11  S    
C33   C37   A    
C106  C110  A    
C113  C117  A    
C108  C112  A    
C4    O20   A    
C105  C109  A    
C121  H57   S    
C100  O40   A    
C124  H66   S    
C85   O5    A    
C95   O15   A    
C2    O2    A    
C29   H49   S    
O12   Zn12  S    
C34   C38   A    
C107  C111  A    
C73   H17   S    
C71   O51   S    
C94   O10   A    
O50   C123  S    
C36   C60   A    
C53   C57   A    
C89   O33   A    
C11   C12   A    
C14   H78   S    
O20   Zn8   S    
C127  H72   S    
C104  H4    S    
C32   H52   S    
C61   H9    S    
C92   O32   A    
C84   C92   S    
C48   O28   A    
C81   H25   S    
C21   C93   S    
C82   C90   S    
C5    C101  A    
O26   Zn6   S    
C2    C30   S    
C126  H71   S    
C19   H39   S    
C122  H61   S    
C125  H67   S    
C18   C22   D    
C99   O39   A    
C17   C25   S    
C72   C80   S    
C75   H19   S    
C117  C118  A    
O32   Zn4   S    
C6    C13   A    
C71   C75   D    
O5    Zn12  S    
C96   O16   A    
C1    C29   S    
O52   C127  S    
O23   Zn3   S    
C110  H30   S    
C43   C51   A    
O36   Zn8   S    
C35   C39   A    
C9    C113  A    
C7    C103  A    
C89   O29   A    
C23   C95   S    
O27   Zn7   S    
C9    C10   A    
O39   Zn3   S    
C6    C102  A    
C74   C85   S    
C37   C41   A    
O38   Zn2   S    
C128  H76   S    
C101  H1    S    
C87   O7    A    
O34   Zn6   S    
O37   Zn1   S    
C28   H48   S    
C70   O50   S    
O1    Zn1   S    
C4    C32   S    
C79   C83   D    
C38   C42   A    
C61   C65   A    
C75   C88   S    
C40   C44   A    
C56   C60   A    
C39   C43   A    
C77   H21   S    
C45   O25   A    
C77   C81   D    
C26   H46   S    
C102  C106  A    
C126  H70   S    
C34   C58   A    
C90   O30   A    
C1    O17   A    
C112  C116  A    
C103  C107  A    
C73   C86   S    
C86   O46   A    
C2    O18   A    
O49   C121  S    
C85   O45   A    
C96   O12   A    
C20   C24   D    
O11   Zn11  S    
O22   Zn2   S    
C27   H47   S    
C12   C116  A    
C21   H41   S    
C17   C21   D    
