data_mof_unit_16889.cif
_audit_creation_date              2012-12-10T18:11:37-0500
_audit_creation_method            fapswitch 2.2
_symmetry_space_group_name_H-M    P1
_symmetry_Int_Tables_number       1
_space_group_crystal_system       triclinic
_cell_length_a                    10.4889
_cell_length_b                    12.636658
_cell_length_c                    13.083461
_cell_angle_alpha                 81.867243
_cell_angle_beta                  90.994201
_cell_angle_gamma                 103.314992
_cell_volume                      1670.34622616

loop_
_atom_site_label
_atom_site_type_symbol
_atom_type_description
_atom_site_fract_x
_atom_site_fract_y
_atom_site_fract_z
_atom_type_partial_charge
C1    C     C_R   0.481042 0.438383 0.691342 0.840944
C2    C     C_3   0.064971 0.587219 0.433224 -0.261495
C3    C     C_3   0.989595 0.595949 0.531081 -0.186993
C4    C     C_3   0.878314 0.503589 0.502934 -0.037861
C5    C     C_R   0.391444 0.693205 0.064477 -0.158582
C6    C     C_R   0.498445 0.596745 0.199610 -0.047796
C7    C     C_R   0.509037 0.302461 0.839675 -0.201275
C8    C     C_R   0.524331 0.275862 0.945064 -0.147742
C9    C     C_R   0.507805 0.348365 0.011790 -0.156537
C10   C     C_R   0.468896 0.446891 0.973882 0.076573
C11   C     C_R   0.433275 0.463898 0.869931 0.029247
C12   C     C_R   0.742339 0.501048 0.501794 0.911218
C13   C     C_R   0.463499 0.528696 0.035740 -0.010311
C14   C     C_R   0.401680 0.615699 0.999474 0.052209
C15   C     C_R   0.350493 0.622952 0.899706 0.426701
C16   C     C_R   0.365286 0.546379 0.836327 -0.320533
C17   C     C_R   0.519723 0.526572 0.132809 -0.166788
C18   C     C_R   0.437383 0.682365 0.165114 -0.248401
C19   C     C_R   0.467898 0.398341 0.801473 -0.076361
C20   C     C_R   0.315769 0.086692 0.345947 0.292008
C21   C     C_R   0.652327 0.799415 0.631925 -0.013171
C22   C     C_R   0.679931 0.902452 0.663922 -0.283241
C23   C     C_R   0.512323 0.561257 0.308612 0.877624
C24   C     C_R   0.618383 0.982734 0.616645 -0.207767
C25   C     C_R   0.529052 0.960255 0.536083 0.068604
C26   C     C_R   0.505358 0.853875 0.506051 0.234587
C27   C     C_R   0.464065 0.038934 0.483231 -0.065745
C28   C     C_R   0.377889 0.009406 0.401526 -0.001208
C29   C     C_R   0.360278 0.904913 0.372473 -0.246167
C30   C     C_R   0.420707 0.828263 0.425306 -0.224076
C31   C     C_R   0.484086 0.147153 0.505810 -0.181458
C32   C     C_R   0.354427 0.196528 0.363322 0.509501
C33   C     C_R   0.257543 0.499096 0.498363 0.850501
C34   C     C_3   0.935376 0.414827 0.566894 -0.221747
C35   C     C_3   0.049319 0.507140 0.595105 -0.130272
C36   C     C_3   0.121668 0.497582 0.497393 -0.037373
C37   C     C_3   0.010088 0.404625 0.469171 -0.264314
C38   C     C_3   0.952204 0.494597 0.407065 0.527323
H1    H     H_    0.094047 0.511893 0.672346 0.141396
H2    H     H_    0.522537 0.323854 0.092700 0.162820
H3    H     H_    0.554692 0.201223 0.974728 0.146396
H4    H     H_    0.320863 0.550675 0.761031 0.169488
H5    H     H_    0.301650 0.881833 0.306782 0.180677
H6    H     H_    0.544235 0.175624 0.568396 0.157509
H7    H     H_    0.878039 0.346021 0.621921 0.145043
H8    H     H_    0.642834 0.061072 0.644528 0.137268
H9    H     H_    0.401173 0.749681 0.399889 0.204567
H10   H     H_    0.022237 0.327162 0.444159 0.125318
H11   H     H_    0.121846 0.655883 0.377775 0.132416
H12   H     H_    0.343789 0.759646 0.039176 0.182590
N1    N     N_R   0.432930 0.222190 0.444670 -0.157178
N2    N     N_R   0.566370 0.776980 0.554790 -0.135186
O1    O     O_R   0.467970 0.366730 0.627150 -0.621832
O2    O     O_R   0.510820 0.544830 0.662520 -0.622595
O3    O     O_R   0.664630 0.410960 0.482340 -0.597944
O4    O     O_R   0.707470 0.589060 0.517710 -0.627583
O5    O     O_R   0.489180 0.455170 0.337480 -0.548532
O6    O     O_R   0.532030 0.633270 0.372850 -0.638916
O7    O     O_R   0.292530 0.410940 0.482290 -0.628007
O8    O     O_R   0.335370 0.589040 0.517660 -0.639494
Zn1   Zn    Zn3+2 0.471390 0.381080 0.476380 0.968083
Zn2   Zn    Zn3+2 0.528610 0.618920 0.523620 0.916123
H13   H     H_    0.576046 0.467172 0.160715 0.159919
H14   H     H_    0.533616 0.250159 0.787865 0.145048
O9    O     O_3   0.339801 0.280483 0.286989 -0.584438
C39   C     C_3   0.208544 0.289477 0.275866 0.176171
H15   H     H_    0.201138 0.368775 0.299481 0.134848
H16   H     H_    0.136196 0.224462 0.324039 0.092497
C40   C     C_3   0.172636 0.291838 0.162241 -0.823545
H17   H     H_    0.065613 0.283060 0.153026 0.190343
H18   H     H_    0.224568 0.370855 0.117472 0.245767
H19   H     H_    0.200921 0.223673 0.130123 0.301573
O10   O     O_3   0.230345 0.058998 0.266868 -0.601527
C41   C     C_3   0.106652 0.000628 0.310068 0.081940
H20   H     H_    0.070765 0.044109 0.367898 0.114105
H21   H     H_    0.110294 0.917452 0.349067 0.145225
C42   C     C_3   0.006764 0.986590 0.224487 -0.809622
H22   H     H_    0.039386 0.942359 0.165982 0.258289
H23   H     H_    0.910462 0.938366 0.257313 0.214729
H24   H     H_    0.995070 0.068029 0.186639 0.249996
H25   H     H_    0.698581 0.736353 0.669380 0.146040
H26   H     H_    0.748155 0.919832 0.725717 0.156161
O11   O     O_3   0.888293 0.493231 0.311329 -0.618047
C43   C     C_3   0.965960 0.462461 0.239378 0.080060
H27   H     H_    0.966574 0.374315 0.260238 0.137817
H28   H     H_    0.068164 0.513643 0.235652 0.133957
C44   C     C_3   0.906882 0.477702 0.132828 -0.792751
H29   H     H_    0.902538 0.564913 0.110469 0.259621
H30   H     H_    0.968155 0.454580 0.075165 0.211834
H31   H     H_    0.806288 0.424889 0.133029 0.246097
H32   H     H_    0.976788 0.672894 0.556937 0.155353
H33   H     H_    0.419302 0.737034 0.216936 0.147754
O12   O     O_3   0.279001 0.700611 0.866780 -0.622345
C45   C     C_3   0.351027 0.779934 0.789214 0.105931
H34   H     H_    0.360395 0.743454 0.717908 0.164591
H35   H     H_    0.450470 0.816617 0.816667 0.145232
C46   C     C_3   0.279158 0.871584 0.761893 -0.823832
H36   H     H_    0.268165 0.910154 0.831432 0.254789
H37   H     H_    0.335251 0.935257 0.701761 0.214371
H38   H     H_    0.180612 0.838076 0.731832 0.253792

loop_
_geom_bond_atom_site_label_1
_geom_bond_atom_site_label_2
_ccdc_geom_bond_type
O6    Zn2   S    
C23   O6    A    
C39   H16   S    
C44   H29   S    
O12   C45   S    
C38   O11   S    
C34   C37   S    
O10   C41   S    
C35   C36   S    
N1    Zn1   S    
C43   C44   S    
C46   H36   S    
C7    C8    A    
C42   H22   S    
C11   C19   A    
C37   C38   S    
C41   H21   S    
C22   H26   S    
O8    Zn2   S    
C36   C37   S    
C43   H28   S    
C39   C40   S    
C15   C16   A    
C33   C36   S    
C3    H32   S    
C34   C35   S    
C40   H18   S    
C1    O1    A    
O1    Zn1   S    
C43   H27   S    
C8    C9    A    
C41   C42   S    
C13   C14   A    
C4    C12   S    
C9    C10   A    
C39   H15   S    
C33   O7    A    
C21   C22   A    
C29   H5    S    
C45   H34   S    
C46   H37   S    
C42   H23   S    
C6    C18   A    
C4    C34   S    
O7    Zn1   S    
C1    C19   S    
C31   H6    S    
C27   C31   A    
C30   H9    S    
C8    H3    S    
C41   H20   S    
C5    C18   A    
C20   C28   A    
C45   C46   S    
C25   C26   A    
C9    H2    S    
C40   H19   S    
C35   H1    S    
C1    O2    A    
C32   N1    A    
C29   C30   A    
C2    H11   S    
C26   N2    A    
C11   C16   A    
C2    C38   S    
O11   C43   S    
C3    C35   S    
C34   H7    S    
C24   C25   A    
C37   H10   S    
C45   H35   S    
C5    C14   A    
C12   O4    A    
C21   H25   S    
C26   C30   A    
C33   O8    A    
C7    C19   A    
C44   H30   S    
O4    Zn2   S    
C5    H12   S    
C3    C4    S    
C16   H4    S    
C46   H38   S    
C20   C32   A    
C42   H24   S    
C2    C36   S    
C23   O5    A    
C6    C17   A    
C28   C29   A    
C31   N1    A    
C10   C13   A    
C15   O12   S    
O5    Zn1   S    
C25   C27   A    
O2    Zn2   S    
C13   C17   A    
C18   H33   S    
C2    C3    S    
C24   H8    S    
N2    Zn2   S    
C17   H13   S    
C6    C23   S    
O3    Zn1   S    
C20   O10   S    
C22   C24   A    
C40   H17   S    
C7    H14   S    
C12   O3    A    
C10   C11   A    
O9    C39   S    
C44   H31   S    
C27   C28   A    
C14   C15   A    
C4    C38   S    
C21   N2    A    
C32   O9    S    
