data_mof_unit_26268.cif
_audit_creation_date              2012-12-11T16:51:17-0500
_audit_creation_method            fapswitch 2.2
_symmetry_space_group_name_H-M    P1
_symmetry_Int_Tables_number       1
_space_group_crystal_system       triclinic
_cell_length_a                    24.309829
_cell_length_b                    17.140089
_cell_length_c                    15.630952
_cell_angle_alpha                 90.000272
_cell_angle_beta                  129.379766
_cell_angle_gamma                 89.99985
_cell_volume                      5034.2655809

loop_
_atom_site_label
_atom_site_type_symbol
_atom_type_description
_atom_site_fract_x
_atom_site_fract_y
_atom_site_fract_z
_atom_type_partial_charge
C1    C     C_R   0.851577 0.856199 0.247866 -0.096615
C2    C     C_R   0.148422 0.856198 0.752131 -0.096619
C3    C     C_R   0.351577 0.356199 0.247867 -0.096613
C4    C     C_R   0.648423 0.356199 0.752133 -0.096620
C5    C     C_R   0.911974 0.144439 0.591891 -0.102702
C6    C     C_R   0.088028 0.144439 0.408112 -0.102701
C7    C     C_R   0.411973 0.644439 0.591889 -0.102702
C8    C     C_R   0.588028 0.644440 0.408112 -0.102701
C9    C     C_R   0.862848 0.189570 0.499071 0.068141
C10   C     C_R   0.137155 0.189569 0.500935 0.068136
C11   C     C_R   0.362846 0.689569 0.499067 0.068137
C12   C     C_R   0.637155 0.689569 0.500935 0.068135
C13   C     C_R   0.850589 0.121041 0.131397 0.099113
C14   C     C_R   0.149412 0.121038 0.868605 0.099112
C15   C     C_R   0.350589 0.621040 0.131397 0.099108
C16   C     C_R   0.649411 0.621037 0.868605 0.099113
C17   C     C_R   0.773073 0.842134 0.601220 -0.084203
C18   C     C_R   0.226930 0.842138 0.398782 -0.084217
C19   C     C_R   0.273074 0.342134 0.601220 -0.084209
C20   C     C_R   0.726943 0.342155 0.398792 -0.084221
C21   C     C_R   0.758848 0.860166 0.501656 0.068894
C22   C     C_R   0.241154 0.860169 0.498345 0.068894
C23   C     C_R   0.258848 0.360166 0.501656 0.068893
C24   C     C_R   0.741158 0.360171 0.498352 0.068901
C25   C     C_R   0.689099 0.847730 0.402897 -0.184017
C26   C     C_R   0.310902 0.847731 0.597105 -0.184010
C27   C     C_R   0.189099 0.347730 0.402897 -0.184015
C28   C     C_R   0.810902 0.347723 0.597117 -0.184005
C29   C     C_R   0.142468 0.300594 0.403947 -0.163238
C30   C     C_R   0.857534 0.300586 0.596070 -0.163247
C31   C     C_R   0.642468 0.800593 0.403948 -0.163239
C32   C     C_R   0.357533 0.800593 0.596056 -0.163244
C33   C     C_R   0.165985 0.265307 0.503544 0.024097
C34   C     C_R   0.834023 0.265310 0.496471 0.024111
C35   C     C_R   0.665985 0.765307 0.503544 0.024096
C36   C     C_R   0.334017 0.765308 0.496460 0.024100
C37   C     C_R   0.227037 0.296407 0.602704 0.052017
C38   C     C_R   0.772980 0.296425 0.397314 0.052022
C39   C     C_R   0.727037 0.796408 0.602704 0.052011
C40   C     C_R   0.272966 0.796409 0.397300 0.052020
C41   C     C_3   0.786576 0.761474 0.713090 0.336780
C42   C     C_3   0.213428 0.761474 0.286915 0.336776
C43   C     C_3   0.286576 0.261472 0.713089 0.336773
C44   C     C_3   0.713448 0.261515 0.286905 0.336794
C45   C     C_R   0.114830 0.898386 0.408721 -0.051138
C46   C     C_R   0.885171 0.898385 0.591279 -0.051127
C47   C     C_R   0.614830 0.398386 0.408721 -0.051209
C48   C     C_R   0.385171 0.398385 0.591279 -0.051124
C49   C     C_3   0.837329 0.810706 0.710174 0.178421
C50   C     C_3   0.162674 0.810713 0.289824 0.178427
C51   C     C_3   0.337330 0.310705 0.710174 0.178426
C52   C     C_3   0.662692 0.310754 0.289808 0.178417
C53   C     C_2   0.136773 0.735789 0.834517 -0.196877
C54   C     C_2   0.863224 0.735792 0.165474 -0.196855
C55   C     C_2   0.636775 0.235792 0.834525 -0.196931
C56   C     C_2   0.363226 0.235791 0.165477 -0.196870
C57   C     C_2   0.193305 0.699546 0.856355 -0.138423
C58   C     C_2   0.806696 0.699545 0.143644 -0.138421
C59   C     C_2   0.693304 0.199545 0.856356 -0.138408
C60   C     C_2   0.306696 0.199545 0.143644 -0.138420
C61   C     C_2   0.805119 0.147085 0.015541 -0.191463
C62   C     C_2   0.194882 0.147080 0.984462 -0.191462
C63   C     C_2   0.305119 0.647083 0.015540 -0.191459
C64   C     C_2   0.694881 0.647080 0.984462 -0.191464
C65   C     C_2   0.733896 0.145252 0.949090 -0.075246
C66   C     C_2   0.266105 0.145250 0.050912 -0.075208
C67   C     C_2   0.233896 0.645252 0.949089 -0.075217
C68   C     C_2   0.766104 0.645250 0.050912 -0.075202
C69   C     C_R   0.188859 0.896179 0.591836 -0.171197
C70   C     C_R   0.811141 0.896178 0.408163 -0.171199
C71   C     C_R   0.688859 0.396179 0.591837 -0.171181
C72   C     C_R   0.311141 0.396178 0.408163 -0.171201
C73   C     C_R   0.056275 0.855888 0.752607 -0.149602
C74   C     C_R   0.943724 0.855889 0.247390 -0.149611
C75   C     C_R   0.556276 0.355890 0.752609 -0.149615
C76   C     C_R   0.443724 0.355889 0.247391 -0.149619
C77   C     C_R   0.885909 0.812378 0.219535 0.143726
C78   C     C_R   0.114090 0.812376 0.780459 0.143736
C79   C     C_R   0.385909 0.312377 0.219537 0.143729
C80   C     C_R   0.614091 0.312378 0.780463 0.143731
C81   C     C_R   0.183568 0.880643 0.500037 0.079625
C82   C     C_R   0.816433 0.880641 0.499963 0.079633
C83   C     C_R   0.683569 0.380643 0.500038 0.079613
C84   C     C_R   0.316433 0.380642 0.499963 0.079631
C85   C     C_R   0.841143 0.146065 0.407944 -0.193885
C86   C     C_R   0.158859 0.146063 0.592060 -0.193901
C87   C     C_R   0.341142 0.646063 0.407942 -0.193903
C88   C     C_R   0.658859 0.646063 0.592060 -0.193899
C89   C     C_R   0.922550 0.104827 0.196530 -0.273125
C90   C     C_R   0.077450 0.104826 0.803471 -0.273131
C91   C     C_R   0.422550 0.604827 0.196529 -0.273130
C92   C     C_R   0.577450 0.604826 0.803471 -0.273134
C93   C     C_R   0.168786 0.101718 0.805020 0.497192
C94   C     C_R   0.831215 0.101720 0.194981 0.497178
C95   C     C_R   0.668786 0.601717 0.805020 0.497189
C96   C     C_R   0.331215 0.601719 0.194980 0.497196
H1    H     H_    0.804512 0.841274 0.237281 0.090924
H2    H     H_    0.195486 0.841273 0.762714 0.090924
H3    H     H_    0.304513 0.341274 0.237283 0.090923
H4    H     H_    0.695487 0.341274 0.762717 0.090923
H5    H     H_    0.092584 0.284056 0.325385 0.120917
H6    H     H_    0.907412 0.284039 0.674635 0.120913
H7    H     H_    0.592584 0.784056 0.325385 0.120916
H8    H     H_    0.407415 0.784055 0.674619 0.120917
H9    H     H_    0.793453 0.697384 0.710911 0.045805
H10   H     H_    0.206550 0.697385 0.289098 0.045793
H11   H     H_    0.293452 0.197382 0.710906 0.045803
H12   H     H_    0.706554 0.197426 0.289054 0.045788
H13   H     H_    0.866544 0.856119 0.775678 0.122095
H14   H     H_    0.133466 0.856126 0.224320 0.122089
H15   H     H_    0.366543 0.356118 0.775679 0.122094
H16   H     H_    0.633500 0.356184 0.224324 0.122092
H17   H     H_    0.705801 0.115105 0.971743 0.201072
H18   H     H_    0.294200 0.115105 0.028257 0.201064
H19   H     H_    0.205801 0.615107 0.971742 0.201067
H20   H     H_    0.794200 0.615105 0.028257 0.201064
H21   H     H_    0.217919 0.720575 0.822289 0.133143
H22   H     H_    0.782085 0.720573 0.177715 0.133141
H23   H     H_    0.717915 0.220572 0.822284 0.133147
H24   H     H_    0.282084 0.220573 0.177714 0.133142
H25   H     H_    0.831217 0.177254 0.988743 0.125713
H26   H     H_    0.168784 0.177246 0.011261 0.125710
H27   H     H_    0.331217 0.677250 0.988742 0.125710
H28   H     H_    0.668784 0.677247 0.011261 0.125711
H29   H     H_    0.112537 0.713866 0.868946 0.130554
H30   H     H_    0.887457 0.713870 0.131039 0.130550
H31   H     H_    0.612543 0.213872 0.868962 0.130569
H32   H     H_    0.387459 0.213869 0.131043 0.130549
H33   H     H_    0.095204 0.907548 0.325257 0.108381
H34   H     H_    0.904796 0.907547 0.674743 0.108364
H35   H     H_    0.595206 0.407549 0.325259 0.108440
H36   H     H_    0.404796 0.407547 0.674743 0.108363
H37   H     H_    0.237315 0.900669 0.676519 0.094134
H38   H     H_    0.762685 0.900668 0.323481 0.094135
H39   H     H_    0.737314 0.400670 0.676520 0.094130
H40   H     H_    0.262685 0.400668 0.323481 0.094134
H41   H     H_    0.018138 0.838545 0.763091 0.142575
H42   H     H_    0.981861 0.838547 0.236905 0.142577
H43   H     H_    0.518139 0.338547 0.763094 0.142577
H44   H     H_    0.481861 0.338546 0.236907 0.142583
H45   H     H_    0.808113 0.165488 0.323674 0.161543
H46   H     H_    0.191891 0.165484 0.676330 0.161557
H47   H     H_    0.308111 0.665485 0.323672 0.161570
H48   H     H_    0.691891 0.665484 0.676331 0.161551
H49   H     H_    0.952774 0.101958 0.167542 0.127668
H50   H     H_    0.047227 0.101955 0.832459 0.127669
H51   H     H_    0.452774 0.601957 0.167542 0.127671
H52   H     H_    0.547226 0.601956 0.832459 0.127669
H53   H     H_    0.940741 0.159842 0.677531 0.091850
H54   H     H_    0.059262 0.159844 0.322472 0.091851
H55   H     H_    0.440739 0.659844 0.677529 0.091852
H56   H     H_    0.559262 0.659845 0.322473 0.091851
H57   H     H_    0.673057 0.865814 0.323687 0.119734
H58   H     H_    0.326942 0.865815 0.676315 0.119733
H59   H     H_    0.173057 0.365815 0.323687 0.119733
H60   H     H_    0.826938 0.365797 0.676328 0.119730
N1    N     N_R   0.888400 0.921830 0.294620 -0.050337
N2    N     N_R   0.111600 0.921830 0.705380 -0.050337
N3    N     N_R   0.388400 0.421830 0.294620 -0.050338
N4    N     N_R   0.611600 0.421830 0.705380 -0.050336
N5    N     N_R   0.079940 0.922160 0.443410 -0.049010
N6    N     N_R   0.920060 0.922160 0.556590 -0.049011
N7    N     N_R   0.579940 0.422160 0.443410 -0.049007
N8    N     N_R   0.420060 0.422160 0.556590 -0.049010
N9    N     N_R   0.125650 0.922400 0.556620 -0.041901
N10   N     N_R   0.874350 0.922400 0.443380 -0.041901
N11   N     N_R   0.625650 0.422400 0.556620 -0.041899
N12   N     N_R   0.374350 0.422400 0.443380 -0.041901
N13   N     N_R   0.054230 0.922730 0.705400 -0.044629
N14   N     N_R   0.945770 0.922730 0.294600 -0.044627
N15   N     N_R   0.554230 0.422730 0.705400 -0.044627
N16   N     N_R   0.445770 0.422730 0.294600 -0.044624
N17   N     N_R   0.873790 0.077030 0.443380 -0.049797
N18   N     N_R   0.126210 0.077030 0.556620 -0.049796
N19   N     N_R   0.373790 0.577030 0.443380 -0.049797
N20   N     N_R   0.626210 0.577030 0.556620 -0.049795
N21   N     N_R   0.945200 0.076700 0.294600 -0.056114
N22   N     N_R   0.054800 0.076700 0.705400 -0.056114
N23   N     N_R   0.445200 0.576700 0.294600 -0.056114
N24   N     N_R   0.554800 0.576700 0.705400 -0.056113
N25   N     N_R   0.111030 0.077600 0.705380 -0.100678
N26   N     N_R   0.888970 0.077600 0.294620 -0.100676
N27   N     N_R   0.611030 0.577600 0.705380 -0.100677
N28   N     N_R   0.388970 0.577600 0.294620 -0.100680
N29   N     N_R   0.919490 0.077280 0.556590 -0.037979
N30   N     N_R   0.080510 0.077280 0.443410 -0.037978
N31   N     N_R   0.419490 0.577280 0.556590 -0.037978
N32   N     N_R   0.580510 0.577280 0.443410 -0.037977
Ni1   Ni    Ni4+2 0.882160 0.999430 0.370180 0.211596
Ni2   Ni    Ni4+2 0.117840 0.999430 0.629820 0.211595
Ni3   Ni    Ni4+2 0.382160 0.499430 0.370180 0.211594
Ni4   Ni    Ni4+2 0.617840 0.499430 0.629820 0.211596
Ni5   Ni    Ni4+2 0.012460 0.999430 0.370180 0.208923
Ni6   Ni    Ni4+2 0.987540 0.999430 0.629820 0.208922
Ni7   Ni    Ni4+2 0.512460 0.499430 0.370180 0.208925
Ni8   Ni    Ni4+2 0.487540 0.499430 0.629820 0.208920
O1    O     O_3   0.781886 0.786964 0.794174 -0.604622
C97   C     C_3   0.837751 0.753949 0.897219 -0.186955
H61   H     H_    0.890694 0.771422 0.924046 0.129384
H62   H     H_    0.833428 0.689334 0.895232 0.173026
H63   H     H_    0.833833 0.776273 0.959650 0.171570
O2    O     O_3   0.218127 0.786956 0.205837 -0.604641
C98   C     C_3   0.162264 0.753942 0.102791 -0.186833
H64   H     H_    0.109323 0.771483 0.075917 0.129370
H65   H     H_    0.166544 0.689321 0.104800 0.172953
H66   H     H_    0.166228 0.776208 0.040384 0.171581
O3    O     O_3   0.281885 0.286959 0.794172 -0.604630
C99   C     C_3   0.337750 0.253943 0.897216 -0.186911
H67   H     H_    0.390692 0.271434 0.924055 0.129391
H68   H     H_    0.333437 0.189327 0.895222 0.173005
H69   H     H_    0.333820 0.276251 0.959642 0.171572
O4    O     O_3   0.718174 0.287016 0.205862 -0.604642
C100  C     C_3   0.662319 0.254022 0.102793 -0.186829
H70   H     H_    0.609367 0.271580 0.075889 0.129377
H71   H     H_    0.666589 0.189392 0.104789 0.172961
H72   H     H_    0.666315 0.276297 0.040413 0.171599
O5    O     O_3   0.882433 0.764710 0.703141 -0.772202
H73   H     H_    0.852695 0.729646 0.637939 0.322241
O6    O     O_3   0.117565 0.764722 0.296847 -0.772206
H74   H     H_    0.147298 0.729658 0.362050 0.322240
O7    O     O_3   0.382433 0.264711 0.703140 -0.772197
H75   H     H_    0.352696 0.229647 0.637937 0.322241
O8    O     O_3   0.617562 0.264762 0.296784 -0.772219
H76   H     H_    0.647280 0.229686 0.361976 0.322239
O9    O     O_3   0.237080 0.086278 0.845861 -0.819270
H77   H     H_    0.234044 0.056207 0.788826 0.304351
O10   O     O_3   0.762919 0.086287 0.154141 -0.819275
H78   H     H_    0.765954 0.056213 0.211173 0.304355
O11   O     O_3   0.737080 0.586277 0.845861 -0.819274
H79   H     H_    0.734044 0.556206 0.788826 0.304352
O12   O     O_3   0.262919 0.586283 0.154140 -0.819261
H80   H     H_    0.265955 0.556211 0.211172 0.304349

loop_
_geom_bond_atom_site_label_1
_geom_bond_atom_site_label_2
_ccdc_geom_bond_type
C20   C38   A    
C25   C31   A    
C98   H64   S    
C90   N22   A    
C26   C32   A    
C48   C84   A    
C55   C59   D    
N31   Ni8   S    
C92   H52   S    
C1    C77   A    
C95   O11   S    
N30   Ni5   S    
C19   C23   A    
O8    H76   S    
C76   C79   A    
C50   H14   S    
N29   Ni6   S    
C3    C79   A    
N27   Ni4   S    
C94   N26   A    
C91   H51   S    
C39   C41   S    
N23   Ni7   S    
C100  H70   S    
C8    N32   A    
C7    C11   A    
N11   Ni4   S    
C74   H42   S    
C69   N9    A    
N17   N29   A    
O7    H75   S    
C56   C79   S    
N21   Ni5   S    
C19   C51   S    
N5    N9    A    
C32   C36   A    
C49   H13   S    
C11   C36   S    
C8    H56   S    
C24   C83   S    
C57   C67   S    
C4    C80   A    
N2    Ni2   S    
N19   Ni3   S    
C72   H40   S    
C27   C29   A    
C52   H16   S    
N21   N26   A    
C14   C62   S    
C29   C33   A    
C50   O6    S    
C58   H22   S    
C5    H53   S    
C61   H25   S    
C17   C39   A    
C96   O12   S    
C76   N16   A    
C67   H19   S    
C14   C90   A    
C36   C40   A    
C45   N5    A    
C19   C37   A    
C9    C85   A    
C46   C82   A    
C93   N25   A    
N5    Ni5   S    
N32   Ni7   S    
C11   C87   A    
C99   H67   S    
C74   C77   A    
C91   N23   A    
C85   N17   A    
C73   C78   A    
C32   H8    S    
C97   H61   S    
N26   Ni1   S    
C47   C83   A    
C62   H26   S    
C92   N24   A    
C75   C80   A    
C14   C93   A    
N24   Ni8   S    
N24   N27   A    
C8    C12   A    
C53   H29   S    
C54   C77   S    
C47   N7    A    
C44   C52   S    
C40   C42   S    
C89   H49   S    
C60   C66   S    
C71   N11   A    
C3    N3    A    
C72   N12   A    
N6    Ni6   S    
C96   N28   A    
C66   H18   S    
C41   C49   S    
C38   C44   S    
N20   N32   A    
C71   C83   A    
C44   H12   S    
C27   H59   S    
C59   H23   S    
C98   H66   S    
C63   C67   D    
O2    C98   S    
C30   C34   A    
C43   O3    S    
O3    C99   S    
C22   C81   S    
N3    Ni3   S    
N8    N12   A    
N4    Ni4   S    
C41   O1    S    
C5    N29   A    
C23   C84   S    
C17   C49   S    
C15   C96   A    
C62   C66   D    
C34   C38   A    
O5    H73   S    
C64   H28   S    
C25   H57   S    
C17   C21   A    
C56   C60   D    
C49   O5    S    
C86   N18   A    
C31   H7    S    
C37   C43   S    
C35   C39   A    
C5    C9    A    
O11   H79   S    
C2    C78   A    
C3    H3    S    
N1    N14   A    
C98   H65   S    
N25   Ni2   S    
O10   H78   S    
C95   N27   A    
N7    Ni7   S    
N7    N11   A    
C2    N2    A    
C12   C88   A    
C28   H60   S    
N9    Ni2   S    
C30   H6    S    
C97   H63   S    
O9    H77   S    
N28   Ni3   S    
C29   H5    S    
C1    N1    A    
C43   H11   S    
C21   C82   S    
C12   C35   S    
N12   Ni3   S    
C72   C84   A    
C41   H9    S    
C94   O10   S    
C68   H20   S    
C7    H55   S    
C58   C68   S    
N20   Ni4   S    
C42   C50   S    
C16   C92   A    
C23   C27   A    
C89   N21   A    
C4    H4    S    
C26   H58   S    
C75   N15   A    
C9    C34   S    
C31   C35   A    
C42   O2    S    
C76   H44   S    
C1    H1    S    
C64   C68   D    
N18   Ni2   S    
C18   C50   S    
C86   H46   S    
C57   H21   S    
N23   N28   A    
C54   C58   D    
C100  H72   S    
C7    N31   A    
O6    H74   S    
C18   C40   A    
C21   C25   A    
C10   C86   A    
C16   C95   A    
C51   H15   S    
N3    N16   A    
N22   Ni6   S    
C13   C89   A    
C18   C22   A    
C65   H17   S    
C45   C81   A    
C24   C28   A    
C55   H31   S    
N15   Ni8   S    
C53   C57   D    
C46   H34   S    
N14   Ni5   S    
C63   H27   S    
N8    Ni8   S    
N2    N13   A    
N13   Ni6   S    
C48   N8    A    
C69   H37   S    
C87   N19   A    
C6    N30   A    
C6    H54   S    
C88   N20   A    
C13   C94   A    
N10   Ni1   S    
C87   H47   S    
N19   N31   A    
C70   N10   A    
C53   C78   S    
C100  H71   S    
C28   C30   A    
C90   H50   S    
C99   H68   S    
C75   H43   S    
C59   C65   S    
C71   H39   S    
C55   C80   S    
C54   H30   S    
C43   C51   S    
C4    N4    A    
C73   H41   S    
C51   O7    S    
C99   H69   S    
C45   H33   S    
N17   Ni1   S    
N4    N15   A    
C88   H48   S    
C33   C37   A    
C60   H24   S    
C10   C33   S    
C56   H32   S    
C61   C65   D    
O1    C97   S    
C70   C82   A    
N1    Ni1   S    
C74   N14   A    
N22   N25   A    
C69   C81   A    
C6    C10   A    
C15   C91   A    
C42   H10   S    
C93   O9    S    
C85   H45   S    
N6    N10   A    
C13   C61   S    
O4    C100  S    
C2    H2    S    
C52   O8    S    
C20   C52   S    
C22   C26   A    
C47   H35   S    
O12   H80   S    
C70   H38   S    
C15   C63   S    
C48   H36   S    
N16   Ni7   S    
C97   H62   S    
C16   C64   S    
C44   O4    S    
C73   N13   A    
C20   C24   A    
N18   N30   A    
C46   N6    A    
