data_mof_unit_36358.cif
_audit_creation_date              2012-12-10T18:11:42-0500
_audit_creation_method            fapswitch 2.2
_symmetry_space_group_name_H-M    P1
_symmetry_Int_Tables_number       1
_space_group_crystal_system       triclinic
_cell_length_a                    10.489146
_cell_length_b                    12.689655
_cell_length_c                    13.065808
_cell_angle_alpha                 81.112362
_cell_angle_beta                  92.473198
_cell_angle_gamma                 102.719054
_cell_volume                      1675.98738848

loop_
_atom_site_label
_atom_site_type_symbol
_atom_type_description
_atom_site_fract_x
_atom_site_fract_y
_atom_site_fract_z
_atom_type_partial_charge
C1    C     C_R   0.482842 0.438437 0.691262 0.895009
C2    C     C_3   0.052350 0.516424 0.592460 0.449885
C3    C     C_3   0.939657 0.420319 0.574867 -0.260957
C4    C     C_3   0.877503 0.502200 0.501955 -0.135300
C5    C     C_R   0.696191 0.699606 0.063715 0.346291
C6    C     C_R   0.547315 0.600365 0.199975 -0.186924
C7    C     C_R   0.332637 0.327420 0.827270 0.356166
C8    C     C_R   0.267679 0.335187 0.915215 -0.157931
C9    C     C_R   0.319476 0.414685 0.977081 0.318925
C10   C     C_R   0.450571 0.476160 0.961477 0.032723
C11   C     C_R   0.516285 0.468385 0.871828 -0.000675
C12   C     C_R   0.741968 0.500849 0.501225 0.910607
C13   C     C_R   0.517778 0.547568 0.029061 0.080271
C14   C     C_R   0.635557 0.623889 0.998276 -0.007094
C15   C     C_R   0.696092 0.615952 0.907579 -0.106420
C16   C     C_R   0.641857 0.534509 0.849616 -0.133689
C17   C     C_R   0.480458 0.534168 0.131407 -0.209857
C18   C     C_R   0.651377 0.688107 0.165365 0.370659
C19   C     C_R   0.451649 0.401601 0.800472 -0.192430
C20   C     C_R   0.262548 0.079126 0.403356 -0.223762
C21   C     C_R   0.672376 0.802376 0.616881 0.050545
C22   C     C_R   0.711181 0.906693 0.643246 -0.201720
C23   C     C_R   0.519817 0.561655 0.309024 0.981854
C24   C     C_R   0.641257 0.985896 0.605090 -0.133168
C25   C     C_R   0.530577 0.960643 0.540874 -0.028103
C26   C     C_R   0.493020 0.852675 0.516158 0.171150
C27   C     C_R   0.458003 0.039352 0.497151 -0.007408
C28   C     C_R   0.334886 0.004188 0.450060 0.111957
C29   C     C_R   0.290607 0.895654 0.440129 -0.261460
C30   C     C_R   0.377825 0.827311 0.454406 0.380754
C31   C     C_R   0.503906 0.152224 0.494290 0.032370
C32   C     C_R   0.314865 0.189130 0.400412 0.059041
C33   C     C_R   0.257831 0.498873 0.499384 0.980139
C34   C     C_3   0.946908 0.482675 0.408882 0.458389
C35   C     C_3   0.011170 0.400657 0.480516 -0.212257
C36   C     C_3   0.121932 0.497055 0.499236 -0.136876
C37   C     C_3   0.059346 0.578724 0.426408 -0.224719
C38   C     C_3   0.988125 0.598471 0.520742 -0.236777
H1    H     H_    0.408568 0.462973 0.162423 0.215337
N1    N     N_R   0.432930 0.222190 0.444670 -0.109826
N2    N     N_R   0.566370 0.776980 0.554790 -0.112497
O1    O     O_R   0.467970 0.366730 0.627150 -0.572577
O2    O     O_R   0.510820 0.544830 0.662520 -0.614331
O3    O     O_R   0.664630 0.410960 0.482340 -0.610719
O4    O     O_R   0.707470 0.589060 0.517710 -0.628537
O5    O     O_R   0.489180 0.455170 0.337480 -0.624272
O6    O     O_R   0.532030 0.633270 0.372850 -0.516494
O7    O     O_R   0.292530 0.410940 0.482290 -0.621190
O8    O     O_R   0.335370 0.589040 0.517660 -0.578741
Zn1   Zn    Zn3+2 0.471390 0.381080 0.476380 1.007715
Zn2   Zn    Zn3+2 0.528610 0.618920 0.523620 1.035623
H2    H     H_    0.023884 0.320637 0.463224 0.194165
Cl1   Cl    Cl    0.248438 0.237637 0.744189 -0.550195
Cl2   Cl    Cl    0.203821 0.447711 0.054496 -0.516327
H3    H     H_    0.169659 0.286564 0.929422 0.223979
H4    H     H_    0.697007 0.526358 0.784099 0.141466
H5    H     H_    0.259214 0.248582 0.367086 0.149172
H6    H     H_    0.199694 0.871350 0.398248 0.196864
H7    H     H_    0.168183 0.052995 0.367275 0.171933
H8    H     H_    0.594522 0.186552 0.530680 0.121766
H9    H     H_    0.726874 0.740796 0.646292 0.131405
Cl3   Cl    Cl    0.872913 0.462010 0.286104 -0.525547
H10   H     H_    0.673386 0.065269 0.629023 0.148320
H11   H     H_    0.795344 0.926129 0.693301 0.183405
Cl4   Cl    Cl    0.364148 0.758554 0.347564 -0.570397
H12   H     H_    0.107821 0.641824 0.363634 0.234198
H13   H     H_    0.975672 0.678607 0.537925 0.192649
Cl5   Cl    Cl    0.126610 0.537752 0.714994 -0.558078
H14   H     H_    0.887063 0.356946 0.635992 0.185122
Cl6   Cl    Cl    0.737717 0.774650 0.250975 -0.468720
H15   H     H_    0.789536 0.667871 0.883765 0.201094
Cl7   Cl    Cl    0.833403 0.804321 0.022069 -0.484975

loop_
_geom_bond_atom_site_label_1
_geom_bond_atom_site_label_2
_ccdc_geom_bond_type
C18   Cl6   S    
C34   C37   S    
C35   C36   S    
C7    C8    A    
C11   C19   A    
C29   C30   A    
C36   C37   S    
C3    H14   S    
C5    Cl7   S    
C2    Cl5   S    
O4    Zn2   S    
C33   O8    A    
C15   C16   A    
C34   Cl3   S    
C33   C36   S    
C31   N1    A    
C34   C35   S    
C17   H1    S    
O3    Zn1   S    
C1    O2    A    
C8    C9    A    
O8    Zn2   S    
C4    C12   S    
C9    C10   A    
C21   H9    S    
O7    Zn1   S    
C23   O5    A    
C21   C22   A    
C32   H5    S    
C8    H3    S    
C6    C18   A    
C4    C34   S    
C1    C19   S    
C23   O6    A    
C27   C31   A    
C24   C25   A    
O6    Zn2   S    
C5    C18   A    
C20   C28   A    
C25   C26   A    
C31   H8    S    
C16   H4    S    
C37   C38   S    
C11   C16   A    
C2    C38   S    
C3    C35   S    
C37   H12   S    
C29   H6    S    
C20   H7    S    
C5    C14   A    
O1    Zn1   S    
C21   N2    A    
C4    C38   S    
C26   C30   A    
C24   H10   S    
C7    C19   A    
C22   C24   A    
C7    Cl1   S    
C3    C4    S    
C35   H2    S    
C20   C32   A    
C2    C36   S    
C6    C17   A    
C28   C29   A    
C12   O4    A    
C10   C13   A    
C25   C27   A    
C15   H15   S    
O5    Zn1   S    
C13   C17   A    
C2    C3    S    
C12   O3    A    
O2    Zn2   S    
N1    Zn1   S    
C6    C23   S    
C32   N1    A    
C30   Cl4   S    
C10   C11   A    
C22   H11   S    
C1    O1    A    
C38   H13   S    
C27   C28   A    
C33   O7    A    
C14   C15   A    
C9    Cl2   S    
C13   C14   A    
N2    Zn2   S    
C26   N2    A    
