data_mof_unit_53522.cif
_audit_creation_date              2013-03-05T16:12:20-0500
_audit_creation_method            fapswitch 2.2
_symmetry_space_group_name_H-M    P1
_symmetry_Int_Tables_number       1
_space_group_crystal_system       triclinic
_cell_length_a                    8.328289
_cell_length_b                    16.466145
_cell_length_c                    26.96158
_cell_angle_alpha                 72.69812
_cell_angle_beta                  96.198624
_cell_angle_gamma                 96.816728
_cell_volume                      3494.79972733

loop_
_atom_site_label
_atom_site_type_symbol
_atom_site_description
_atom_site_fract_x
_atom_site_fract_y
_atom_site_fract_z
_atom_type_partial_charge
P1    P     P_3+3 0.610630 0.953360 0.619150 0.561312
O1    O     O_2   0.431310 0.922990 0.623550 -0.364409
O2    O     O_3   0.663280 0.983100 0.563360 -0.352639
O3    O     O_3   0.126250 0.812630 0.574830 -0.397732
O4    O     O_2   0.305068 0.761524 0.659421 -0.312865
O5    O     O_3   0.656269 0.043529 0.643319 -0.564840
O6    O     O_3   0.045895 0.661706 0.653656 -0.529946
H1    H     H_    0.182780 0.653743 0.594983 0.179116
C1    C     C_3   0.038828 0.536646 0.626431 -0.329936
H2    H     H_    0.148616 0.510055 0.649905 0.193699
P2    P     P_3+3 0.057260 0.861390 0.437850 0.498535
P3    P     P_3+3 0.495108 0.701956 0.527988 0.479033
O7    O     O_2   0.229950 0.835370 0.450810 -0.312792
O8    O     O_3   0.517580 0.797570 0.545130 -0.349453
O9    O     O_2   0.333748 0.699481 0.494253 -0.370858
O10   O     O_3   0.056301 0.905851 0.370236 -0.561800
O11   O     O_3   0.458532 0.617289 0.584067 -0.567768
C2    C     C_3   0.604048 0.598215 0.614771 1.020778
H3    H     H_    0.698168 0.588020 0.591351 -0.091468
C3    C     C_3   0.570632 0.514631 0.657164 -0.789215
H4    H     H_    0.470467 0.519721 0.679862 0.245917
H5    H     H_    0.535432 0.461722 0.639318 0.212855
C4    C     C_3   0.667514 0.939012 0.335043 0.473359
H6    H     H_    0.782946 0.943295 0.358606 0.056482
C5    C     C_3   0.677910 0.997751 0.279116 0.004838
H7    H     H_    0.740719 0.060478 0.280008 0.139757
H8    H     H_    0.752450 0.970881 0.257004 0.094067
Ba1   Ba    Ba6+2 0.337820 0.939830 0.518500 1.635423
C6    C     C_3   0.540219 0.053560 0.674941 0.877189
H9    H     H_    0.424742 0.067717 0.651207 0.020808
C7    C     C_3   0.600838 0.127787 0.697872 -0.356191
H10   H     H_    0.702232 0.108478 0.727919 0.188965
H11   H     H_    0.501105 0.142402 0.717176 0.138990
C8    C     C_3   0.122985 0.990887 0.358557 0.377874
H12   H     H_    0.242466 0.995544 0.380255 0.126770
H13   H     H_    0.040905 0.031218 0.368422 0.118983
C9    C     C_3   0.144403 0.023430 0.300422 -0.904845
H14   H     H_    0.235625 0.988097 0.290474 0.305821
H15   H     H_    0.184549 0.092536 0.288946 0.232178
H16   H     H_    0.028081 0.013782 0.277916 0.229193
P4    P     P_3+3 0.579040 0.046590 0.380840 0.504428
O12   O     O_2   0.758370 0.077020 0.376420 -0.411997
O13   O     O_3   0.526390 0.016840 0.436620 -0.355662
O14   O     O_3   0.063420 0.187310 0.425160 -0.357949
O15   O     O_3   0.538339 0.954530 0.359398 -0.526072
P5    P     P_3+3 0.692149 0.305416 0.463232 0.502213
O16   O     O_3   0.173250 0.067890 0.537260 -0.386346
O17   O     O_3   0.672100 0.202370 0.454860 -0.360602
O18   O     O_2   0.841394 0.308567 0.502238 -0.344382
O19   O     O_3   0.743983 0.382298 0.405636 -0.545675
Ba2   Ba    Ba6+2 0.851970 0.060110 0.481480 1.615201
P6    P     P_3+3 0.124307 0.768584 0.641247 0.512733
C10   C     C_3   0.061328 0.633625 0.610272 0.361404
H17   H     H_    0.966902 0.659627 0.579043 0.037352
H18   H     H_    0.932829 0.513033 0.649996 0.194896
O20   O     O_3   0.016420 0.932050 0.462720 -0.413208
C11   C     C_3   0.075090 0.035964 0.649993 0.381928
H19   H     H_    0.958867 0.028280 0.626738 0.132484
H20   H     H_    0.156067 0.988350 0.647952 0.062659
C12   C     C_3   0.037220 0.020105 0.706243 -0.908610
H21   H     H_    0.959067 0.068662 0.708664 0.283040
H22   H     H_    0.972429 0.955939 0.721054 0.226444
H23   H     H_    0.150842 0.024510 0.731243 0.238286
P7    P     P_3+3 0.142125 0.151096 0.564576 0.497722
O21   O     O_2   0.959730 0.164640 0.549160 -0.308719
O22   O     O_3   0.154238 0.118177 0.632636 -0.561362
H24   H     H_    0.680257 0.499533 0.684267 0.231416
C13   C     C_3   0.657149 0.359034 0.363690 0.255212
H25   H     H_    0.698518 0.299128 0.360476 0.103689
H26   H     H_    0.524699 0.349817 0.368422 0.070329
C14   C     C_3   0.689505 0.429562 0.313407 0.142631
H27   H     H_    0.656110 0.403078 0.280198 0.123574
H28   H     H_    0.820268 0.451988 0.311690 0.116888
P8    P     P_3+3 0.075992 0.242832 0.359418 0.441045
C15   C     C_3   0.163619 0.394311 0.367988 0.946630
O23   O     O_2   0.938286 0.204292 0.327631 -0.417671
O24   O     O_3   0.024697 0.345455 0.353655 -0.575250
H29   H     H_    0.244522 0.354777 0.399197 -0.013918
H30   H     H_    0.221459 0.502462 0.399350 0.232497
C16   C     C_3   0.112864 0.461819 0.390203 -0.908668
H31   H     H_    0.052260 0.430449 0.426679 0.267090
H32   H     H_    0.029253 0.503608 0.361813 0.238247
C17   C     C_R   0.509825 0.269968 0.170099 0.536251
O25   O     O_2   0.508639 0.192303 0.182176 -0.544674
N1    N     N_R   0.464508 0.308266 0.205223 -0.175728
C18   C     C_R   0.461912 0.396829 0.190084 0.532531
C19   C     C_2   0.289621 0.272998 0.278356 -0.136317
C20   C     C_3   0.280517 0.243585 0.336730 0.149202
C21   C     C_1   0.478632 0.142621 0.340844 0.276115
C22   C     C_2   0.521902 0.188383 0.293059 -0.175416
C23   C     C_2   0.419689 0.256668 0.257823 0.067384
C24   C     C_R   0.557613 0.409650 0.104998 -0.135253
C25   C     C_R   0.554528 0.319742 0.119679 -0.038708
C26   C     C_R   0.596331 0.281145 0.083510 -0.079619
C27   C     C_R   0.512059 0.448795 0.140715 -0.160417
C28   C     C_2   0.361129 0.163114 0.363018 -0.496209
H33   H     H_    0.638054 0.181973 0.280815 0.169601
H34   H     H_    0.596822 0.212381 0.093537 0.167569
C29   C     C_2   0.850223 0.849651 0.641352 -0.480487
C30   C     C_R   0.677350 0.470631 0.965837 0.033881
C31   C     C_R   0.671672 0.601366 0.991789 0.075397
C32   C     C_R   0.696040 0.561267 0.953620 0.081814
C33   C     C_R   0.694998 0.434190 0.925503 -0.194975
C34   C     C_R   0.731472 0.484674 0.875576 -0.071850
C35   C     C_R   0.754349 0.574041 0.863390 -0.081182
C36   C     C_R   0.738877 0.612443 0.902685 -0.058113
C37   C     C_R   0.765817 0.702104 0.891031 -0.064009
C38   C     C_R   0.806038 0.752051 0.840413 0.564087
N2    N     N_R   0.812532 0.714131 0.801245 -0.166638
C39   C     C_R   0.789652 0.625852 0.812535 0.575553
C40   C     C_2   0.982400 0.774615 0.728516 -0.162987
C41   C     C_3   0.010431 0.827670 0.673216 0.154550
C42   C     C_1   0.724079 0.862376 0.663382 0.231083
C43   C     C_2   0.701303 0.814365 0.713288 0.217929
C44   C     C_2   0.836996 0.767327 0.747805 0.080242
O26   O     O_2   0.798317 0.592320 0.778226 -0.549152
C45   C     C_R   0.640241 0.419855 0.017432 0.056594
C46   C     C_R   0.605077 0.460238 0.054406 0.088247
C47   C     C_R   0.616194 0.550761 0.041099 0.018105
C48   C     C_R   0.637010 0.329657 0.033653 -0.200779
H35   H     H_    0.081998 0.743002 0.753184 0.165669
H36   H     H_    0.741488 0.452976 0.846264 0.165732
H37   H     H_    0.677007 0.366350 0.930850 0.128381
H38   H     H_    0.668878 0.294303 0.008910 0.127987
O27   O     O_2   0.416679 0.431086 0.219838 -0.490202
C49   C     C_R   0.516413 0.539086 0.126162 0.625012
H39   H     H_    0.206645 0.318135 0.254934 0.173737
C50   C     C_R   0.705057 0.691290 0.979226 -0.197578
C51   C     C_R   0.751165 0.740161 0.930190 -0.078425
O28   O     O_2   0.832838 0.829536 0.830987 -0.569647
C52   C     C_R   0.567966 0.588083 0.077294 -0.388771
H40   H     H_    0.700524 0.726208 0.006998 0.134366
H41   H     H_    0.774020 0.808706 0.922926 0.169854
H42   H     H_    0.563926 0.656101 0.067887 0.137370
H43   H     H_    0.345342 0.134147 0.404178 0.174922
H44   H     H_    0.842128 0.857508 0.599714 0.165101
C53   C     C_2   0.418035 0.252763 0.517502 -0.103037
C54   C     C_R   0.789098 0.763104 0.484933 -0.456141
C55   C     C_2   0.215225 0.328428 0.538031 -0.251994
C56   C     C_2   0.261294 0.254361 0.536779 0.189947
C57   C     C_2   0.506870 0.322295 0.491055 0.146391
C58   C     C_3   0.443240 0.408999 0.480433 -0.128889
C59   C     C_3   0.324286 0.409805 0.520632 0.143608
C60   C     C_2   0.577662 0.478873 0.478915 -0.087089
C61   C     C_2   0.546151 0.559279 0.472969 -0.166671
C62   C     C_R   0.813525 0.629200 0.443632 0.105884
C63   C     C_R   0.677272 0.628516 0.470226 0.002242
C64   C     C_R   0.935649 0.696120 0.437479 -0.227559
C65   C     C_R   0.921606 0.764002 0.457291 0.302766
C66   C     C_R   0.665977 0.696076 0.491463 0.159684
H45   H     H_    0.105916 0.328962 0.556190 0.222499
H46   H     H_    0.036866 0.696733 0.415315 0.171829
H47   H     H_    0.779010 0.816475 0.499698 0.172075
H48   H     H_    0.702707 0.464509 0.482092 0.195525
H49   H     H_    0.421449 0.573732 0.470819 0.185067
O29   O     O_3   0.523258 0.010114 0.253465 -0.658870
H50   H     H_    0.486474 0.958458 0.242081 0.351696
O30   O     O_3   0.517163 0.980287 0.716587 -0.756360
H51   H     H_    0.417661 0.985384 0.732309 0.288475
I1    I     I_    0.687140 0.244156 0.643077 -0.315351
I2    I     I_    0.996891 0.492917 0.559242 -0.443008
O31   O     O_3   0.598120 0.498275 0.308101 -0.612675
H52   H     H_    0.650986 0.529205 0.332898 0.345510
O32   O     O_3   0.252510 0.434247 0.324469 -0.717415
H53   H     H_    0.175220 0.463725 0.295963 0.346082
O33   O     O_3   0.657459 0.662565 0.638692 -0.697338
H54   H     H_    0.735445 0.702835 0.615877 0.278401
O34   O     O_3   0.470453 0.579058 0.160197 -0.665712
H55   H     H_    0.481711 0.641874 0.144505 0.313886
I3    I     I_    0.481456 0.792132 0.751435 -0.281000
I4    I     I_    0.509862 0.137786 0.542895 -0.105308
I5    I     I_    0.627028 0.809119 0.333295 -0.373406

loop_
_geom_bond_atom_site_label_1
_geom_bond_atom_site_label_2
_geom_bond_distance
_ccdc_geom_bond_type
P4    C21   1.862104 S    
C19   C20   1.510297 S    
C20   C28   1.502871 S    
Ba1   O16   2.837420 S    
C31   C32   1.420311 A    
C4    O15   1.404084 S    
C14   O31   1.401602 S    
C19   C23   1.356238 D    
C40   H35   1.085721 S    
C8    C9    1.521127 S    
P4    O12   1.523521 D    
C3    H24   1.109535 S    
C40   C41   1.514167 S    
C11   O22   1.401449 S    
C37   C51   1.400651 A    
C52   H42   1.076096 S    
C33   H37   1.077120 S    
C50   C51   1.395135 A    
C19   H39   1.085002 S    
C43   C44   1.514937 S    
N1    C23   1.481468 S    
C10   H17   1.110497 S    
C54   C66   1.398331 A    
P5    O18   1.545461 D    
C6    H9    1.104685 S    
P8    O23   1.546282 D    
O3    P6    1.721605 S    
C12   H23   1.109085 S    
P2    Ba1   3.422430 S    
O32   H53   0.993024 S    
C35   C39   1.423391 A    
O6    P6    1.749189 S    
C8    H12   1.105055 S    
C9    H16   1.107160 S    
C49   O34   1.384456 S    
Ba1   Ba2   4.598452 S    
C11   H20   1.109844 S    
C34   H36   1.083476 S    
C36   C37   1.410462 A    
C26   H34   1.083475 S    
C17   C25   1.425648 A    
C31   C50   1.417314 A    
C38   N2    1.385850 Am   
C2    C3    1.523207 S    
C12   H22   1.107791 S    
C2    H3    1.114686 S    
Ba2   O21   2.871505 S    
C24   C46   1.439843 A    
C46   C47   1.419645 A    
O10   C8    1.399678 S    
C55   C59   1.506578 S    
P2    C65   1.822230 S    
O17   Ba2   2.801273 S    
C4    I5    2.139124 S    
C7    H10   1.110523 S    
C13   H25   1.112291 S    
P8    O24   1.750117 S    
P3    O11   1.751384 S    
P1    Ba1   3.388783 S    
C47   C52   1.411122 A    
C4    H6    1.100641 S    
C7    H11   1.110857 S    
O7    Ba1   2.871013 S    
C1    H18   1.107640 S    
P5    C57   1.869962 S    
C1    H2    1.110638 S    
C22   H33   1.081570 S    
C38   O28   1.222315 D    
C7    I1    2.142288 S    
O12   Ba2   2.795406 S    
C24   C27   1.411718 A    
Ba2   O20   2.836830 S    
C18   O27   1.220049 D    
P4    O13   1.532061 S    
P1    C42   1.894562 S    
C50   H40   1.077036 S    
C34   C35   1.403230 A    
O3    Ba1   2.758243 S    
C28   H43   1.085417 S    
C62   C64   1.392069 A    
C54   C65   1.393082 A    
C2    O33   1.403265 S    
C9    H15   1.106787 S    
C53   C56   1.462072 S    
P5    O17   1.763614 S    
C61   C63   1.472900 S    
C45   C46   1.423121 A    
P1    O5    1.778088 S    
C31   C47   1.434456 A    
P3    C66   1.842895 S    
C63   C66   1.410540 A    
C64   C65   1.395715 A    
C16   H32   1.108889 S    
C45   C48   1.415813 A    
O16   P7    1.792331 S    
C14   H28   1.108939 S    
O2    Ba2   2.749917 S    
C16   H31   1.109891 S    
C11   C12   1.521806 S    
O16   Ba2   2.932890 S    
C5    H7    1.106729 S    
N1    C18   1.394722 Am   
C30   C33   1.417001 A    
C15   O32   1.403671 S    
P1    O2    1.532310 S    
P7    O22   1.747189 S    
O14   P8    1.744146 S    
C9    H14   1.108764 S    
P2    O10   1.750342 S    
C17   O25   1.221312 D    
P3    O9    1.542712 D    
C37   C38   1.420150 A    
O5    C6    1.409913 S    
C30   C32   1.422517 A    
O11   C2    1.404170 S    
O4    P6    1.538930 D    
C25   C26   1.403771 A    
C1    I2    2.121693 S    
C15   O24   1.415115 S    
C62   C63   1.403489 A    
C51   H41   1.083544 S    
O14   Ba2   2.757530 S    
O34   H55   0.991413 S    
C17   N1    1.387727 Am   
C3    H5    1.111181 S    
O33   H54   0.990623 S    
C58   C60   1.501623 S    
C1    C10   1.519107 S    
O6    C10   1.402443 S    
C39   O26   1.222058 D    
C54   H47   1.081974 S    
C42   C43   1.363171 D    
P7    C56   1.854705 S    
C43   I3    2.137248 S    
C53   C57   1.339368 D    
O2    Ba1   2.943405 S    
P4    O15   1.761804 S    
C64   H46   1.082119 S    
P3    O8    1.752578 S    
C60   C61   1.339648 D    
H1    C10   1.109979 S    
C29   C42   1.327194 D    
O1    Ba1   2.795177 S    
C55   C56   1.331981 D    
C6    O30   1.392513 S    
O31   H52   0.992957 S    
C35   C36   1.409323 A    
P5    O19   1.745327 S    
Ba1   O13   2.749314 S    
C26   C48   1.398283 A    
O8    Ba1   2.800705 S    
P7    O21   1.555288 D    
C21   C28   1.324264 D    
C21   C22   1.347540 D    
C14   H27   1.104030 S    
C6    C7    1.538363 S    
C57   C58   1.518131 S    
P2    O7    1.524082 D    
C27   C49   1.417369 A    
O13   Ba2   2.944253 S    
C22   C23   1.519424 S    
O30   H51   0.993471 S    
C49   C52   1.406726 A    
Ba1   O20   2.933742 S    
C13   C14   1.525571 S    
C29   C41   1.526903 S    
P1    O1    1.523208 D    
C55   H45   1.081306 S    
C24   C25   1.411969 A    
C29   H44   1.086690 S    
C32   C36   1.438536 A    
C8    H13   1.109567 S    
C4    C5    1.535419 S    
C60   H48   1.083959 S    
C15   H29   1.114300 S    
C53   I4    2.024243 S    
C18   C27   1.426908 A    
N2    C44   1.468003 S    
H30   C16   1.110378 S    
C61   H49   1.084466 S    
C15   C16   1.528181 S    
O29   H50   0.992290 S    
C3    H4    1.111190 S    
C13   H26   1.111406 S    
C33   C34   1.399292 A    
P6    C41   1.866354 S    
C58   C59   1.549144 S    
C12   H21   1.109468 S    
C40   C44   1.347476 D    
C30   C45   1.438518 A    
P8    C20   1.868481 S    
C11   H19   1.110457 S    
N2    C39   1.387637 Am   
O19   C13   1.401441 S    
P4    Ba2   3.389121 S    
P2    O20   1.589426 S    
C48   H38   1.077162 S    
C5    O29   1.401717 S    
C5    H8    1.112907 S    
