data_mof_unit_45156.cif
_audit_creation_date              2013-03-05T15:45:30-0500
_audit_creation_method            fapswitch 2.2
_symmetry_space_group_name_H-M    P1
_symmetry_Int_Tables_number       1
_space_group_crystal_system       triclinic
_cell_length_a                    9.854888
_cell_length_b                    11.032943
_cell_length_c                    13.382972
_cell_angle_alpha                 94.453039
_cell_angle_beta                  81.732522
_cell_angle_gamma                 110.524772
_cell_volume                      1347.99581971

loop_
_atom_site_label
_atom_site_type_symbol
_atom_site_description
_atom_site_fract_x
_atom_site_fract_y
_atom_site_fract_z
_atom_type_partial_charge
O1    O     O_R   0.426290 0.668220 0.490680 -0.551096
O2    O     O_R   0.659360 0.703290 0.520190 -0.527031
C1    C     C_R   0.554003 0.745612 0.509032 0.816144
O3    O     O_R   0.326580 0.473880 0.629020 -0.508775
O4    O     O_R   0.559660 0.508940 0.658530 -0.585916
C2    C     C_R   0.421697 0.484302 0.690215 0.922162
Cu1   Cu    Cu3+1 0.362000 0.479240 0.482530 1.184106
Cu2   Cu    Cu3+1 0.638000 0.520760 0.517470 1.149161
O5    O     O_R   0.340640 0.296710 0.479810 -0.510263
O6    O     O_R   0.573710 0.331780 0.509320 -0.541451
O7    O     O_R   0.440340 0.491060 0.341470 -0.558063
O8    O     O_R   0.673420 0.526120 0.370980 -0.502457
C3    C     C_R   0.444085 0.254842 0.494867 0.799386
C4    C     C_R   0.577673 0.511842 0.309306 0.840120
C5    C     C_R   0.788529 0.670712 0.069170 0.261028
C6    C     C_R   0.626433 0.529666 0.200114 -0.221134
C7    C     C_R   0.260996 0.329432 0.817522 0.111022
C8    C     C_R   0.266799 0.258053 0.898693 0.399777
C9    C     C_R   0.381119 0.308445 0.957511 0.508953
C10   C     C_R   0.467819 0.442662 0.954014 -0.107905
C11   C     C_R   0.465490 0.513601 0.870892 -0.151477
C12   C     C_R   0.560037 0.506764 0.028612 -0.050867
C13   C     C_R   0.677716 0.622946 0.004608 -0.138301
C14   C     C_R   0.671698 0.696340 0.924519 0.413640
C15   C     C_R   0.560338 0.644494 0.861249 0.258836
C16   C     C_R   0.528609 0.466330 0.129610 0.303273
C17   C     C_R   0.763630 0.621001 0.166954 0.274278
C18   C     C_R   0.372178 0.450286 0.796999 -0.146483
C19   C     C_2   0.578313 0.885536 0.513551 0.097450
C20   C     C_2   0.464781 0.928659 0.545054 0.191425
C21   C     C_2   0.418774 0.116079 0.491449 0.107132
C22   C     C_2   0.485014 0.067061 0.552563 0.217716
N1    N     N_2   0.845330 0.551960 0.543750 -0.047598
C23   C     C_2   0.920532 0.486317 0.494035 0.551155
N2    N     N_2   0.154690 0.448120 0.456210 -0.127019
C24   C     C_2   0.071561 0.497851 0.516627 0.508895
O9    O     O_3   0.866523 0.666458 0.233713 -0.640399
H1    H     H_    0.964817 0.703606 0.195574 0.378511
N3    N     N_R   0.320253 0.842597 0.577566 0.158326
O10   O     O_R   0.267538 0.846653 0.672101 -0.185316
O11   O     O_R   0.229665 0.796524 0.510917 -0.239964
N4    N     N_R   0.339198 0.037854 0.413213 0.136922
O12   O     O_R   0.220403 0.052734 0.393918 -0.184601
O13   O     O_R   0.397205 0.967631 0.350969 -0.299065
N5    N     N_R   0.721203 0.974000 0.477746 0.160036
O14   O     O_R   0.837637 0.949855 0.490349 -0.178171
O15   O     O_R   0.734378 0.067475 0.419320 -0.262838
O16   O     O_3   0.126521 0.565168 0.601252 -0.590610
H2    H     H_    0.046562 0.541068 0.658027 0.369822
O17   O     O_3   0.858212 0.405157 0.416993 -0.663256
H3    H     H_    0.932058 0.424712 0.356393 0.329233
N6    N     N_R   0.086829 0.324397 0.416978 0.215370
O18   O     O_R   0.134499 0.292423 0.326790 -0.235679
O19   O     O_R   0.003920 0.233185 0.477415 -0.191830
O20   O     O_3   0.914180 0.654575 0.600747 -0.567328
H4    H     H_    0.838069 0.690343 0.630788 0.410512
O21   O     O_3   0.764151 0.823690 0.917519 -0.610103
H5    H     H_    0.710983 0.877140 0.897189 0.382085
N7    N     N_R   0.923776 0.771277 0.037086 0.171774
O22   O     O_R   0.965823 0.879491 0.089392 -0.218456
O23   O     O_R   0.001970 0.756889 0.953018 -0.224090
O24   O     O_3   0.394240 0.375594 0.160851 -0.616379
H6    H     H_    0.408290 0.320765 0.210987 0.364902
N8    N     N_R   0.157856 0.270432 0.747196 0.135585
O25   O     O_R   0.158871 0.164800 0.697048 -0.258952
O26   O     O_R   0.060477 0.320871 0.734979 -0.291036
O27   O     O_3   0.411445 0.220983 0.011173 -0.583518
H7    H     H_    0.516688 0.255537 0.019445 0.333187
O28   O     O_3   0.170863 0.133865 0.917427 -0.553791
H8    H     H_    0.083015 0.117933 0.883584 0.384032
N9    N     N_R   0.539416 0.726557 0.790849 0.082219
O29   O     O_R   0.410717 0.733937 0.790061 -0.276482
O30   O     O_R   0.649229 0.798049 0.730594 -0.335200
N10   N     N_R   0.557428 0.141825 0.635251 0.150716
O31   O     O_R   0.498139 0.214663 0.693325 -0.363988
O32   O     O_R   0.664361 0.116522 0.665187 -0.232002

loop_
_geom_bond_atom_site_label_1
_geom_bond_atom_site_label_2
_geom_bond_distance
_ccdc_geom_bond_type
N1    O20   1.341665 S    
O4    Cu2   1.930108 S    
C20   C22   1.466271 S    
C13   C14   1.412356 A    
C14   C15   1.414345 A    
C9    O27   1.381234 S    
C19   C20   1.364697 D    
C15   N9    1.438456 S    
C21   N4    1.441293 S    
C6    C17   1.407819 A    
C9    C10   1.427260 A    
O5    C3    1.302681 A    
C5    C17   1.413608 A    
C21   C22   1.362852 D    
C8    O28   1.382335 S    
O8    C4    1.302293 A    
Cu2   O8    1.943068 S    
N8    O25   1.301352 A    
O20   H4    0.988005 S    
C5    C13   1.419140 A    
C7    C8    1.409186 A    
C16   O24   1.380821 S    
N7    O22   1.301500 A    
N3    O11   1.300519 A    
N5    O14   1.301164 A    
C10   C11   1.416233 A    
Cu1   O7    1.930108 S    
N2    N6    1.391322 S    
Cu1   N2    2.027849 S    
O21   H5    0.989395 S    
O24   H6    0.991852 S    
N4    O13   1.301679 A    
C17   O9    1.382856 S    
O3    Cu1   1.943069 S    
O4    C2    1.301994 A    
Cu2   O6    1.954176 S    
O16   H2    0.990559 S    
O9    H1    0.989303 S    
N6    O19   1.301632 A    
C20   N3    1.434278 S    
C24   O16   1.375252 S    
C23   C24   1.521019 S    
Cu2   N1    2.027703 S    
N5    O15   1.301519 A    
C7    N8    1.434820 S    
C6    C16   1.412378 A    
O28   H8    0.989564 S    
C3    C21   1.460401 S    
O7    C4    1.303736 A    
C4    C6    1.476965 S    
C23   O17   1.376654 S    
N7    O23   1.301353 A    
N4    O12   1.300959 A    
N10   O32   1.301562 A    
C12   C16   1.413594 A    
O27   H7    0.991213 S    
Cu1   O5    1.948016 S    
N9    O30   1.301072 A    
N9    O29   1.300673 A    
N1    C23   1.294668 D    
N6    O18   1.299601 A    
O3    C2    1.301212 A    
C8    C9    1.394934 A    
N10   O31   1.301111 A    
C19   N5    1.442209 S    
N3    O10   1.300375 A    
C1    C19   1.474651 S    
Cu1   Cu2   2.699152 S    
C11   C15   1.422527 A    
C12   C13   1.416200 A    
C22   N10   1.444592 S    
O2    C1    1.309101 A    
O17   H3    0.990560 S    
O1    Cu1   1.954174 S    
C7    C18   1.414111 A    
C5    N7    1.436763 S    
C11   C18   1.419620 A    
O2    Cu2   1.948013 S    
N2    C24   1.296833 D    
C2    C18   1.474989 S    
C10   C12   1.422451 A    
C14   O21   1.382492 S    
O1    C1    1.294687 A    
O6    C3    1.294219 A    
N8    O26   1.300428 A    
