data_mof_unit_68470.cif
_audit_creation_date              2012-12-11T18:29:26-0500
_audit_creation_method            fapswitch 2.2
_symmetry_space_group_name_H-M    P1
_symmetry_Int_Tables_number       1
_space_group_crystal_system       triclinic
_cell_length_a                    8.47137
_cell_length_b                    14.838897
_cell_length_c                    17.297798
_cell_angle_alpha                 96.964097
_cell_angle_beta                  96.721701
_cell_angle_gamma                 94.301004
_cell_volume                      2134.76426622

loop_
_atom_site_label
_atom_site_type_symbol
_atom_type_description
_atom_site_fract_x
_atom_site_fract_y
_atom_site_fract_z
_atom_type_partial_charge
Ba1   Ba    Ba6+2 0.833220 0.541860 0.459910 1.788680
Ba2   Ba    Ba6+2 0.356600 0.458220 0.540090 1.823042
C1    C     C_3   0.457991 0.755134 0.109425 -0.137203
C2    C     C_3   0.382142 0.504397 0.211149 0.112891
C3    C     C_2   0.304550 0.510307 0.128172 0.056834
C4    C     C_3   0.015986 0.745915 0.239400 0.434097
C5    C     C_2   0.142394 0.495804 0.111734 0.021383
C6    C     C_2   0.047063 0.469518 0.175527 -0.161554
C7    C     C_1   0.116137 0.466085 0.248290 0.112655
C8    C     C_R   0.877527 0.491547 0.867303 0.003135
C9    C     C_R   0.829161 0.463988 0.787289 -0.000114
C10   C     C_R   0.060670 0.552288 0.755057 -0.021357
C11   C     C_R   0.118481 0.570881 0.835848 -0.022192
C12   C     C_3   0.483786 0.738241 0.195910 0.893448
C13   C     C_R   0.029319 0.538209 0.892779 0.041432
C14   C     C_2   0.056720 0.493772 0.030178 0.049966
C15   C     C_2   0.103339 0.547070 0.976728 -0.020509
C16   C     C_3   0.951133 0.769645 0.158571 0.102062
C17   C     C_R   0.920724 0.494572 0.731889 -0.190992
C18   C     C_R   0.707031 0.945281 0.551025 0.195046
C19   C     C_R   0.516687 0.801595 0.497448 0.091672
C20   C     C_R   0.367804 0.768923 0.450574 -0.051742
C21   C     C_R   0.256586 0.828999 0.426639 0.010046
C22   C     C_R   0.303534 0.922641 0.431716 0.414953
C23   C     C_3   0.549571 0.253268 0.293848 0.650253
C24   C     C_R   0.461877 0.955909 0.464941 -0.026903
C25   C     C_R   0.562991 0.899658 0.506153 0.029355
C26   C     C_R   0.648889 0.093063 0.506790 -0.009067
C27   C     C_R   0.750244 0.040316 0.549465 0.125882
C28   C     C_3   0.201536 0.770590 0.715549 0.811023
C29   C     C_R   0.682593 0.190873 0.513160 0.031918
C30   C     C_R   0.824259 0.230918 0.558199 -0.210983
C31   C     C_R   0.934990 0.176693 0.591271 -0.031757
C32   C     C_R   0.897991 0.083081 0.587258 0.016904
C33   C     C_R   0.518801 0.046104 0.458520 -0.036990
C34   C     C_3   0.617602 0.193232 0.228159 0.429214
C35   C     C_3   0.295079 0.771554 0.797277 -0.361981
C36   C     C_3   0.973806 0.266642 0.388466 0.350400
C37   C     C_3   0.924598 0.165804 0.381431 -0.329036
C38   C     C_3   0.749827 0.709247 0.700900 0.557015
C39   C     C_3   0.816218 0.774027 0.776635 -0.093292
C40   C     C_3   0.130384 0.211387 0.777871 0.600911
C41   C     C_3   0.145781 0.128297 0.824463 0.232015
C42   C     C_3   0.660388 0.243650 0.804925 0.591664
C43   C     C_3   0.649286 0.219912 0.889670 0.401335
C44   C     C_2   0.263325 0.504347 0.269940 -0.249669
H1    H     H_    0.389922 0.724021 0.795413 0.127086
H2    H     H_    0.571366 0.782010 0.090565 0.104472
H3    H     H_    0.878287 0.837127 0.761691 0.141332
H4    H     H_    0.904272 0.739103 0.812551 0.003946
H5    H     H_    0.371115 0.706531 0.211372 -0.251609
H6    H     H_    0.623678 0.318879 0.310497 0.001494
H7    H     H_    0.732982 0.171736 0.251935 -0.008375
H8    H     H_    0.420056 0.689001 0.072480 0.050655
H9    H     H_    0.003768 0.209852 0.752595 -0.073844
H10   H     H_    0.049240 0.075407 0.798084 0.082312
H11   H     H_    0.258956 0.099543 0.815971 0.127548
H12   H     H_    0.350387 0.840749 0.822222 0.171496
H13   H     H_    0.784639 0.269595 0.800590 -0.031755
H14   H     H_    0.970050 0.674586 0.243386 0.017296
H15   H     H_    0.523505 0.221731 0.899229 0.138318
H16   H     H_    0.206407 0.596233 0.993588 0.072038
H17   H     H_    0.920232 0.451124 0.160869 0.133658
H18   H     H_    0.799665 0.473079 0.908954 0.041097
H19   H     H_    0.951543 0.445990 0.014865 0.095184
H20   H     H_    0.236872 0.604544 0.854005 0.058965
H21   H     H_    0.310850 0.514638 0.331441 0.081555
H22   H     H_    0.879402 0.475898 0.670015 0.038577
H23   H     H_    0.212159 0.752042 0.838626 -0.011772
H24   H     H_    0.147880 0.751289 0.245183 0.030749
H25   H     H_    0.987272 0.044476 0.613519 0.069387
H26   H     H_    0.855504 0.303413 0.560875 0.023710
H27   H     H_    0.467639 0.077952 0.411247 0.186619
H28   H     H_    0.821261 0.774446 0.156297 0.164484
H29   H     H_    0.074167 0.767264 0.718508 -0.178026
H30   H     H_    0.710446 0.960430 0.260561 0.347892
H31   H     H_    0.655049 0.577478 0.676964 0.175227
H32   H     H_    0.702624 0.614617 0.773933 0.122352
H33   H     H_    0.633637 0.851549 0.798700 0.278131
H34   H     H_    0.885820 0.304601 0.418727 -0.099170
H35   H     H_    0.743241 0.828141 0.879179 0.209007
H36   H     H_    0.389240 0.884720 0.110180 0.264239
H37   H     H_    0.298102 0.810279 0.035297 0.168888
H38   H     H_    0.203061 0.292825 0.159224 0.383041
H39   H     H_    0.568156 0.069901 0.158276 0.226202
H40   H     H_    0.497197 0.072926 0.244408 0.219649
H41   H     H_    0.649486 0.388362 0.117320 0.330496
H42   H     H_    0.100112 0.695540 0.096318 0.195062
H43   H     H_    0.926780 0.711622 0.043239 0.174951
H44   H     H_    0.286093 0.373849 0.745556 0.384337
H45   H     H_    0.092430 0.279637 0.424597 0.120716
H46   H     H_    0.173274 0.996337 0.933369 0.318143
H47   H     H_    0.485668 0.234799 0.658336 0.367765
H48   H     H_    0.676405 0.348303 0.950495 0.143366
H49   H     H_    0.763360 0.273001 0.000381 0.294773
H50   H     H_    0.496253 0.027766 0.953368 0.357931
H51   H     H_    0.415413 0.437646 0.048042 0.255966
H52   H     H_    0.514466 0.539073 0.084761 0.157845
H53   H     H_    0.410096 0.632784 0.431939 0.215729
H54   H     H_    0.302217 0.669595 0.362253 0.085131
H55   H     H_    0.905023 0.973885 0.382339 0.356219
H56   H     H_    0.795470 0.149167 0.370694 0.027634
H57   H     H_    0.917616 0.897448 0.585506 0.247874
H58   H     H_    0.812845 0.932769 0.660008 0.233297
H59   H     H_    0.982780 0.908833 0.180078 0.273403
H60   H     H_    0.989442 0.867647 0.086958 0.202363
H61   H     H_    0.197547 0.009885 0.691432 0.373424
H62   H     H_    0.961441 0.142650 0.438235 0.134613
H63   H     H_    0.977895 0.128406 0.333008 0.238189
H64   H     H_    0.850770 0.684671 0.671016 -0.129134
N1    N     N_3   0.653008 0.632499 0.720521 -0.416447
N2    N     N_3   0.027312 0.857086 0.144652 -0.415376
N3    N     N_3   0.689588 0.799380 0.823208 -0.487162
N4    N     N_3   0.336149 0.817947 0.095665 -0.454336
N5    N     N_3   0.511216 0.110763 0.198070 -0.387519
N6    N     N_3   0.977500 0.696900 0.097858 -0.551395
N7    N     N_3   0.743725 0.292182 0.944688 -0.471043
N8    N     N_3   0.401135 0.506267 0.065004 -0.489660
N9    N     N_3   0.321860 0.674559 0.423502 -0.452086
N10   N     N_3   0.804290 0.898421 0.603051 -0.454813
O1    O     O_2   0.840370 0.437300 0.310630 -0.455428
O2    O     O_2   0.243171 0.175453 0.567983 -0.388323
O3    O     O_3   0.232691 0.204366 0.718269 -0.630584
O4    O     O_3   0.112450 0.444030 0.408320 -0.493268
O5    O     O_3   0.560770 0.615000 0.535160 -0.498011
O6    O     O_2   0.387340 0.269270 0.471720 -0.369800
O7    O     O_3   0.546037 0.204340 0.357329 -0.713323
O8    O     O_2   0.517007 0.476659 0.777419 -0.454587
O9    O     O_3   0.551541 0.309667 0.791211 -0.625051
O10   O     O_3   0.597270 0.610320 0.351390 -0.479295
O11   O     O_2   0.707508 0.535106 0.229164 -0.442561
O12   O     O_3   0.652393 0.757687 0.653571 -0.578906
O13   O     O_3   0.984245 0.291908 0.313597 -0.549053
O14   O     O_3   0.610416 0.683165 0.204671 -0.639320
O15   O     O_2   0.802370 0.730760 0.528330 -0.450824
O16   O     O_3   0.016680 0.660770 0.388810 -0.479633
O17   O     O_2   0.932910 0.818328 0.444890 -0.378334
O18   O     O_2   0.397078 0.893656 0.268884 -0.316857
O19   O     O_2   0.616612 0.823195 0.337005 -0.330347
O20   O     O_3   0.674061 0.908254 0.219390 -0.559288
O21   O     O_2   0.243281 0.185806 0.266137 -0.219569
O22   O     O_2   0.317864 0.342143 0.328942 -0.388833
O23   O     O_3   0.964973 0.805955 0.298499 -0.542310
O24   O     O_3   0.318788 0.307010 0.176657 -0.482938
O25   O     O_2   0.835726 0.245660 0.138853 -0.281631
O26   O     O_2   0.558595 0.212213 0.076132 -0.218344
O27   O     O_3   0.633211 0.363994 0.166885 -0.516445
O28   O     O_2   0.041227 0.340583 0.881034 -0.299301
O29   O     O_2   0.325442 0.323465 0.895280 -0.255060
O30   O     O_3   0.206013 0.397201 0.777630 -0.528694
O31   O     O_2   0.028512 0.203129 0.957286 -0.151690
O32   O     O_2   0.306917 0.172611 0.970915 -0.213209
O33   O     O_3   0.094731 0.035842 0.954342 -0.426865
O34   O     O_2   0.349330 0.562730 0.689420 -0.412501
O35   O     O_2   0.754239 0.098015 0.721097 -0.339082
O36   O     O_2   0.482351 0.082088 0.751551 -0.197009
O37   O     O_3   0.542786 0.180863 0.645361 -0.509281
O38   O     O_2   0.800986 0.061640 0.861873 -0.209851
O39   O     O_2   0.763143 0.109482 0.996831 -0.179358
O40   O     O_3   0.517591 0.039017 0.900115 -0.487514
O41   O     O_2   0.217532 0.095694 0.421668 -0.294907
O42   O     O_2   0.140094 0.981548 0.307973 -0.262924
O43   O     O_3   0.986501 0.979740 0.429076 -0.549909
O44   O     O_2   0.431794 0.894119 0.687679 -0.255800
O45   O     O_3   0.077250 0.556050 0.591680 -0.474283
O46   O     O_2   0.196664 0.858497 0.589372 -0.363284
O47   O     O_3   0.165730 0.957785 0.718630 -0.582402
O48   O     O_3   0.592420 0.389760 0.648620 -0.520585
O49   O     O_3   0.233676 0.700388 0.660383 -0.587310
O50   O     O_3   0.628930 0.385070 0.464840 -0.481951
O51   O     O_3   0.173020 0.339310 0.611190 -0.493239
P1    P     P_3+3 0.017810 0.410420 0.324030 1.120827
P2    P     P_3+3 0.635890 0.718430 0.552520 1.096903
P3    P     P_3+3 0.046730 0.778914 0.389588 1.133997
P4    P     P_3+3 0.171880 0.589650 0.675980 0.990636
P5    P     P_3+3 0.141012 0.224765 0.625203 0.980694
P6    P     P_3+3 0.563280 0.586063 0.248813 0.987838
P7    P     P_3+3 0.565024 0.265991 0.452325 1.022812
P8    P     P_3+3 0.630458 0.405305 0.751875 0.950815
S1    S     S_3+6 0.541619 0.843273 0.258707 -0.103414
S2    S     S_3+6 0.349483 0.271473 0.265339 -0.023129
S3    S     S_3+6 0.663497 0.253745 0.149460 -0.044941
S4    S     S_3+6 0.178483 0.319188 0.837290 -0.032838
S5    S     S_3+6 0.144486 0.139325 0.929366 0.074756
S6    S     S_3+6 0.608863 0.147233 0.730841 -0.014759
S7    S     S_3+6 0.690411 0.106124 0.912871 0.053002
S8    S     S_3+6 0.163135 0.997275 0.396062 -0.073346
S9    S     S_3+6 0.253990 0.872065 0.675628 -0.067185

loop_
_geom_bond_atom_site_label_1
_geom_bond_atom_site_label_2
_ccdc_geom_bond_type
C4    H24   S    
C35   H23   S    
C41   S5    S    
H57   N10   S    
O40   S7    S    
C2    P6    S    
H44   O30   S    
O18   S1    D    
O3    P5    S    
O11   P6    D    
O31   S5    D    
C30   H26   S    
C21   P3    S    
C2    C44   S    
O36   S6    D    
H49   N7    S    
O9    P8    S    
C9    C17   A    
C24   C25   A    
H41   O27   S    
O34   P4    D    
O50   P7    S    
C22   S8    S    
O46   S9    D    
O15   P2    D    
O39   S7    D    
C26   C27   A    
O13   P1    S    
O37   S6    S    
C8    C13   A    
C36   C37   S    
C15   H16   S    
C1    H8    S    
C43   S7    S    
H38   O24   S    
C42   H13   S    
H54   N9    S    
C1    H2    S    
C10   C17   A    
O43   S8    S    
Ba1   Ba2   S    
C36   O13   S    
H51   N8    S    
H31   N1    S    
C31   P5    S    
O19   S1    D    
C33   H27   S    
C29   C30   A    
C26   C33   A    
C6    C7    D    
C21   C22   A    
C36   H45   S    
H32   N1    S    
C34   H7    S    
O32   S5    D    
Ba1   O16   S    
C35   H12   S    
C35   H1    S    
C42   S6    S    
C18   C27   A    
C19   C25   A    
H43   N6    S    
O5    P2    S    
C7    C44   D    
Ba2   O34   S    
C19   C20   A    
H37   N4    S    
C20   N9    S    
O38   S7    D    
C39   H3    S    
C23   S2    S    
C40   O3    S    
H52   N8    S    
C38   N1    S    
O16   P3    S    
C11   H20   S    
H30   O20   S    
C37   H62   S    
C4    C16   S    
H61   O47   S    
O26   S3    D    
C29   P7    S    
C4    H14   S    
H39   N5    S    
H36   N4    S    
Ba1   O10   S    
O35   S6    D    
C16   N6    S    
C3    C5    D    
C14   C15   D    
H60   N2    S    
C12   O14   S    
C42   O9    S    
O25   S3    D    
C28   C35   S    
C44   H21   S    
H40   N5    S    
C28   S9    S    
H42   N6    S    
C6    H17   S    
C28   O49   S    
O10   P6    S    
C40   H9    S    
C24   C33   A    
C12   H5    S    
O4    P1    S    
O33   S5    S    
Ba1   O45   S    
Ba1   P2    S    
O1    P1    D    
C31   C32   A    
O49   P4    S    
C17   H22   S    
O8    P8    D    
H47   O37   S    
Ba2   O45   S    
H46   O33   S    
C1    C12   S    
H48   N7    S    
Ba2   O50   S    
C10   P4    S    
Ba2   O6    S    
O27   S3    S    
C38   C39   S    
H50   O40   S    
H59   N2    S    
C19   P2    S    
C11   C13   A    
Ba2   P4    S    
C40   S4    S    
C34   S3    S    
C40   C41   S    
Ba2   O48   S    
C39   H4    S    
C18   N10   S    
C42   C43   S    
C37   H56   S    
C43   N7    S    
C13   C15   S    
O24   S2    S    
C5    C14   S    
O7    P7    S    
C26   C29   A    
C8    H18   S    
Ba1   O50   S    
C22   C24   A    
C39   N3    S    
C2    C3    S    
O44   S9    D    
C1    N4    S    
C38   H64   S    
O30   S4    S    
C18   C25   A    
Ba2   O4    S    
C16   N2    S    
O45   P4    S    
O48   P8    S    
O51   P5    S    
Ba2   O51   S    
Ba1   P1    S    
C3    N8    S    
Ba1   O5    S    
C30   C31   A    
H33   N3    S    
C23   O7    S    
Ba1   O4    S    
O17   P3    D    
O41   S8    D    
C28   H29   S    
O42   S8    D    
C36   H34   S    
O28   S4    D    
O2    P5    D    
O47   S9    S    
C27   C32   A    
H55   O43   S    
C43   H15   S    
O20   S1    S    
O6    P7    D    
O21   S2    D    
O12   P2    S    
O14   P6    S    
C38   O12   S    
Ba1   O1    S    
C23   H6    S    
C5    C6    S    
C8    C9    A    
C41   H11   S    
C23   C34   S    
H53   N9    S    
Ba2   O5    S    
C41   H10   S    
C37   H63   S    
O22   S2    D    
C9    P8    S    
C10   C11   A    
C16   H28   S    
H35   N3    S    
O29   S4    D    
C20   C21   A    
C7    P1    S    
C14   H19   S    
O23   P3    S    
C4    O23   S    
Ba1   O15   S    
C34   N5    S    
C32   H25   S    
C12   S1    S    
H58   N10   S    
