data_mof_unit_10817.cif
_audit_creation_date              2012-12-11T16:56:09-0500
_audit_creation_method            fapswitch 2.2
_symmetry_space_group_name_H-M    P1
_symmetry_Int_Tables_number       1
_space_group_crystal_system       triclinic
_cell_length_a                    6.951644
_cell_length_b                    14.585765
_cell_length_c                    16.161885
_cell_angle_alpha                 90.537866
_cell_angle_beta                  89.822242
_cell_angle_gamma                 90.239275
_cell_volume                      1638.64088388

loop_
_atom_site_label
_atom_site_type_symbol
_atom_type_description
_atom_site_fract_x
_atom_site_fract_y
_atom_site_fract_z
_atom_type_partial_charge
O1    O     O_R   0.505830 0.583360 0.413880 -0.516449
O2    O     O_R   0.175830 0.595460 0.585520 -0.555777
O3    O     O_R   0.005520 0.416640 0.586120 -0.525953
C1    C     C_R   0.344674 0.617267 0.614557 0.700343
O4    O     O_R   0.176120 0.594390 0.414490 -0.520079
O5    O     O_R   0.005810 0.415570 0.413870 -0.542102
C2    C     C_R   0.345608 0.616267 0.385948 0.734966
O6    O     O_R   0.505540 0.584430 0.586130 -0.536354
O7    O     O_3   0.339200 0.441330 0.500000 -0.385739
V1    V     V_3+5 0.064350 0.510880 0.500000 1.514711
O8    O     O_R   0.676100 0.404540 0.414480 -0.549406
C3    C     C_R   0.845072 0.382822 0.385508 0.805372
O9    O     O_R   0.675810 0.405610 0.585510 -0.554290
C4    C     C_R   0.844116 0.387323 0.616040 0.621926
V2    V     V_3+5 0.564340 0.489120 0.500000 1.488276
O10   O     O_3   0.839360 0.558670 0.500000 -0.349172
C5    C     C_2   0.727117 0.209860 0.785054 0.515618
C6    C     C_2   0.889101 0.170917 0.814614 0.403459
C7    C     C_2   0.725078 0.266816 0.709184 -0.210442
C8    C     C_2   0.856176 0.332730 0.692800 0.306324
H1    H     H_    0.602657 0.257956 0.668215 0.149910
C9    C     C_R   0.735959 0.182371 0.242478 -0.142019
C10   C     C_R   0.876576 0.188905 0.180539 -0.190316
C11   C     C_R   0.989186 0.270413 0.178589 0.332172
C12   C     C_R   0.978825 0.334809 0.245765 0.374170
C13   C     C_R   0.855431 0.318030 0.314405 -0.269306
C14   C     C_R   0.726324 0.244544 0.308033 -0.173344
C15   C     C_3   0.678650 0.168518 0.367806 0.303844
C16   C     C_3   0.675457 0.102828 0.293857 0.470230
H2    H     H_    0.800733 0.155255 0.410369 0.106035
H3    H     H_    0.531870 0.075936 0.276013 0.033971
C17   C     C_R   0.508323 0.681781 0.741282 -0.053627
C18   C     C_R   0.353241 0.681997 0.685950 -0.084734
C19   C     C_R   0.203421 0.744361 0.702139 -0.151635
H4    H     H_    0.081735 0.747695 0.660852 0.141078
C20   C     C_R   0.215919 0.807802 0.768261 -0.042016
H5    H     H_    0.105085 0.858740 0.775606 0.204321
C21   C     C_R   0.376735 0.810269 0.820945 -0.128622
C22   C     C_R   0.519762 0.744607 0.807142 0.038073
C23   C     C_3   0.728360 0.760094 0.791856 1.090142
C24   C     C_3   0.717342 0.690390 0.721916 -0.475545
H6    H     H_    0.796556 0.626050 0.734566 0.147582
H7    H     H_    0.743459 0.720022 0.659729 0.172811
C25   C     C_R   0.495146 0.675878 0.254118 -0.172663
C26   C     C_R   0.355107 0.682381 0.316724 -0.090654
C27   C     C_R   0.220412 0.753813 0.311125 -0.167967
H8    H     H_    0.113263 0.762264 0.359259 0.187454
C28   C     C_R   0.234231 0.820784 0.248407 0.451382
C29   C     C_R   0.377160 0.813943 0.186137 -0.166303
C30   C     C_R   0.506598 0.740992 0.190855 -0.134823
C31   C     C_3   0.721258 0.745699 0.192986 0.418331
C32   C     C_3   0.711349 0.674431 0.261103 0.901160
H9    H     H_    0.777319 0.813708 0.213385 0.121642
O11   O     O_R   0.229930 0.912420 0.917160 -0.536011
O12   O     O_R   0.559420 0.902500 0.088780 -0.538639
O13   O     O_R   0.729660 0.081330 0.089380 -0.560912
C33   C     C_R   0.390364 0.882000 0.118415 0.744110
O14   O     O_R   0.559650 0.901420 0.917750 -0.510135
O15   O     O_R   0.729880 0.080250 0.917130 -0.527964
C34   C     C_R   0.390591 0.879616 0.888659 0.759692
O16   O     O_R   0.229700 0.913500 0.089410 -0.516481
O17   O     O_3   0.396250 0.055540 0.003280 -0.392493
V3    V     V_3+5 0.671130 0.986010 0.003260 1.638653
O18   O     O_R   0.059600 0.091310 0.917720 -0.515513
C35   C     C_R   0.891513 0.111261 0.888119 0.677521
O19   O     O_R   0.059370 0.092380 0.088750 -0.555675
C36   C     C_R   0.890017 0.116541 0.115681 0.790709
V4    V     V_3+5 0.171120 0.007820 0.003230 1.607371
O20   O     O_3   0.896130 0.938240 0.003240 -0.342627
F1    F     F_    0.554265 0.193315 0.821810 -0.653556
F2    F     F_    0.814461 0.035948 0.298376 -0.703556
F3    F     F_    0.841775 0.732876 0.857347 -0.675504
F4    F     F_    0.766066 0.848323 0.765252 -0.722006
O21   O     O_3   0.122614 0.898799 0.253363 -0.538278
C37   C     C_3   0.194390 0.955675 0.317757 -0.108452
H10   H     H_    0.168961 0.028306 0.301497 0.183336
H11   H     H_    0.116545 0.940806 0.376258 0.180315
H12   H     H_    0.352393 0.949102 0.328176 0.092184
F5    F     F_    0.057835 0.179438 0.772347 -0.616535
F6    F     F_    0.802813 0.714349 0.119811 -0.647865
F7    F     F_    0.771316 0.710257 0.336359 -0.706000
O22   O     O_3   0.809049 0.590869 0.242665 -0.523544
C38   C     C_3   0.720828 0.534290 0.181760 -0.075014
H13   H     H_    0.833656 0.509204 0.138628 0.217891
H14   H     H_    0.611191 0.568016 0.142802 0.127907
H15   H     H_    0.656802 0.473726 0.212352 0.086760
O23   O     O_3   0.005539 0.349264 0.747965 -0.504508
C39   C     C_3   0.992509 0.439620 0.779444 -0.139142
H16   H     H_    0.844943 0.455563 0.802398 0.111418
H17   H     H_    0.038700 0.490402 0.732514 0.114763
H18   H     H_    0.091731 0.446574 0.832774 0.183184
O24   O     O_3   0.079890 0.295604 0.105702 -0.548923
C40   C     C_3   0.270843 0.262654 0.102882 -0.132952
H19   H     H_    0.372200 0.321575 0.104440 0.133935
H20   H     H_    0.309165 0.213998 0.153057 0.073391
H21   H     H_    0.293714 0.227342 0.042649 0.182123
O25   O     O_3   0.059152 0.421129 0.237051 -0.528696
C41   C     C_3   0.257797 0.419923 0.253882 -0.120359
H22   H     H_    0.284163 0.441644 0.318583 0.134034
H23   H     H_    0.327761 0.470784 0.213171 0.142043
H24   H     H_    0.328517 0.352858 0.243359 0.066217
O26   O     O_3   0.501107 0.171182 0.412262 -0.550017
C42   C     C_3   0.354877 0.221528 0.373182 -0.197842
H25   H     H_    0.334951 0.200786 0.307501 0.079737
H26   H     H_    0.384876 0.295890 0.379018 0.160866
H27   H     H_    0.216848 0.208062 0.405571 0.155074

loop_
_geom_bond_atom_site_label_1
_geom_bond_atom_site_label_2
_ccdc_geom_bond_type
O19   V4    S    
O23   C39   S    
C40   H19   S    
C9    C16   S    
C24   H6    S    
C7    C8    D    
C1    O6    A    
O25   C41   S    
O11   C34   A    
C26   C27   A    
C6    C35   S    
C13   C14   A    
O18   V4    S    
C20   H5    S    
C7    H1    S    
O5    C3    A    
C21   C22   A    
O11   V4    S    
O14   C34   A    
V2    O10   S    
C41   H22   S    
C8    O23   S    
C29   C33   S    
C23   F4    S    
C19   H4    S    
C17   C22   A    
C10   C36   S    
C31   F6    S    
C27   H8    S    
O8    V2    S    
V3    O20   S    
C6    F5    S    
O12   V3    S    
C17   C24   S    
O1    V2    S    
O7    V1    S    
C25   C32   S    
O19   C36   A    
C5    F1    S    
C40   H20   S    
O9    C4    A    
C24   H7    S    
O26   C42   S    
C11   O24   S    
C30   C31   S    
C27   C28   A    
O21   C37   S    
C31   C32   S    
C28   O21   S    
C18   C19   A    
C11   C12   A    
C22   C23   S    
O4    C2    A    
V4    O20   S    
C12   C13   A    
C3    C13   S    
C31   H9    S    
O2    C1    A    
C37   H10   S    
O17   V3    S    
C4    C8    S    
C38   H13   S    
C39   H18   S    
C10   C11   A    
C5    C6    D    
O13   V3    S    
C42   H26   S    
C32   O22   S    
C37   H11   S    
O3    C4    A    
C21   C34   S    
C12   O25   S    
C23   C24   S    
C38   H14   S    
C39   H17   S    
O22   C38   S    
O6    V2    S    
C41   H23   S    
C9    C14   A    
O12   C33   A    
C41   H24   S    
C2    C26   S    
C14   C15   S    
C25   C26   A    
C25   C30   A    
O14   V3    S    
C1    C18   S    
C15   C16   S    
C23   F3    S    
O1    C2    A    
O5    V1    S    
O8    C3    A    
C33   O16   A    
C40   H21   S    
O13   C36   A    
O15   V3    S    
O17   V4    S    
C17   C18   A    
O9    V2    S    
O7    V2    S    
O4    V1    S    
C16   H3    S    
O3    V1    S    
V1    O10   S    
O18   C35   A    
O16   V4    S    
C28   C29   A    
C20   C21   A    
O24   C40   S    
C5    C7    S    
C15   H2    S    
C42   H27   S    
C19   C20   A    
C32   F7    S    
C37   H12   S    
C15   O26   S    
C38   H15   S    
C39   H16   S    
C29   C30   A    
C42   H25   S    
C9    C10   A    
O15   C35   A    
C16   F2    S    
O2    V1    S    
