data_mof_unit_37636.cif
_audit_creation_date              2012-12-11T15:22:44-0500
_audit_creation_method            fapswitch 2.2
_symmetry_space_group_name_H-M    P1
_symmetry_Int_Tables_number       1
_space_group_crystal_system       monoclinic
_cell_length_a                    22.453919
_cell_length_b                    12.997773
_cell_length_c                    27.013821
_cell_angle_alpha                 90.0
_cell_angle_beta                  90.491431
_cell_angle_gamma                 90.0
_cell_volume                      7883.71911165

loop_
_atom_site_label
_atom_site_type_symbol
_atom_type_description
_atom_site_fract_x
_atom_site_fract_y
_atom_site_fract_z
_atom_type_partial_charge
C1    C     C_R   0.720656 0.344787 0.178165 0.543120
C2    C     C_R   0.479234 0.256925 0.897228 -0.133460
C3    C     C_R   0.012023 0.591464 0.555113 -0.191146
C4    C     C_R   0.500143 0.088022 0.394350 -0.157615
C5    C     C_R   0.499169 0.085062 0.606049 -0.144745
C6    C     C_R   0.000831 0.585062 0.393951 -0.144745
C7    C     C_R   0.999857 0.588022 0.605650 -0.157615
C8    C     C_R   0.739082 0.957823 0.372503 0.043365
C9    C     C_R   0.265484 0.983774 0.622470 0.033076
C10   C     C_R   0.234516 0.483775 0.377530 0.033076
C11   C     C_R   0.760918 0.457823 0.627497 0.043365
C12   C     C_R   0.687150 0.936936 0.399430 -0.176721
C13   C     C_R   0.020766 0.756925 0.102772 -0.133460
C14   C     C_R   0.297790 0.901482 0.602349 -0.173748
C15   C     C_R   0.202210 0.401483 0.397651 -0.173748
C16   C     C_R   0.812850 0.436936 0.600570 -0.176721
C17   C     C_R   0.690002 0.921692 0.449930 -0.142888
C18   C     C_R   0.300202 0.888618 0.551084 -0.130474
C19   C     C_R   0.199798 0.388618 0.448916 -0.130474
C20   C     C_R   0.809998 0.421692 0.550070 -0.142888
C21   C     C_R   0.744994 0.923300 0.474317 -0.010713
C22   C     C_R   0.273040 0.961271 0.519841 -0.009936
C23   C     C_R   0.226960 0.461272 0.480159 -0.009935
C24   C     C_R   0.979203 0.756934 0.897233 -0.134608
C25   C     C_R   0.755006 0.423299 0.525683 -0.010713
C26   C     C_R   0.797650 0.934122 0.447195 -0.107735
C27   C     C_R   0.244947 0.047105 0.540034 -0.093598
C28   C     C_R   0.255053 0.547105 0.459966 -0.093598
C29   C     C_R   0.702350 0.434121 0.552806 -0.107735
C30   C     C_R   0.795263 0.954581 0.396093 0.274219
C31   C     C_R   0.237115 0.055198 0.590587 0.277393
C32   C     C_R   0.262884 0.555198 0.409413 0.277392
C33   C     C_R   0.704737 0.454580 0.603908 0.274219
C34   C     C_R   0.786917 0.976855 0.555574 -0.092475
C35   C     C_R   0.509088 0.258328 0.051690 0.014362
C36   C     C_R   0.208017 0.961028 0.446513 -0.108693
C37   C     C_R   0.291983 0.461029 0.553487 -0.108693
C38   C     C_R   0.713083 0.476854 0.444426 -0.092475
C39   C     C_R   0.721180 0.347354 0.321674 0.541798
C40   C     C_R   0.278787 0.348105 0.678624 0.551532
C41   C     C_R   0.221213 0.848105 0.321376 0.551531
C42   C     C_R   0.778820 0.847354 0.678326 0.541798
C43   C     C_R   0.793423 0.961795 0.606195 -0.113377
C44   C     C_R   0.196211 0.938364 0.397767 -0.118492
C45   C     C_R   0.303789 0.438364 0.602233 -0.118492
C46   C     C_R   0.490941 0.258322 0.948306 0.014259
C47   C     C_R   0.706577 0.461794 0.393805 -0.113377
C48   C     C_R   0.716337 0.830843 0.603251 -0.129996
C49   C     C_R   0.297425 0.876576 0.387945 -0.087048
C50   C     C_R   0.202575 0.376576 0.612054 -0.087048
C51   C     C_R   0.783663 0.330842 0.396749 -0.129996
C52   C     C_R   0.710451 0.844908 0.552631 -0.119348
C53   C     C_R   0.309735 0.901043 0.437326 -0.105013
C54   C     C_R   0.190265 0.401043 0.562674 -0.105014
C55   C     C_R   0.789549 0.344907 0.447369 -0.119348
C56   C     C_R   0.747262 0.915268 0.528260 0.046241
C57   C     C_R   0.009059 0.758322 0.051694 0.014259
C58   C     C_R   0.264490 0.941726 0.466979 0.033196
C59   C     C_R   0.235510 0.441727 0.533021 0.033196
C60   C     C_R   0.752737 0.415267 0.471740 0.046241
C61   C     C_R   0.760049 0.885364 0.629873 0.022383
C62   C     C_R   0.239905 0.892141 0.368588 0.034663
C63   C     C_R   0.260095 0.392141 0.631412 0.034663
C64   C     C_R   0.739951 0.385364 0.370127 0.022383
C65   C     C_R   0.554854 0.158940 0.321853 0.545672
C66   C     C_R   0.445516 0.158919 0.678328 0.552721
C67   C     C_R   0.054484 0.658919 0.321672 0.552721
C68   C     C_R   0.990912 0.758328 0.948309 0.014362
C69   C     C_R   0.945146 0.658940 0.678147 0.545671
C70   C     C_R   0.731583 0.002153 0.323091 0.573541
C71   C     C_R   0.269568 0.007484 0.675260 0.559588
C72   C     C_R   0.230432 0.507484 0.324740 0.559588
C73   C     C_R   0.768417 0.502153 0.676909 0.573540
C74   C     C_R   0.516385 0.070019 0.102327 -0.132428
C75   C     C_R   0.483562 0.070004 0.897686 -0.131816
C76   C     C_R   0.016438 0.570004 0.102314 -0.131816
C77   C     C_R   0.983615 0.570019 0.897673 -0.132428
C78   C     C_R   0.506962 0.070030 0.051460 0.012389
C79   C     C_R   0.503841 0.164355 0.025823 0.064427
C80   C     C_R   0.492979 0.070021 0.948553 0.012334
C81   C     C_R   0.007021 0.570021 0.051447 0.012334
C82   C     C_R   0.993038 0.570030 0.948539 0.012389
C83   C     C_R   0.496711 0.976779 0.974390 -0.139364
C84   C     C_R   0.503183 0.976784 0.025632 -0.139505
C85   C     C_R   0.996818 0.476784 0.974368 -0.139505
C86   C     C_R   0.003289 0.476779 0.025610 -0.139364
C87   C     C_3   0.887514 0.033542 0.390775 -0.104306
C88   C     C_3   0.144191 0.119654 0.601114 -0.105870
C89   C     C_3   0.355809 0.619653 0.398886 -0.105870
C90   C     C_R   0.496142 0.164351 0.974182 0.064294
C91   C     C_3   0.612486 0.533543 0.609225 -0.104304
C92   C     C_R   0.003858 0.664351 0.025818 0.064295
C93   C     C_R   0.279341 0.344794 0.821832 0.539335
C94   C     C_R   0.996159 0.664355 0.974177 0.064427
C95   C     C_R   0.504832 0.351530 0.025631 -0.137966
C96   C     C_R   0.495241 0.351527 0.974358 -0.137759
C97   C     C_R   0.004759 0.851527 0.025642 -0.137759
C98   C     C_R   0.995168 0.851530 0.974369 -0.137966
C99   C     C_R   0.739141 0.957738 0.129796 0.024495
C100  C     C_R   0.260870 0.957773 0.870214 0.024305
C101  C     C_R   0.239130 0.457773 0.129786 0.024305
C102  C     C_R   0.760858 0.457738 0.870204 0.024494
C103  C     C_R   0.794118 0.965389 0.105813 -0.129060
C104  C     C_R   0.220659 0.844794 0.178168 0.539335
C105  C     C_R   0.205898 0.965434 0.894203 -0.130348
C106  C     C_R   0.294102 0.465434 0.105797 -0.130348
C107  C     C_R   0.705882 0.465389 0.894187 -0.129060
C108  C     C_R   0.797818 0.946325 0.055166 -0.119835
C109  C     C_R   0.202204 0.946387 0.944851 -0.119762
C110  C     C_R   0.297796 0.446387 0.055149 -0.119762
C111  C     C_R   0.702182 0.446325 0.944834 -0.119835
C112  C     C_R   0.746442 0.920757 0.027701 0.036419
C113  C     C_R   0.253584 0.920829 0.972313 0.036470
C114  C     C_R   0.246416 0.420829 0.027686 0.036470
C115  C     C_R   0.779344 0.844787 0.821835 0.543121
C116  C     C_R   0.753558 0.420757 0.972299 0.036419
C117  C     C_R   0.692258 0.907339 0.052316 -0.121426
C118  C     C_R   0.307765 0.907411 0.947696 -0.121611
C119  C     C_R   0.192235 0.407411 0.052304 -0.121610
C120  C     C_R   0.807742 0.407339 0.947684 -0.121426
C121  C     C_R   0.553926 0.157192 0.177408 0.548161
C122  C     C_R   0.446073 0.157191 0.822592 0.549508
C123  C     C_R   0.053927 0.657191 0.177407 0.549506
C124  C     C_R   0.946074 0.657192 0.822592 0.548162
C125  C     C_R   0.688765 0.924646 0.102952 -0.126092
C126  C     C_R   0.473569 0.162590 0.872098 -0.003550
C127  C     C_R   0.311251 0.924699 0.897057 -0.126048
C128  C     C_R   0.188749 0.424699 0.102943 -0.126047
C129  C     C_R   0.811235 0.424645 0.897048 -0.126092
C130  C     C_R   0.716087 0.832997 0.949317 -0.118541
C131  C     C_R   0.283943 0.833064 0.050695 -0.118783
C132  C     C_R   0.216057 0.333064 0.949305 -0.118783
C133  C     C_R   0.783913 0.332997 0.050683 -0.118541
C134  C     C_R   0.721812 0.818150 0.898624 -0.125112
C135  C     C_R   0.278210 0.818197 0.101386 -0.125301
C136  C     C_R   0.221790 0.318197 0.898614 -0.125301
C137  C     C_R   0.526424 0.162601 0.127905 -0.004760
C138  C     C_R   0.778188 0.318150 0.101376 -0.125112
C139  C     C_R   0.791655 0.960122 0.894758 -0.123942
C140  C     C_R   0.208359 0.960159 0.105256 -0.124657
C141  C     C_R   0.291640 0.460159 0.894744 -0.124657
C142  C     C_R   0.708345 0.460122 0.105242 -0.123942
C143  C     C_R   0.785213 0.975982 0.945424 -0.115837
C144  C     C_R   0.214810 0.976039 0.054592 -0.116086
C145  C     C_R   0.285190 0.476039 0.945408 -0.116086
C146  C     C_R   0.714787 0.475982 0.054576 -0.115837
C147  C     C_R   0.749035 0.910146 0.973425 0.038448
C148  C     C_R   0.973576 0.662601 0.872095 -0.004760
C149  C     C_R   0.250994 0.910214 0.026589 0.038394
C150  C     C_R   0.249006 0.410214 0.973410 0.038394
C151  C     C_R   0.750965 0.410145 0.026575 0.038448
C152  C     C_R   0.761427 0.878989 0.871278 0.024505
C153  C     C_R   0.238585 0.879018 0.128732 0.024542
C154  C     C_R   0.261415 0.379018 0.871268 0.024542
C155  C     C_R   0.738573 0.378989 0.128722 0.024505
C156  C     C_R   0.530429 0.169653 0.371817 -0.037462
C157  C     C_R   0.471810 0.169344 0.628982 -0.029606
C158  C     C_R   0.028190 0.669344 0.371018 -0.029606
C159  C     C_R   0.026431 0.662590 0.127902 -0.003550
C160  C     C_R   0.969571 0.669653 0.628182 -0.037462
C161  C     C_R   0.546889 0.255804 0.400269 -0.095027
C162  C     C_R   0.459981 0.258613 0.601254 -0.091160
C163  C     C_R   0.040019 0.758613 0.398746 -0.091161
C164  C     C_R   0.953111 0.755804 0.599731 -0.095027
C165  C     C_R   0.536165 0.258237 0.450842 0.431445
C166  C     C_R   0.471605 0.261394 0.550805 0.428953
C167  C     C_R   0.028395 0.761394 0.449195 0.428953
C168  C     C_R   0.963835 0.758237 0.549158 0.431445
C169  C     C_R   0.731160 0.002152 0.179266 0.545637
C170  C     C_R   0.520797 0.256934 0.102767 -0.134608
C171  C     C_R   0.268843 0.002161 0.820738 0.540269
C172  C     C_R   0.231157 0.502161 0.179262 0.540269
C173  C     C_R   0.768840 0.502152 0.820734 0.545637
C174  C     C_R   0.506880 0.175670 0.473645 0.069128
C175  C     C_R   0.497214 0.175749 0.527485 0.069615
C176  C     C_R   0.002786 0.675749 0.472515 0.069614
C177  C     C_R   0.993120 0.675670 0.526354 0.069128
C178  C     C_R   0.487977 0.091464 0.444887 -0.191146
C179  C     C_R   0.512144 0.088557 0.555688 -0.185969
C180  C     C_R   0.987856 0.588557 0.444312 -0.185969
Cr1   Cr    Cr6+3 0.756570 0.170940 0.251190 1.028000
Cr2   Cr    Cr6+3 0.374010 0.036240 0.749520 1.015094
Cr3   Cr    Cr6+3 0.125990 0.536240 0.250480 1.015094
Cr4   Cr    Cr6+3 0.874010 0.536240 0.749520 1.009028
Cr5   Cr    Cr6+3 0.243430 0.170940 0.748810 1.032018
Cr6   Cr    Cr6+3 0.256570 0.670940 0.251190 1.032018
Cr7   Cr    Cr6+3 0.743430 0.670940 0.748810 1.027999
Cr8   Cr    Cr6+3 0.623740 0.299110 0.249580 1.014776
Cr9   Cr    Cr6+3 0.376260 0.299110 0.750420 1.018246
Cr10  Cr    Cr6+3 0.123740 0.799110 0.249580 1.018246
Cr11  Cr    Cr6+3 0.876260 0.799110 0.750420 1.014775
Cr12  Cr    Cr6+3 0.625990 0.036240 0.250480 1.009028
F1    F     F_    0.557840 0.338213 0.477865 -0.622982
F2    F     F_    0.454046 0.345032 0.524328 -0.616809
F3    F     F_    0.045954 0.845032 0.475671 -0.616810
F4    F     F_    0.942160 0.838213 0.522135 -0.622982
H1    H     H_    0.479604 0.996748 0.878726 0.127562
H2    H     H_    0.348185 0.888490 0.967871 0.105136
H3    H     H_    0.582123 0.563665 0.637974 0.141701
H4    H     H_    0.151815 0.388490 0.032129 0.105136
H5    H     H_    0.848159 0.388408 0.967861 0.105289
H6    H     H_    0.645546 0.919028 0.120264 0.129885
H7    H     H_    0.354468 0.919078 0.879743 0.129761
H8    H     H_    0.145532 0.419078 0.120257 0.129760
H9    H     H_    0.854454 0.419027 0.879736 0.129885
H10   H     H_    0.571839 0.318598 0.384142 0.154387
H11   H     H_    0.437812 0.324002 0.617760 0.143241
H12   H     H_    0.062187 0.824002 0.382240 0.143241
H13   H     H_    0.520312 0.996767 0.121295 0.127187
H14   H     H_    0.928161 0.818598 0.615858 0.154387
H15   H     H_    0.532506 0.022205 0.538434 0.114033
H16   H     H_    0.464903 0.027420 0.461784 0.114405
H17   H     H_    0.035097 0.527420 0.538216 0.114405
H18   H     H_    0.967494 0.522205 0.461566 0.114033
H19   H     H_    0.508412 0.015203 0.626578 0.141598
H20   H     H_    0.487619 0.020404 0.373265 0.135627
H21   H     H_    0.012381 0.520404 0.626735 0.135627
H22   H     H_    0.991588 0.515203 0.373422 0.141598
H23   H     H_    0.643410 0.940209 0.382250 0.148445
H24   H     H_    0.979688 0.496767 0.878705 0.127187
H25   H     H_    0.320467 0.846958 0.626265 0.123763
H26   H     H_    0.179533 0.346958 0.373735 0.123763
H27   H     H_    0.856590 0.440208 0.617749 0.148445
H28   H     H_    0.814282 0.034045 0.537501 0.113105
H29   H     H_    0.171724 0.989795 0.468774 0.136388
H30   H     H_    0.328276 0.489796 0.531226 0.136388
H31   H     H_    0.685718 0.534044 0.462499 0.113106
H32   H     H_    0.827004 0.005423 0.626137 0.131444
H33   H     H_    0.151325 0.951105 0.384092 0.140699
H34   H     H_    0.348675 0.451106 0.615909 0.140699
H35   H     H_    0.020396 0.496748 0.121274 0.127562
H36   H     H_    0.672995 0.505423 0.373863 0.131444
H37   H     H_    0.493863 0.903888 0.955028 0.098575
H38   H     H_    0.505996 0.903896 0.045000 0.098349
H39   H     H_    0.994004 0.403896 0.955000 0.098349
H40   H     H_    0.006137 0.403888 0.044972 0.098574
H41   H     H_    0.648838 0.913351 0.470165 0.116577
H42   H     H_    0.321873 0.821255 0.535997 0.117237
H43   H     H_    0.178127 0.321255 0.464003 0.117237
H44   H     H_    0.851161 0.413350 0.529834 0.116576
H45   H     H_    0.679451 0.796708 0.532265 0.100389
H46   H     H_    0.822315 0.008258 0.874433 0.123562
H47   H     H_    0.353755 0.886642 0.452490 0.096366
H48   H     H_    0.146246 0.386642 0.547510 0.096366
H49   H     H_    0.820548 0.296707 0.467735 0.100389
H50   H     H_    0.689961 0.771387 0.620636 0.130313
H51   H     H_    0.331871 0.842514 0.365484 0.126059
H52   H     H_    0.168129 0.342513 0.634516 0.126059
H53   H     H_    0.810039 0.271386 0.379364 0.130314
H54   H     H_    0.840186 0.928045 0.466087 0.161743
H55   H     H_    0.225942 0.105993 0.516261 0.114255
H56   H     H_    0.274058 0.605993 0.483738 0.114256
H57   H     H_    0.177694 0.008284 0.125581 0.123226
H58   H     H_    0.659814 0.428044 0.533914 0.161744
H59   H     H_    0.471576 0.328636 0.877695 0.124448
H60   H     H_    0.528490 0.328643 0.122293 0.123429
H61   H     H_    0.971510 0.828643 0.877707 0.123429
H62   H     H_    0.028424 0.828636 0.122305 0.124448
H63   H     H_    0.491277 0.424342 0.955082 0.101176
H64   H     H_    0.508832 0.424346 0.044899 0.100783
H65   H     H_    0.991168 0.924346 0.955101 0.100783
H66   H     H_    0.008723 0.924342 0.044917 0.101176
H67   H     H_    0.833605 0.990530 0.125693 0.124464
H68   H     H_    0.322305 0.508284 0.874419 0.123226
H69   H     H_    0.166406 0.990565 0.874324 0.121874
H70   H     H_    0.333593 0.490565 0.125676 0.121874
H71   H     H_    0.666395 0.490530 0.874307 0.124464
H72   H     H_    0.688114 0.780707 0.969929 0.099160
H73   H     H_    0.311920 0.780784 0.030082 0.099029
H74   H     H_    0.188080 0.280784 0.969918 0.099030
H75   H     H_    0.811885 0.280707 0.030071 0.099160
H76   H     H_    0.698392 0.754201 0.881647 0.132755
H77   H     H_    0.301629 0.754245 0.118360 0.132513
H78   H     H_    0.198371 0.254244 0.881640 0.132513
H79   H     H_    0.677685 0.508258 0.125566 0.123562
H80   H     H_    0.801608 0.254200 0.118353 0.132755
H81   H     H_    0.840570 0.954104 0.037290 0.106243
H82   H     H_    0.159453 0.954167 0.962730 0.106029
H83   H     H_    0.340547 0.454167 0.037270 0.106029
H84   H     H_    0.659429 0.454104 0.962710 0.106243
H85   H     H_    0.809687 0.038141 0.962884 0.100224
H86   H     H_    0.190336 0.038200 0.037134 0.100206
H87   H     H_    0.309664 0.538200 0.962866 0.100206
H88   H     H_    0.690313 0.538141 0.037116 0.100224
H89   H     H_    0.915369 0.991420 0.418247 0.163370
H90   H     H_    0.651841 0.888409 0.032139 0.105289
H91   H     H_    0.865498 0.101154 0.408220 0.091762
H92   H     H_    0.917878 0.063664 0.362026 0.141701
H93   H     H_    0.130364 0.043886 0.616541 0.133731
H94   H     H_    0.132168 0.124634 0.561164 0.109997
H95   H     H_    0.118478 0.179647 0.620772 0.122637
H96   H     H_    0.369635 0.543886 0.383457 0.133731
H97   H     H_    0.367833 0.624632 0.438835 0.109997
H98   H     H_    0.381522 0.679647 0.379227 0.122637
H99   H     H_    0.584632 0.491424 0.581753 0.163368
H100  H     H_    0.634503 0.601155 0.591782 0.091762
O1    O     O_R   0.769900 0.064540 0.196060 -0.520101
O2    O     O_R   0.433710 0.069580 0.694600 -0.512914
O3    O     O_R   0.066290 0.569580 0.305400 -0.512914
O4    O     O_R   0.933710 0.569580 0.694600 -0.518863
O5    O     O_R   0.680760 0.993330 0.302620 -0.521048
O6    O     O_R   0.319240 0.993330 0.697380 -0.510406
O7    O     O_R   0.180760 0.493330 0.302620 -0.510406
O8    O     O_R   0.819240 0.493330 0.697380 -0.521046
O9    O     O_3   0.668770 0.168760 0.250420 -0.244649
O10   O     O_3   0.331230 0.168760 0.749580 -0.244427
O11   O     O_3   0.168770 0.668760 0.250420 -0.244427
O12   O     O_R   0.230100 0.064540 0.803940 -0.526612
O13   O     O_3   0.831230 0.668760 0.749580 -0.244649
O14   O     O_R   0.750800 0.274080 0.199250 -0.506919
O15   O     O_R   0.249200 0.274080 0.800750 -0.511116
O16   O     O_R   0.250800 0.774080 0.199250 -0.511116
O17   O     O_R   0.749200 0.774080 0.800750 -0.506918
O18   O     O_R   0.669990 0.371670 0.194150 -0.519589
O19   O     O_R   0.330010 0.371670 0.805850 -0.520440
O20   O     O_R   0.169990 0.871670 0.194150 -0.520439
O21   O     O_R   0.830010 0.871670 0.805850 -0.519590
O22   O     O_R   0.574600 0.238480 0.197800 -0.499686
O23   O     O_R   0.269900 0.564540 0.196060 -0.526611
O24   O     O_R   0.425400 0.238480 0.802200 -0.498952
O25   O     O_R   0.074600 0.738480 0.197800 -0.498951
O26   O     O_R   0.925400 0.738480 0.802200 -0.499687
O27   O     O_R   0.566130 0.068680 0.194240 -0.526020
O28   O     O_R   0.433870 0.068680 0.805760 -0.526551
O29   O     O_R   0.066130 0.568680 0.194240 -0.526551
O30   O     O_R   0.933870 0.568680 0.805760 -0.526021
O31   O     O_R   0.680610 0.992490 0.199570 -0.505979
O32   O     O_R   0.319390 0.992490 0.800430 -0.507362
O33   O     O_R   0.180610 0.492490 0.199570 -0.507362
O34   O     O_R   0.730100 0.564540 0.803940 -0.520101
O35   O     O_R   0.819390 0.492490 0.800430 -0.505978
O36   O     O_R   0.770060 0.065440 0.307230 -0.470502
O37   O     O_R   0.229940 0.065440 0.692770 -0.469841
O38   O     O_R   0.270060 0.565440 0.307230 -0.469841
O39   O     O_R   0.729940 0.565440 0.692770 -0.470503
O40   O     O_R   0.750960 0.274920 0.302300 -0.508170
O41   O     O_R   0.249040 0.274920 0.697700 -0.474279
O42   O     O_R   0.250960 0.774920 0.302300 -0.474280
O43   O     O_R   0.749040 0.774920 0.697700 -0.508170
O44   O     O_R   0.670160 0.372580 0.305320 -0.523816
O45   O     O_R   0.574760 0.239320 0.300850 -0.504950
O46   O     O_R   0.329840 0.372580 0.694680 -0.534747
O47   O     O_R   0.170160 0.872580 0.305320 -0.534747
O48   O     O_R   0.829840 0.872580 0.694680 -0.523817
O49   O     O_3   0.846336 0.966206 0.367831 -0.546781
O50   O     O_3   0.205552 0.138192 0.608733 -0.546234
O51   O     O_3   0.294448 0.638192 0.391267 -0.546234
O52   O     O_3   0.653663 0.466205 0.632169 -0.546780
O53   O     O_R   0.425240 0.239320 0.699150 -0.503935
O54   O     O_R   0.074760 0.739320 0.300850 -0.503935
O55   O     O_R   0.925240 0.739320 0.699150 -0.504949
O56   O     O_R   0.566290 0.069580 0.305400 -0.518864

loop_
_geom_bond_atom_site_label_1
_geom_bond_atom_site_label_2
_ccdc_geom_bond_type
C99   C103  A    
C21   C26   A    
C34   C56   A    
C82   C94   A    
C162  H11   S    
C100  C127  A    
C132  C150  A    
C142  C146  A    
C133  C151  A    
C109  H82   S    
C73   O39   A    
C66   O53   A    
C88   H94   S    
C87   H91   S    
C65   C156  S    
C132  H74   S    
C141  C154  A    
C133  H75   S    
C124  O26   A    
C29   C33   A    
C139  C152  A    
C71   O37   A    
C101  C128  A    
C139  H46   S    
C27   H55   S    
C5    C179  A    
C79   C90   A    
C48   H50   S    
C164  H14   S    
Cr5   O12   S    
Cr6   O11   S    
C25   C60   S    
C81   C86   A    
C141  C145  A    
C119  C128  A    
Cr1   O14   S    
Cr12  O9    S    
C130  C134  A    
C80   C83   A    
C50   H52   S    
Cr6   O42   S    
C25   C29   A    
C74   C137  A    
C125  H6    S    
Cr2   O28   S    
C27   C31   A    
C119  H4    S    
C140  C144  A    
C28   C32   A    
C72   O7    A    
C47   C64   A    
C157  C162  A    
C17   C21   A    
Cr2   O10   S    
C19   C23   A    
C89   H96   S    
C16   C20   A    
C57   C97   A    
C73   O8    A    
C92   C94   A    
C178  H16   S    
Cr4   O8    S    
C37   H30   S    
C22   C27   A    
C104  O20   A    
C70   O5    A    
C131  C149  A    
C114  C150  S    
C37   C45   A    
Cr9   O19   S    
Cr1   O40   S    
C43   C61   A    
Cr10  O20   S    
C110  H83   S    
C123  O25   A    
C49   C62   A    
C85   H39   S    
C167  F3    S    
C51   C64   A    
C87   H89   S    
C173  O34   A    
C22   C58   S    
C53   C58   A    
C3    H17   S    
C82   C85   A    
Cr1   O1    S    
C75   C126  A    
Cr2   O6    S    
Cr9   O10   S    
C52   H45   S    
C112  C117  A    
C123  C159  S    
C77   C82   A    
C96   H63   S    
C49   C53   A    
C45   C63   A    
C51   C55   A    
C68   C94   A    
C48   C52   A    
C46   C96   A    
C20   C25   A    
C35   C170  A    
C140  H57   S    
C142  H79   S    
C161  C165  A    
C1    O14   A    
C122  O24   A    
C36   H29   S    
Cr11  O13   S    
C57   C92   A    
C71   O6    A    
C69   C160  S    
C97   C98   A    
Cr3   O29   S    
C85   C86   A    
C23   C59   S    
C129  H9    S    
C88   O50   S    
C70   O36   A    
C132  C136  A    
C42   O48   A    
C105  H69   S    
C5    H19   S    
C91   H100  S    
C101  C172  S    
C121  C137  S    
C174  C175  S    
C81   C92   A    
C139  C143  A    
C83   H37   S    
C69   O4    A    
C104  C153  S    
C110  C114  A    
C145  C150  A    
C169  O31   A    
C6    H22   S    
C1    O18   A    
C50   C63   A    
C6    C158  A    
C89   H98   S    
C68   C98   A    
C54   C59   A    
C95   H64   S    
Cr9   O53   S    
C171  O12   A    
C143  H85   S    
C74   H13   S    
C120  C129  A    
Cr11  O55   S    
C11   C33   A    
Cr10  O11   S    
C47   H36   S    
C165  C174  A    
C20   H44   S    
C66   O2    A    
C86   H40   S    
C116  C120  A    
C135  H77   S    
C84   H38   S    
C44   H33   S    
C19   H43   S    
C83   C84   A    
C8    C12   A    
Cr11  O26   S    
C102  C107  A    
Cr4   O35   S    
C23   C28   A    
C168  F4    S    
C137  C170  A    
C37   C59   A    
C158  C163  A    
C38   C60   A    
C156  C161  A    
C26   C30   A    
C172  O23   A    
C32   O51   S    
C45   H34   S    
C108  H81   S    
C145  H87   S    
C146  H88   S    
C43   H32   S    
Cr12  O56   S    
C101  C106  A    
C105  C109  A    
C6    C180  A    
C130  C147  A    
C18   C22   A    
Cr3   O11   S    
C34   C43   A    
C53   H47   S    
C4    C178  A    
C67   O54   A    
C8    C70   S    
C112  C147  S    
C15   H26   S    
C180  H18   S    
C130  H72   S    
Cr4   O4    S    
C127  H7    S    
C93   O19   A    
C35   C79   A    
C104  O16   A    
Cr10  O54   S    
Cr1   O36   S    
C146  C151  A    
C176  C180  A    
C118  C127  A    
C33   O52   S    
C117  C125  A    
C13   C159  A    
C66   C157  S    
C18   H42   S    
C38   H31   S    
C118  H2    S    
C138  C155  A    
Cr8   O45   S    
C76   C159  A    
Cr10  O47   S    
Cr2   O2    S    
C14   H25   S    
C2    H59   S    
C102  C173  S    
C15   C19   A    
C39   C64   S    
C124  C148  S    
C166  C175  A    
C50   C54   A    
C40   C63   S    
C4    H20   S    
C160  C164  A    
C3    C7    A    
C172  O33   A    
Cr9   O46   S    
C168  C177  A    
C128  H8    S    
C14   C18   A    
Cr8   O18   S    
C26   H54   S    
C162  C166  A    
C40   O41   A    
C121  O27   A    
C42   O43   A    
C69   O55   A    
C12   C17   A    
C65   O45   A    
C111  C116  A    
C174  C178  A    
C140  C153  A    
C67   O3    A    
C133  C138  A    
C55   C60   A    
C107  C111  A    
C41   C62   S    
Cr3   O3    S    
Cr7   O43   S    
C75   H1    S    
Cr7   O39   S    
C106  H70   S    
C88   H93   S    
C166  F2    S    
C87   H92   S    
C11   C73   S    
Cr12  O31   S    
C7    C160  A    
Cr12  O5    S    
C24   H61   S    
C108  C112  A    
C9    C14   A    
C28   H56   S    
Cr9   O24   S    
C93   O15   A    
C11   C16   A    
C164  C168  A    
C134  C152  A    
C29   H58   S    
C77   C148  A    
C49   H51   S    
C97   H66   S    
C4    C156  A    
C5    C157  A    
C144  H86   S    
C161  H10   S    
C115  O21   A    
Cr5   O37   S    
C40   O46   A    
C121  O22   A    
C65   O56   A    
C136  H78   S    
C9    C71   S    
C21   C56   S    
C46   C90   A    
C35   C95   A    
C131  C135  A    
C170  H60   S    
C8    C30   A    
C111  H84   S    
Cr7   O34   S    
C89   H97   S    
C30   O49   S    
C91   H99   S    
Cr7   O17   S    
C41   O47   A    
C24   C68   A    
C13   C57   A    
C74   C78   A    
C16   H27   S    
Cr10  O25   S    
Cr8   O9    S    
C134  H76   S    
C122  O28   A    
Cr3   O33   S    
C88   H95   S    
C1    C155  S    
C163  H12   S    
C95   C96   A    
C102  C129  A    
C173  O35   A    
C31   O50   S    
C99   C125  A    
C2    C46   A    
C143  C147  A    
Cr8   O44   S    
C100  C105  A    
C10   C32   A    
C93   C154  S    
C36   C58   A    
C10   C15   A    
C87   O49   S    
Cr6   O38   S    
C179  H15   S    
Cr5   O15   S    
Cr2   O32   S    
Cr6   O16   S    
Cr7   O13   S    
Cr1   O9    S    
C115  C152  S    
C103  C108  A    
C142  C155  A    
C75   C80   A    
C12   H23   S    
C109  C113  A    
C91   H3    S    
C39   O40   A    
C100  C171  S    
C120  H5    S    
C136  C154  A    
C115  O17   A    
C41   O42   A    
C34   H28   S    
C113  C149  S    
Cr8   O22   S    
C24   C148  A    
C78   C79   A    
C175  C179  A    
C44   C62   A    
Cr11  O21   S    
C123  O29   A    
C138  H80   S    
C54   H48   S    
C122  C126  S    
C163  C167  A    
C13   H62   S    
C144  C149  A    
C78   C84   A    
C131  H73   S    
C76   H35   S    
C42   C61   S    
Cr3   O7    S    
C38   C47   A    
C171  O32   A    
C2    C126  A    
C176  C177  S    
C39   O44   A    
C107  H71   S    
Cr5   O10   S    
Cr11  O48   S    
C141  H68   S    
Cr12  O27   S    
Cr6   O23   S    
C106  C110  A    
C72   O38   A    
C114  C119  A    
C165  F1    S    
C76   C81   A    
C77   H24   S    
C99   C169  S    
C89   O51   S    
C135  C153  A    
C3    C177  A    
C98   H65   S    
C48   C61   A    
Cr4   O13   S    
C67   C158  S    
Cr4   O30   S    
C116  C151  S    
C80   C90   A    
C51   H53   S    
Cr5   O41   S    
C36   C44   A    
C9    C31   A    
C113  C118  A    
C7    H21   S    
C124  O30   A    
C55   H49   S    
C91   O52   S    
C103  H67   S    
C117  H90   S    
C169  O1    A    
C52   C56   A    
C10   C72   S    
C167  C176  A    
C17   H41   S    
