data_mof_unit_58917.cif
_audit_creation_date              2012-12-10T18:23:01-0500
_audit_creation_method            fapswitch 2.2
_symmetry_space_group_name_H-M    P1
_symmetry_Int_Tables_number       1
_space_group_crystal_system       triclinic
_cell_length_a                    15.038395
_cell_length_b                    14.23962
_cell_length_c                    10.625196
_cell_angle_alpha                 89.946342
_cell_angle_beta                  89.419432
_cell_angle_gamma                 90.969913
_cell_volume                      2274.84623229

loop_
_atom_site_label
_atom_site_type_symbol
_atom_type_description
_atom_site_fract_x
_atom_site_fract_y
_atom_site_fract_z
_atom_type_partial_charge
C1    C     C_R   0.327077 0.499462 0.502702 1.027218
C2    C     C_R   0.955457 0.540655 0.275609 -0.190841
C3    C     C_R   0.563008 0.798914 0.430626 0.058636
C4    C     C_R   0.437169 0.198383 0.566816 0.052425
C5    C     C_R   0.437535 0.797712 0.569046 0.050930
C6    C     C_R   0.561855 0.202187 0.429499 0.065850
C7    C     C_R   0.429879 0.897494 0.557893 -0.185842
C8    C     C_R   0.565673 0.101475 0.430899 -0.155966
C9    C     C_R   0.563633 0.899472 0.425911 -0.161145
C10   C     C_R   0.429089 0.098549 0.553206 -0.178803
C11   C     C_R   0.496565 0.948731 0.491022 -0.041169
C12   C     C_R   0.672934 0.501323 0.499023 1.011621
C13   C     C_R   0.497086 0.049522 0.491486 -0.045470
C14   C     C_R   0.356418 0.947587 0.607941 0.432451
C15   C     C_R   0.634731 0.050877 0.370584 0.412435
C16   C     C_R   0.628930 0.952676 0.357883 0.390763
C17   C     C_R   0.353962 0.046296 0.598491 0.455279
C18   C     C_R   0.500047 0.500250 0.257633 0.985949
C19   C     C_R   0.502866 0.500173 0.742036 0.980039
C20   C     C_3   0.455476 0.573775 0.038516 -0.018951
C21   C     C_3   0.552410 0.428918 0.960417 -0.040391
C22   C     C_3   0.540910 0.581912 0.959264 -0.046605
C23   C     C_R   0.953673 0.523704 0.502885 0.025493
C24   C     C_3   0.466633 0.420433 0.039732 -0.076977
C25   C     C_3   0.420289 0.492782 0.955013 -0.331161
C26   C     C_3   0.586960 0.510058 0.044657 -0.301482
C27   C     C_3   0.506732 0.501045 0.876589 -0.090952
C28   C     C_3   0.500504 0.501372 0.122594 -0.087817
C29   C     C_R   0.815334 0.513186 0.387550 0.433542
C30   C     C_R   0.185060 0.502368 0.616454 0.467071
C31   C     C_R   0.769011 0.506947 0.502363 -0.202003
C32   C     C_R   0.230987 0.500205 0.500885 -0.197953
C33   C     C_R   0.813004 0.520986 0.617773 -0.152438
C34   C     C_R   0.047086 0.520311 0.502034 0.020777
C35   C     C_R   0.186288 0.507444 0.385150 -0.183458
C36   C     C_R   0.906420 0.524428 0.618453 0.051088
C37   C     C_R   0.093952 0.520452 0.386117 0.047261
C38   C     C_2   0.402163 0.657771 0.075812 1.067659
C39   C     C_2   0.609255 0.349038 0.916908 1.052499
C40   C     C_2   0.586060 0.673579 0.923971 0.978539
C41   C     C_2   0.424498 0.330299 0.086937 0.960486
C42   C     C_3   0.783942 0.431435 0.206541 -0.237655
C43   C     C_3   0.207703 0.409309 0.790925 -0.249288
C44   C     C_2   0.761592 0.534862 0.735931 0.951468
C45   C     C_R   0.907819 0.525926 0.387874 0.003620
C46   C     C_2   0.235368 0.498341 0.263860 0.972582
C47   C     C_2   0.636779 0.746544 0.374067 1.085422
C48   C     C_2   0.384017 0.243469 0.665398 1.048958
C49   C     C_2   0.389581 0.747389 0.671208 1.078344
C50   C     C_2   0.618164 0.253703 0.339375 1.037289
C51   C     C_3   0.217070 0.882453 0.583856 -0.186649
C52   C     C_3   0.778436 0.091887 0.407580 -0.187412
C53   C     C_3   0.664696 0.918089 0.155560 -0.130238
C54   C     C_3   0.231915 0.116097 0.518223 -0.281950
C55   C     C_R   0.093032 0.516566 0.617013 -0.001203
C56   C     C_R   0.954167 0.527657 0.731522 -0.149773
C57   C     C_R   0.047309 0.538006 0.274606 -0.146805
C58   C     C_R   0.046008 0.527681 0.730183 -0.193939
H1    H     H_    0.352164 0.488920 0.917497 0.202078
H2    H     H_    0.333448 0.267958 0.201284 0.343301
H3    H     H_    0.719090 0.398029 0.187021 0.213073
H4    H     H_    0.826262 0.378466 0.253696 0.184190
H5    H     H_    0.814523 0.450117 0.114223 0.181529
H6    H     H_    0.268513 0.375892 0.825026 0.188734
H7    H     H_    0.171030 0.356897 0.732084 0.191739
H8    H     H_    0.167998 0.424529 0.876580 0.159973
H9    H     H_    0.751642 0.603365 0.901423 0.339904
H10   H     H_    0.237579 0.445824 0.087642 0.347922
H11   H     H_    0.766320 0.712992 0.383161 0.350858
H12   H     H_    0.654701 0.521524 0.081462 0.213054
H13   H     H_    0.353965 0.247430 0.850379 0.336135
H14   H     H_    0.279625 0.676933 0.729708 0.370454
H15   H     H_    0.646593 0.265775 0.154759 0.348025
H16   H     H_    0.240675 0.867778 0.486058 0.127915
H17   H     H_    0.169216 0.940715 0.584827 0.181833
H18   H     H_    0.179200 0.819473 0.616827 0.212739
H19   H     H_    0.800009 0.018381 0.422292 0.186648
H20   H     H_    0.759166 0.124121 0.499153 0.153070
H21   H     H_    0.836388 0.132491 0.369796 0.191796
H22   H     H_    0.668616 0.992306 0.123044 0.182805
H23   H     H_    0.921965 0.527515 0.822781 0.177999
H24   H     H_    0.596252 0.889049 0.141664 0.193478
H25   H     H_    0.710743 0.877178 0.095614 0.215084
H26   H     H_    0.223524 0.056093 0.452166 0.125769
H27   H     H_    0.268124 0.173732 0.468006 0.187085
H28   H     H_    0.164762 0.141746 0.543081 0.203088
H29   H     H_    0.080755 0.550106 0.185432 0.180556
H30   H     H_    0.079355 0.535458 0.819112 0.184162
H31   H     H_    0.922318 0.553238 0.187511 0.182995
H32   H     H_    0.396846 0.778928 0.173550 0.335252
H33   H     H_    0.618761 0.230203 0.815071 0.342762
H34   H     H_    0.638598 0.757997 0.788914 0.350803
N1    N     N_R   0.500000 0.750030 0.500000 -0.196884
N2    N     N_R   0.500000 0.249970 0.500000 -0.202772
O1    O     O_R   0.367850 0.580280 0.500030 -0.595693
O2    O     O_R   0.439072 0.725798 0.155235 -0.748688
O3    O     O_2   0.687040 0.345938 0.948547 -0.670774
O4    O     O_R   0.573729 0.279450 0.838949 -0.717558
O5    O     O_2   0.605312 0.729430 0.006751 -0.600398
O6    O     O_R   0.608296 0.694255 0.798988 -0.747776
O7    O     O_2   0.452049 0.254843 0.050241 -0.548900
O8    O     O_R   0.355253 0.332913 0.175094 -0.788015
O9    O     O_3   0.768247 0.514219 0.276147 -0.640065
O10   O     O_3   0.232115 0.493818 0.727719 -0.640987
O11   O     O_2   0.698805 0.482956 0.760908 -0.662146
O12   O     O_R   0.632150 0.419720 0.499970 -0.595306
O13   O     O_R   0.784959 0.607543 0.818270 -0.787921
O14   O     O_2   0.305431 0.540898 0.247504 -0.650141
O15   O     O_R   0.200984 0.441479 0.168086 -0.794682
O16   O     O_2   0.627099 0.706176 0.273745 -0.549564
O17   O     O_R   0.719623 0.748256 0.432704 -0.778916
O18   O     O_2   0.318449 0.287505 0.637675 -0.653493
O19   O     O_R   0.401000 0.222529 0.791030 -0.721806
O20   O     O_2   0.420501 0.748468 0.777073 -0.613275
O21   O     O_R   0.306787 0.704981 0.650170 -0.792524
O22   O     O_2   0.690894 0.284136 0.371098 -0.642326
O23   O     O_R   0.632150 0.580280 0.499970 -0.627974
O24   O     O_R   0.594724 0.251218 0.212923 -0.783549
O25   O     O_3   0.286707 0.901128 0.669140 -0.569644
O26   O     O_3   0.708823 0.096241 0.319770 -0.595032
O27   O     O_3   0.691421 0.909740 0.281942 -0.608353
O28   O     O_3   0.275373 0.090032 0.630375 -0.574310
O29   O     O_R   0.367850 0.419720 0.500030 -0.596010
O30   O     O_R   0.499970 0.580260 0.313950 -0.567149
O31   O     O_R   0.500030 0.419740 0.686050 -0.611543
O32   O     O_R   0.500030 0.580260 0.686050 -0.596732
O33   O     O_R   0.499970 0.419740 0.313950 -0.635812
O34   O     O_2   0.327081 0.666924 0.035063 -0.605614
Zn1   Zn    Zn3+2 0.500000 0.607200 0.500000 1.048533
Zn2   Zn    Zn3+2 0.500000 0.392800 0.500000 1.025639

loop_
_geom_bond_atom_site_label_1
_geom_bond_atom_site_label_2
_ccdc_geom_bond_type
C30   C32   A    
C21   C26   S    
C8    C13   A    
C23   C45   A    
C34   C37   A    
C11   C13   A    
C51   H16   S    
C42   O9    S    
C40   O5    D    
C54   H26   S    
C2    C57   A    
C56   H23   S    
C44   O11   D    
C41   O8    S    
C7    C11   A    
H14   O21   S    
H13   O19   S    
N2    Zn2   S    
C36   C56   A    
C35   C37   A    
C9    C16   A    
C51   H17   S    
H2    O8    S    
C39   O3    D    
C20   C25   S    
C10   C17   A    
C15   C16   A    
C33   C36   A    
C15   O26   S    
C29   O9    S    
C43   O10   S    
O31   Zn2   S    
C7    C14   A    
C41   O7    D    
C6    N2    A    
C46   O14   D    
C51   O25   S    
C31   C33   A    
C52   H21   S    
C19   C27   S    
C42   H4    S    
C1    O1    A    
C49   O20   D    
C54   O28   S    
C34   C55   A    
C24   C41   S    
C14   C17   A    
C5    C49   S    
N1    Zn1   S    
C43   H6    S    
C2    C45   A    
C32   C35   A    
C53   H22   S    
C18   C28   S    
C24   C25   S    
C5    C7    A    
C39   O4    S    
C6    C8    A    
C20   C28   S    
O32   Zn1   S    
C19   O31   A    
C1    C32   S    
C57   H29   S    
C29   C45   A    
C53   H24   S    
C2    H31   S    
C16   O27   S    
C1    O29   A    
C3    C9    A    
C18   O33   A    
C20   C38   S    
C38   O34   D    
C21   C39   S    
C43   H7    S    
C23   C34   A    
C22   C40   S    
C3    N1    A    
C6    C50   S    
C9    C11   A    
C42   H3    S    
C4    N2    A    
C52   O26   S    
C49   O21   S    
C20   C22   S    
C23   C36   A    
C8    C15   A    
C22   C27   S    
O29   Zn2   S    
C26   H12   S    
C55   C58   A    
C21   C24   S    
C30   O10   S    
C52   H19   S    
O23   Zn1   S    
H34   O6    S    
C54   H28   S    
C4    C48   S    
C44   O13   S    
O12   Zn2   S    
H15   O24   S    
C48   O18   D    
C50   O24   S    
C33   C44   S    
C24   C28   S    
C10   C13   A    
C58   H30   S    
C40   O6    S    
C54   H27   S    
C5    N1    A    
H32   O2    S    
C25   C27   S    
C47   O16   D    
C30   C55   A    
C19   O32   A    
C26   C28   S    
C53   H25   S    
O33   Zn2   S    
C12   C31   S    
C53   O27   S    
C12   O12   A    
H11   O17   S    
H9    O13   S    
C43   H8    S    
C47   O17   S    
C3    C47   S    
C56   C58   A    
O30   Zn1   S    
C50   O22   D    
H10   O15   S    
H33   O4    S    
C21   C27   S    
C12   O23   A    
C17   O28   S    
C52   H20   S    
C29   C31   A    
C14   O25   S    
C22   C26   S    
C46   O15   S    
C38   O2    S    
C51   H18   S    
O1    Zn1   S    
C25   H1    S    
C35   C46   S    
C4    C10   A    
C42   H5    S    
C37   C57   A    
C18   O30   A    
C48   O19   S    
