data_mof_unit_31949.cif
_audit_creation_date              2012-12-10T16:52:36-0500
_audit_creation_method            fapswitch 2.2
_symmetry_space_group_name_H-M    P1
_symmetry_Int_Tables_number       1
_space_group_crystal_system       triclinic
_cell_length_a                    7.837421
_cell_length_b                    8.58924
_cell_length_c                    13.77067
_cell_angle_alpha                 93.501961
_cell_angle_beta                  93.166222
_cell_angle_gamma                 93.938985
_cell_volume                      921.444820539

loop_
_atom_site_label
_atom_site_type_symbol
_atom_type_description
_atom_site_fract_x
_atom_site_fract_y
_atom_site_fract_z
_atom_type_partial_charge
C1    C     C_R   0.044606 0.794438 0.498254 0.929090
C2    C     C_R   0.936262 0.485940 0.318024 0.897135
C3    C     C_R   0.091976 0.517336 0.787258 -0.053355
C4    C     C_R   0.899431 0.451678 0.214446 -0.071263
C5    C     C_R   0.032484 0.619291 0.947967 -0.183606
C6    C     C_R   0.919707 0.282625 0.069629 -0.175606
C7    C     C_R   0.984844 0.594798 0.849083 -0.198283
C8    C     C_R   0.986011 0.340339 0.161813 -0.191238
C9    C     C_R   0.237281 0.453183 0.825012 -0.228925
C10   C     C_R   0.752063 0.508291 0.174246 -0.257135
C11   C     C_R   0.286967 0.474492 0.923893 0.072866
C12   C     C_R   0.955377 0.205551 0.501650 0.930602
C13   C     C_R   0.672393 0.438720 0.088000 0.079692
C14   C     C_R   0.186356 0.565233 0.984954 0.173262
C15   C     C_R   0.761696 0.329132 0.033005 0.171139
C16   C     C_R   0.441491 0.418937 0.961439 0.062290
C17   C     C_R   0.506102 0.474833 0.055925 0.065286
C18   C     C_2   0.208028 0.016958 0.588281 0.938008
C19   C     C_2   0.792003 0.983111 0.411422 0.941223
C20   C     C_R   0.400521 0.561109 0.116346 -0.227316
C21   C     C_R   0.533435 0.309816 0.907714 -0.224400
C22   C     C_R   0.242622 0.604138 0.081331 -0.215431
C23   C     C_R   0.690344 0.265011 0.943582 -0.218990
C24   C     C_2   0.066097 0.957966 0.515088 -0.290069
C25   C     C_2   0.933913 0.042030 0.484663 -0.293139
C26   C     C_R   0.063028 0.510864 0.682091 0.893281
H1    H     H_    0.165984 0.671207 0.129396 0.160192
H2    H     H_    0.484005 0.251836 0.839250 0.165571
H3    H     H_    0.487308 0.374071 0.427698 0.211543
H4    H     H_    0.512687 0.625977 0.572264 0.210642
H5    H     H_    0.456606 0.011518 0.633935 0.338676
H6    H     H_    0.543796 0.989693 0.365247 0.341674
H7    H     H_    0.756029 0.179844 0.901084 0.155353
H8    H     H_    0.697975 0.602739 0.214537 0.181255
H9    H     H_    0.316538 0.396168 0.774340 0.180200
H10   H     H_    0.100752 0.294729 0.193025 0.163364
H11   H     H_    0.869873 0.643168 0.820360 0.161191
H12   H     H_    0.952668 0.685194 0.994722 0.147856
H13   H     H_    0.987969 0.197363 0.028862 0.144840
H14   H     H_    0.433986 0.593228 0.192257 0.161748
N1    N     N_2   0.440860 0.456490 0.474790 -0.161550
N2    N     N_2   0.559140 0.543510 0.525210 -0.160852
O1    O     O_R   0.891570 0.738930 0.506190 -0.603879
O2    O     O_R   0.371971 0.964623 0.579900 -0.766278
O3    O     O_2   0.819848 0.892530 0.342971 -0.658049
O4    O     O_R   0.628430 0.036552 0.419289 -0.765408
O5    O     O_R   0.108430 0.261070 0.493810 -0.604424
O6    O     O_R   0.174650 0.711050 0.490030 -0.586361
O7    O     O_R   0.825350 0.288950 0.509970 -0.585571
O8    O     O_R   0.909850 0.521900 0.644940 -0.627168
O9    O     O_R   0.090150 0.478100 0.355060 -0.631152
O10   O     O_R   0.192930 0.494020 0.628780 -0.610866
O11   O     O_R   0.807070 0.505980 0.371220 -0.604056
O12   O     O_2   0.179905 0.106701 0.657091 -0.659646
Zn1   Zn    Zn3+2 0.810990 0.518620 0.510790 0.990185
Zn2   Zn    Zn3+2 0.189010 0.481380 0.489210 0.985850

loop_
_geom_bond_atom_site_label_1
_geom_bond_atom_site_label_2
_ccdc_geom_bond_type
C2    C4    S    
C19   O3    D    
N1    Zn2   S    
C16   C21   A    
C3    C9    A    
C26   O10   A    
N2    Zn1   S    
C11   C16   A    
O11   Zn1   S    
O8    Zn1   S    
O6    Zn2   S    
C20   H14   S    
C13   C17   A    
C12   C25   S    
C4    C8    A    
H5    O2    S    
C14   C22   A    
C26   O8    A    
C15   C23   A    
C12   O7    A    
C7    H11   S    
C19   O4    S    
C10   H8    S    
C10   C13   A    
C5    H12   S    
C9    C11   A    
C5    C14   A    
C16   C17   A    
C12   O5    A    
C18   C24   S    
C6    C8    A    
O1    Zn1   S    
C21   H2    S    
C20   C22   A    
C3    C7    A    
C22   H1    S    
C13   C15   A    
C21   C23   A    
C19   C25   S    
C11   C14   A    
C2    O9    A    
C18   O12   D    
C4    C10   A    
C18   O2    S    
N1    N2    D    
C17   C20   A    
C24   C25   D    
C1    C24   S    
C5    C7    A    
O9    Zn2   S    
C8    H10   S    
C9    H9    S    
C6    H13   S    
H4    N2    S    
C1    O6    A    
H3    N1    S    
C6    C15   A    
O7    Zn1   S    
H6    O4    S    
C1    O1    A    
C3    C26   S    
O10   Zn2   S    
O5    Zn2   S    
C23   H7    S    
C2    O11   A    
