data_mof_unit_48760.cif
_audit_creation_date              2012-12-10T17:02:01-0500
_audit_creation_method            fapswitch 2.2
_symmetry_space_group_name_H-M    P1
_symmetry_Int_Tables_number       1
_space_group_crystal_system       triclinic
_cell_length_a                    10.766871
_cell_length_b                    11.031904
_cell_length_c                    9.831866
_cell_angle_alpha                 111.059982
_cell_angle_beta                  98.161663
_cell_angle_gamma                 91.22578
_cell_volume                      1075.45785282

loop_
_atom_site_label
_atom_site_type_symbol
_atom_type_description
_atom_site_fract_x
_atom_site_fract_y
_atom_site_fract_z
_atom_type_partial_charge
C1    C     C_R   0.490401 0.254112 0.440669 0.877572
C2    C     C_R   0.081993 0.621587 0.604931 0.035946
C3    C     C_R   0.129766 0.512077 0.505459 -0.075817
C4    C     C_R   0.049159 0.409673 0.401767 -0.173625
C5    C     C_R   0.920888 0.411043 0.399325 -0.192309
C6    C     C_R   0.871481 0.514762 0.500696 -0.079376
C7    C     C_2   0.484268 0.114724 0.407250 -0.320630
C8    C     C_2   0.498666 0.069501 0.516656 -0.140466
C9    C     C_2   0.511950 0.885189 0.592894 -0.303039
C10   C     C_2   0.494254 0.930372 0.483557 -0.148599
C11   C     C_2   0.510662 0.510772 0.081308 -0.072073
C12   C     C_R   0.262854 0.503538 0.501988 0.793539
C13   C     C_2   0.488751 0.489851 0.918859 -0.055488
C14   C     C_R   0.508521 0.745870 0.559365 0.831557
C15   C     C_R   0.737515 0.505293 0.500147 0.780167
C16   C     C_R   0.161246 0.731290 0.702385 -0.275616
C17   C     C_R   0.111629 0.839009 0.798283 0.445574
C18   C     C_R   0.981760 0.840069 0.795525 -0.193744
C19   C     C_R   0.901766 0.733887 0.698337 -0.256068
C20   C     C_R   0.950528 0.622916 0.602635 0.104110
Cu1   Cu    Cu3+1 0.521920 0.521810 0.644910 0.959479
Cu2   Cu    Cu3+1 0.478080 0.478190 0.355090 0.985979
H1    H     H_    0.086103 0.326976 0.323983 0.182210
H2    H     H_    0.468133 0.048622 0.292477 0.185178
H3    H     H_    0.414831 0.417967 0.846156 0.174816
H4    H     H_    0.583965 0.583337 0.154186 0.160743
H5    H     H_    0.625040 0.621539 0.934045 0.200487
H6    H     H_    0.376151 0.377121 0.065614 0.233563
H7    H     H_    0.261679 0.735868 0.703235 0.187772
H8    H     H_    0.941952 0.924020 0.867263 0.180578
H9    H     H_    0.801684 0.741161 0.697159 0.165888
H10   H     H_    0.859978 0.329001 0.320578 0.161159
H11   H     H_    0.477167 0.864555 0.368586 0.180454
H12   H     H_    0.514678 0.135313 0.631627 0.192973
H13   H     H_    0.529023 0.951267 0.707684 0.185498
N1    N     N_2   0.445130 0.445430 0.137370 -0.273429
N2    N     N_2   0.554930 0.554500 0.862630 -0.283812
O1    O     O_R   0.511700 0.332330 0.577400 -0.581342
O2    O     O_R   0.474680 0.295500 0.332650 -0.542690
O3    O     O_R   0.338160 0.518420 0.622400 -0.583200
O4    O     O_R   0.301140 0.481590 0.377650 -0.560103
O5    O     O_R   0.525320 0.704500 0.667350 -0.571657
O6    O     O_R   0.488300 0.667670 0.422600 -0.584049
O7    O     O_R   0.698860 0.518410 0.622350 -0.572560
O8    O     O_R   0.661840 0.481580 0.377600 -0.579169
S1    S     S_3+6 0.212784 0.974339 0.918151 -0.010304
O9    O     O_2   0.232096 0.065119 0.838612 -0.268678
O10   O     O_2   0.156051 0.045578 0.053479 -0.309561
O11   O     O_3   0.353162 0.925592 0.968219 -0.533044
H14   H     H_    0.334424 0.867032 0.020301 0.335204

loop_
_geom_bond_atom_site_label_1
_geom_bond_atom_site_label_2
_ccdc_geom_bond_type
C12   O3    A    
C9    C14   S    
C12   O4    A    
C18   H8    S    
Cu1   O7    S    
C2    C16   A    
C9    C10   D    
C13   N2    D    
C19   C20   A    
C14   O5    A    
C5    H10   S    
C19   H9    S    
C2    C3    A    
C6    C15   S    
Cu1   N2    S    
C7    C8    D    
C8    H12   S    
Cu1   Cu2   S    
C11   C13   S    
S1    O11   S    
C13   H3    S    
C16   C17   A    
Cu1   O3    S    
C1    O1    A    
H5    N2    S    
Cu2   O2    S    
C11   N1    D    
C15   O7    A    
C17   C18   A    
C10   H11   S    
C5    C6    A    
S1    O10   D    
Cu2   O4    S    
C15   O8    A    
C2    C20   A    
C7    H2    S    
C4    C5    A    
Cu2   O8    S    
C6    C20   A    
C17   S1    S    
H6    N1    S    
C8    C10   S    
O11   H14   S    
C9    H13   S    
C4    H1    S    
C1    O2    A    
S1    O9    D    
C18   C19   A    
C3    C12   S    
C11   H4    S    
C16   H7    S    
C1    C7    S    
Cu2   O6    S    
Cu2   N1    S    
Cu1   O1    S    
Cu1   O5    S    
C14   O6    A    
C3    C4    A    
