data_mof_unit_50729.cif
_audit_creation_date              2013-03-05T15:51:12-0500
_audit_creation_method            fapswitch 2.2
_symmetry_space_group_name_H-M    P1
_symmetry_Int_Tables_number       1
_space_group_crystal_system       triclinic
_cell_length_a                    23.112451
_cell_length_b                    6.970509
_cell_length_c                    20.647642
_cell_angle_alpha                 90.154962
_cell_angle_beta                  93.14453
_cell_angle_gamma                 89.920412
_cell_volume                      3321.42645554

loop_
_atom_site_label
_atom_site_type_symbol
_atom_site_description
_atom_site_fract_x
_atom_site_fract_y
_atom_site_fract_z
_atom_type_partial_charge
O1    O     O_R   0.188030 0.379840 0.189340 -0.582422
O2    O     O_R   0.811970 0.620160 0.810660 -0.585271
O3    O     O_R   0.311970 0.879840 0.310660 -0.559558
O4    O     O_R   0.688030 0.120160 0.689340 -0.565006
O5    O     O_R   0.307090 0.708420 0.185790 -0.605088
O6    O     O_R   0.692910 0.291580 0.814210 -0.604580
O7    O     O_R   0.192910 0.208420 0.314210 -0.608916
O8    O     O_R   0.807090 0.791580 0.685790 -0.586178
C1    C     C_R   0.325826 0.540812 0.169891 1.079717
C2    C     C_R   0.673306 0.458827 0.829338 1.104402
C3    C     C_R   0.173817 0.041447 0.329849 1.043351
C4    C     C_R   0.826431 0.958838 0.670611 1.037003
O9    O     O_R   0.188180 0.709480 0.181650 -0.576513
O10   O     O_R   0.811820 0.290520 0.818350 -0.582921
O11   O     O_R   0.311820 0.209480 0.318350 -0.550918
O12   O     O_R   0.688180 0.790520 0.681650 -0.548689
O13   O     O_R   0.192210 0.880960 0.306500 -0.584623
O14   O     O_R   0.807790 0.119040 0.693500 -0.594263
O15   O     O_R   0.307790 0.380960 0.193500 -0.599741
O16   O     O_R   0.692210 0.619040 0.806500 -0.606639
C5    C     C_R   0.167721 0.540680 0.165921 1.111874
C6    C     C_R   0.832251 0.459226 0.834116 1.137541
C7    C     C_R   0.332621 0.039974 0.333898 1.033357
C8    C     C_R   0.667569 0.959624 0.665851 1.026561
O17   O     O_3   0.251460 0.546730 0.290970 -0.256373
O18   O     O_3   0.748540 0.453270 0.709030 -0.245965
O19   O     O_3   0.248540 0.046730 0.209030 -0.280376
O20   O     O_3   0.751460 0.953270 0.790970 -0.299090
V1    V     V_3+5 0.249730 0.821120 0.242400 1.265235
V2    V     V_3+5 0.750270 0.178880 0.757600 1.258330
V3    V     V_3+5 0.250270 0.321120 0.257600 1.270126
V4    V     V_3+5 0.749730 0.678880 0.742400 1.280634
C9    C     C_R   0.575153 0.113665 0.621335 0.356973
C10   C     C_R   0.424620 0.881424 0.378607 0.342215
C11   C     C_R   0.937944 0.422456 0.865597 0.314124
C12   C     C_R   0.061446 0.558083 0.135544 0.309605
C13   C     C_R   0.618447 0.971507 0.616256 -0.481052
C14   C     C_R   0.381849 0.026133 0.383340 -0.489124
C15   C     C_R   0.881537 0.468526 0.883302 -0.472522
C16   C     C_R   0.118475 0.529912 0.116727 -0.474373
C17   C     C_R   0.614612 0.839913 0.563880 0.359365
C18   C     C_R   0.385584 0.156175 0.436051 0.372712
C19   C     C_R   0.871869 0.522359 0.947705 0.309758
C20   C     C_R   0.128662 0.484246 0.051768 0.323441
C21   C     C_R   0.566017 0.843383 0.518573 -0.165339
C22   C     C_R   0.434254 0.152831 0.481149 -0.164029
C23   C     C_R   0.918644 0.524164 0.995686 -0.159007
C24   C     C_R   0.081370 0.463564 0.004800 -0.133599
C25   C     C_R   0.524158 0.992190 0.522765 -0.026313
C26   C     C_R   0.476417 0.005194 0.476463 -0.025756
C27   C     C_R   0.975893 0.485386 0.977131 -0.018451
C28   C     C_R   0.023922 0.497684 0.023623 -0.028235
C29   C     C_R   0.529870 0.128784 0.573143 0.003937
C30   C     C_R   0.470327 0.867402 0.426462 0.003130
C31   C     C_R   0.985281 0.434717 0.912147 0.007876
C32   C     C_R   0.014259 0.543877 0.088999 -0.016237
C33   C     C_R   0.558148 0.703851 0.468759 0.517764
C34   C     C_R   0.441537 0.290351 0.531675 0.520305
C35   C     C_R   0.909936 0.559211 0.062129 0.553899
C36   C     C_R   0.089620 0.404909 0.940079 0.555504
C37   C     C_R   0.509696 0.714366 0.425397 -0.253148
C38   C     C_R   0.490004 0.280107 0.574978 -0.250218
C39   C     C_R   0.957301 0.574278 0.106908 -0.312380
C40   C     C_R   0.042049 0.398200 0.894596 -0.360771
H1    H     H_    0.502590 0.597334 0.391399 0.190383
H2    H     H_    0.496543 0.395077 0.609907 0.188800
H3    H     H_    0.948345 0.607983 0.156504 0.188100
H4    H     H_    0.050336 0.365193 0.844765 0.183891
C41   C     C_3   0.050454 0.089926 0.535935 -0.531264
C42   C     C_3   0.955131 0.936352 0.471451 -0.560790
C43   C     C_3   0.455839 0.615936 0.970751 -0.538328
C44   C     C_3   0.537789 0.368208 0.023151 -0.531053
C45   C     C_3   0.018549 0.902963 0.554045 0.460413
C46   C     C_3   0.986916 0.125170 0.453831 0.520854
C47   C     C_3   0.478260 0.428701 0.939257 0.489390
C48   C     C_3   0.515521 0.555693 0.054642 0.499826
H5    H     H_    0.088845 0.153136 0.562654 0.180916
H6    H     H_    0.917446 0.866730 0.445449 0.189949
H7    H     H_    0.423114 0.716615 0.948829 0.189309
H8    H     H_    0.570687 0.267757 0.044861 0.198972
C49   C     C_1   0.871829 0.967489 0.625232 -0.279647
C50   C     C_1   0.129776 0.035736 0.377197 -0.288895
C51   C     C_1   0.627830 0.465195 0.875214 -0.284187
C52   C     C_1   0.369122 0.532445 0.121958 -0.289418
C53   C     C_3   0.989879 0.187067 0.525691 0.550830
C54   C     C_3   0.015702 0.841993 0.482348 0.575236
C55   C     C_3   0.519650 0.664931 0.990696 0.513382
C56   C     C_3   0.473796 0.318024 0.003394 0.487223
C57   C     C_3   0.958646 0.999287 0.544186 -0.195356
C58   C     C_3   0.046382 0.028073 0.463632 -0.167132
C59   C     C_3   0.541706 0.480393 0.958581 -0.139739
C60   C     C_3   0.451845 0.504049 0.035502 -0.150405
C61   C     C_1   0.910550 0.978761 0.588113 0.037457
C62   C     C_1   0.092629 0.033294 0.416609 0.087511
C63   C     C_1   0.589398 0.470089 0.913198 0.125458
C64   C     C_1   0.405779 0.523408 0.082228 0.115032
N1    N     N_R   0.573983 0.233158 0.678060 0.214911
O21   O     O_R   0.530374 0.218414 0.714989 -0.471952
O22   O     O_R   0.605157 0.388350 0.681692 -0.366608
N2    N     N_R   0.423418 0.752595 0.323970 0.217740
O23   O     O_R   0.466620 0.752660 0.286160 -0.473806
O24   O     O_R   0.390023 0.602651 0.323636 -0.353133
N3    N     N_R   0.946940 0.364662 0.800004 0.219446
O25   O     O_R   0.965740 0.192844 0.788067 -0.450382
O26   O     O_R   0.931448 0.476909 0.751851 -0.457744
N4    N     N_R   0.051627 0.597808 0.202393 0.215472
O27   O     O_R   0.024594 0.473733 0.236654 -0.436107
O28   O     O_R   0.073032 0.751646 0.230240 -0.436103
N5    N     N_R   0.662773 0.715309 0.553902 0.250845
O29   O     O_R   0.709869 0.785765 0.531798 -0.471443
O30   O     O_R   0.663034 0.540821 0.576104 -0.326715
N6    N     N_R   0.336410 0.274305 0.447772 0.247025
O31   O     O_R   0.333766 0.450032 0.426798 -0.334263
O32   O     O_R   0.291249 0.197976 0.472345 -0.480534
N7    N     N_R   0.814611 0.580160 0.963206 0.245845
O33   O     O_R   0.771772 0.459419 0.956988 -0.462527
O34   O     O_R   0.804121 0.759344 0.975991 -0.364181
N8    N     N_R   0.187531 0.466559 0.033871 0.247417
O35   O     O_R   0.219191 0.323067 0.055037 -0.435358
O36   O     O_R   0.211655 0.607245 0.004127 -0.400707
O37   O     O_3   0.593047 0.542366 0.467382 -0.626133
C65   C     C_3   0.625077 0.544013 0.410962 0.207484
H9    H     H_    0.652018 0.676338 0.409512 0.120786
H10   H     H_    0.596028 0.536330 0.366223 0.092298
C66   C     C_3   0.664949 0.368785 0.412023 -0.185856
H11   H     H_    0.694516 0.373297 0.456270 0.235278
H12   H     H_    0.638412 0.236110 0.413723 0.197287
C67   C     C_3   0.700899 0.361814 0.352199 -1.071371
H13   H     H_    0.672099 0.350500 0.307483 0.276200
H14   H     H_    0.729849 0.234486 0.354940 0.279675
H15   H     H_    0.728009 0.492773 0.349613 0.278190
O38   O     O_3   0.405255 0.448160 0.534590 -0.624079
C68   C     C_3   0.374000 0.439672 0.591536 0.214020
H16   H     H_    0.403385 0.458987 0.635568 0.089904
H17   H     H_    0.350901 0.299860 0.594669 0.116235
C69   C     C_3   0.329289 0.601627 0.589883 -0.185889
H18   H     H_    0.351796 0.741814 0.586371 0.199593
H19   H     H_    0.299162 0.584709 0.546452 0.238889
C70   C     C_3   0.294353 0.601337 0.650509 -1.058281
H20   H     H_    0.270468 0.463965 0.654193 0.278971
H21   H     H_    0.262477 0.720780 0.647785 0.277643
H22   H     H_    0.323458 0.621219 0.694638 0.278973
O39   O     O_3   0.855082 0.580867 0.084681 -0.624318
C71   C     C_3   0.837266 0.402674 0.109252 0.228470
H23   H     H_    0.867753 0.353162 0.149454 0.076361
H24   H     H_    0.834888 0.292138 0.070055 0.134577
C72   C     C_3   0.777320 0.425866 0.135913 -0.233117
H25   H     H_    0.779926 0.533285 0.175809 0.200086
H26   H     H_    0.746295 0.479123 0.096968 0.238679
C73   C     C_3   0.755093 0.236362 0.161859 -1.022338
H27   H     H_    0.751744 0.127120 0.122561 0.292315
H28   H     H_    0.711438 0.258010 0.180631 0.268391
H29   H     H_    0.784736 0.182893 0.202020 0.272714
O40   O     O_3   0.144885 0.362099 0.920934 -0.622136
C74   C     C_3   0.146508 0.180493 0.890178 0.174068
H30   H     H_    0.139466 0.200787 0.836949 0.106542
H31   H     H_    0.113345 0.078878 0.907457 0.103519
C75   C     C_3   0.206146 0.090330 0.904216 -0.212643
H32   H     H_    0.240194 0.191188 0.889575 0.211184
H33   H     H_    0.212801 0.063520 0.957113 0.250147
C76   C     C_3   0.211982 0.900663 0.867978 -0.969426
H34   H     H_    0.179103 0.796499 0.883279 0.303228
H35   H     H_    0.255737 0.839215 0.879155 0.278864
H36   H     H_    0.206221 0.923627 0.814788 0.258258
O41   O     O_3   0.036546 0.771124 0.602918 -0.657224
C77   C     C_3   0.037667 0.860460 0.664301 0.238291
H37   H     H_    0.992880 0.892592 0.678033 0.152635
H38   H     H_    0.063438 0.995457 0.664988 0.095190
C78   C     C_3   0.065591 0.723406 0.714549 -0.277296
H39   H     H_    0.043249 0.582268 0.711378 0.247445
H40   H     H_    0.111800 0.701004 0.704110 0.190304
C79   C     C_3   0.062168 0.802571 0.783184 -0.933262
H41   H     H_    0.081313 0.948288 0.786544 0.256123
H42   H     H_    0.086664 0.707606 0.817921 0.262991
H43   H     H_    0.016353 0.809210 0.796737 0.303171
O42   O     O_3   0.974653 0.261026 0.404170 -0.615255
C80   C     C_3   0.938138 0.184201 0.353572 0.174100
H44   H     H_    0.921291 0.307239 0.324050 0.161552
H45   H     H_    0.899339 0.112458 0.371879 0.072635
C81   C     C_3   0.971459 0.050632 0.309542 -0.247781
H46   H     H_    0.011513 0.123318 0.295148 0.252449
H47   H     H_    0.984141 0.917186 0.335974 0.217661
C82   C     C_3   0.934711 0.996897 0.248595 -0.904650
H48   H     H_    0.895129 0.918971 0.261664 0.249741
H49   H     H_    0.960194 0.902995 0.217393 0.294721
H50   H     H_    0.922051 0.127544 0.220633 0.253779
O43   O     O_3   0.463865 0.360859 0.875980 -0.646970
C83   C     C_3   0.403700 0.331269 0.867074 0.196575
H51   H     H_    0.379281 0.465145 0.876845 0.102358
H52   H     H_    0.389609 0.214780 0.899385 0.133689
C84   C     C_3   0.390225 0.272123 0.796478 -0.218709
H53   H     H_    0.402476 0.390582 0.764000 0.210228
H54   H     H_    0.416313 0.143430 0.785072 0.227403
C85   C     C_3   0.326197 0.225945 0.783319 -1.076997
H55   H     H_    0.314084 0.100574 0.812666 0.281946
H56   H     H_    0.317935 0.189831 0.731220 0.280865
H57   H     H_    0.298970 0.351314 0.795210 0.283465
O44   O     O_3   0.530662 0.629608 0.116928 -0.645138
C86   C     C_3   0.591346 0.635089 0.127624 0.195803
H58   H     H_    0.612397 0.706714 0.086849 0.133382
H59   H     H_    0.608610 0.486672 0.133666 0.102343
C87   C     C_3   0.605702 0.748853 0.189879 -0.218745
H60   H     H_    0.590098 0.898867 0.183452 0.202523
H61   H     H_    0.583090 0.683674 0.230591 0.231746
C88   C     C_3   0.670633 0.751378 0.207343 -1.073279
H62   H     H_    0.686191 0.603692 0.218144 0.276678
H63   H     H_    0.679514 0.841607 0.251168 0.283051
H64   H     H_    0.694536 0.811666 0.166836 0.287386
O45   O     O_3   0.030076 0.658883 0.458593 -0.595395
C89   C     C_3   0.086998 0.607042 0.481214 0.316726
H65   H     H_    0.084266 0.488943 0.516722 0.165068
H66   H     H_    0.112205 0.724626 0.506357 0.070884
C90   C     C_3   0.121212 0.537622 0.424602 -0.374460
H67   H     H_    0.098845 0.413637 0.400939 0.250830
H68   H     H_    0.123170 0.651803 0.387651 0.233843
C91   C     C_3   0.182734 0.482289 0.448001 -0.841125
H69   H     H_    0.204853 0.605400 0.472991 0.250586
H70   H     H_    0.208122 0.441985 0.406176 0.316089
H71   H     H_    0.181768 0.358887 0.481849 0.266315
O46   O     O_3   0.983386 0.380392 0.545358 -0.618059
C92   C     C_3   0.926430 0.426815 0.561292 0.316676
H72   H     H_    0.927941 0.575178 0.580830 0.161999
H73   H     H_    0.911940 0.338290 0.601688 0.108059
C93   C     C_3   0.883144 0.424050 0.502140 -0.455381
H74   H     H_    0.900634 0.509994 0.462437 0.260016
H75   H     H_    0.876216 0.274711 0.484709 0.210308
C94   C     C_3   0.824695 0.506912 0.518836 -0.825760
H76   H     H_    0.805918 0.421794 0.557960 0.275257
H77   H     H_    0.794479 0.502550 0.475190 0.270656
H78   H     H_    0.829619 0.658451 0.534825 0.273710
O47   O     O_3   0.452707 0.127314 0.002961 -0.662288
C95   C     C_3   0.422945 0.082462 0.058797 0.235604
H79   H     H_    0.406789 0.933351 0.052683 0.145559
H80   H     H_    0.383399 0.171366 0.061667 0.102679
C96   C     C_3   0.462068 0.089368 0.121473 -0.379722
H81   H     H_    0.498918 0.988926 0.117266 0.259500
H82   H     H_    0.480115 0.234768 0.130175 0.214143
C97   C     C_3   0.428309 0.036473 0.180039 -0.812137
H83   H     H_    0.388512 0.124730 0.181855 0.246608
H84   H     H_    0.455600 0.064427 0.224939 0.276888
H85   H     H_    0.416091 0.882806 0.177670 0.287684
O48   O     O_3   0.544914 0.848300 0.986810 -0.642897
C98   C     C_3   0.542934 0.910050 0.921493 0.256453
H86   H     H_    0.518800 0.046564 0.917306 0.189205
H87   H     H_    0.519942 0.809951 0.886457 0.093919
C99   C     C_3   0.604221 0.946655 0.900810 -0.370039
H88   H     H_    0.621851 0.078142 0.925008 0.218445
H89   H     H_    0.633416 0.827303 0.916174 0.229622
C100  C     C_3   0.603777 0.969532 0.827524 -0.837736
H90   H     H_    0.581161 0.848122 0.802064 0.247503
H91   H     H_    0.648501 0.971894 0.811914 0.288894
H92   H     H_    0.582120 0.106153 0.813822 0.296197

loop_
_geom_bond_atom_site_label_1
_geom_bond_atom_site_label_2
_geom_bond_distance
_ccdc_geom_bond_type
C34   C38   1.396277 A    
C75   H33   1.110900 S    
C67   H15   1.110975 S    
O1    C5    1.299100 A    
O41   C77   1.409590 S    
C50   C62   1.215077 T    
C58   C62   1.483457 S    
C55   C59   1.544298 S    
O19   V1    1.718218 S    
C9    C29   1.408045 A    
O13   V1    1.970168 S    
C78   H39   1.111827 S    
O3    C7    1.295150 A    
C72   H25   1.110945 S    
C54   O45   1.411864 S    
C60   C64   1.481267 S    
C44   C48   1.557500 S    
O15   V3    1.972464 S    
C93   H74   1.110857 S    
N8    O36   1.300797 A    
N6    O32   1.300439 A    
C76   H34   1.110664 S    
O4    V2    1.999846 S    
C88   H62   1.109147 S    
C81   H46   1.110993 S    
O7    C3    1.293341 A    
C97   H85   1.108383 S    
C21   C33   1.418284 A    
C100  H90   1.111064 S    
C26   C30   1.409701 A    
C66   H11   1.110881 S    
C87   H61   1.112249 S    
C83   C84   1.529381 S    
C40   H4    1.080948 S    
O2    V4    2.000588 S    
C72   H26   1.111860 S    
C53   O46   1.416524 S    
C91   H70   1.105845 S    
C14   C18   1.413591 A    
C92   C93   1.535851 S    
C11   N3    1.437869 S    
N5    O30   1.300842 A    
C52   C64   1.212659 T    
C77   C78   1.528325 S    
O4    C8    1.297853 A    
C70   H22   1.110976 S    
C90   C91   1.525828 S    
C85   H57   1.110949 S    
C42   H6    1.109443 S    
N4    O27   1.300810 A    
C98   H86   1.103536 S    
C97   H84   1.109297 S    
N1    O21   1.301100 A    
C2    C51   1.453547 S    
O1    V3    2.000588 S    
C83   H52   1.112637 S    
C18   C22   1.420592 A    
O3    V1    1.999847 S    
C18   N6    1.433455 S    
C42   C46   1.561702 S    
N6    O31   1.300553 A    
C75   C76   1.526807 S    
C19   N7    1.435393 S    
N8    O35   1.300812 A    
C28   C32   1.416411 A    
C41   H5    1.109881 S    
C1    O15   1.295947 A    
C43   C60   1.556800 S    
C56   C60   1.552016 S    
C2    O16   1.298933 A    
O38   C68   1.414756 S    
C98   H87   1.117443 S    
C73   H29   1.111113 S    
O2    C6    1.299724 A    
C66   C67   1.526652 S    
C10   N2    1.439091 S    
C96   H81   1.108710 S    
C91   H71   1.110790 S    
C41   C45   1.554850 S    
O44   C86   1.408388 S    
O14   V2    1.970168 S    
C20   N8    1.434383 S    
C99   H88   1.109912 S    
C9    N1    1.436821 S    
C79   H43   1.110859 S    
C47   C59   1.541389 S    
C98   C99   1.523772 S    
O11   C7    1.309112 A    
C85   H55   1.109679 S    
C44   C56   1.552675 S    
C35   O39   1.382298 S    
C86   H58   1.114771 S    
O12   C8    1.306232 A    
C17   N5    1.434347 S    
C67   H13   1.110888 S    
C74   C75   1.527653 S    
C77   H38   1.114010 S    
C78   H40   1.111799 S    
C77   H37   1.110522 S    
O10   V2    2.001172 S    
C71   C72   1.526871 S    
O20   V4    2.156605 S    
C43   H7    1.110031 S    
O46   C92   1.411242 S    
C76   H35   1.110468 S    
C79   H42   1.109105 S    
C24   C36   1.419174 A    
C74   H30   1.111570 S    
O5    V1    1.975621 S    
C90   H68   1.106697 S    
C3    C50   1.450149 S    
O17   V1    2.161313 S    
C99   H89   1.106555 S    
C100  H91   1.099661 S    
C23   C35   1.417975 A    
O7    V3    1.979595 S    
C87   H60   1.111561 S    
C38   H2    1.081877 S    
C12   N4    1.437160 S    
C84   H53   1.111828 S    
O8    V4    1.979597 S    
C12   C16   1.407811 A    
C72   C73   1.526982 S    
C91   H69   1.110804 S    
C69   H19   1.110878 S    
C54   C58   1.539434 S    
C82   H50   1.109890 S    
C34   O38   1.385445 S    
C44   C59   1.554428 S    
C53   C57   1.554280 S    
O18   V4    1.714874 S    
C69   H18   1.112054 S    
C55   O48   1.410287 S    
C15   C19   1.410209 A    
C80   H45   1.112021 S    
C90   H67   1.106397 S    
C11   C31   1.418650 A    
C87   C88   1.524188 S    
C95   C96   1.538207 S    
C9    C13   1.415047 A    
C27   C28   1.429689 A    
C67   H14   1.110456 S    
C83   H51   1.113597 S    
C69   C70   1.526377 S    
C11   C15   1.409571 A    
C82   H48   1.110878 S    
C84   H54   1.112063 S    
C39   H3    1.080982 S    
C46   O42   1.414613 S    
C92   H72   1.108944 S    
C12   C32   1.416911 A    
C37   H1    1.081601 S    
C86   C87   1.529592 S    
C49   C61   1.212536 T    
C29   C38   1.401403 A    
C94   H76   1.111168 S    
C21   C25   1.423124 A    
O8    C4    1.294644 A    
C80   C81   1.535154 S    
C51   C63   1.217156 T    
C31   C40   1.402980 A    
C94   H78   1.109970 S    
N2    O24   1.299938 A    
O45   C89   1.418368 S    
O37   C65   1.414209 S    
C32   C39   1.402436 A    
O9    C5    1.302357 A    
N3    O26   1.301272 A    
C33   C37   1.396841 A    
C74   H31   1.117746 S    
C48   C55   1.533515 S    
C86   H59   1.113162 S    
O40   C74   1.416071 S    
C48   C60   1.545519 S    
C68   C69   1.528584 S    
C43   C55   1.547688 S    
O18   V2    2.161312 S    
C71   H24   1.115142 S    
O42   C80   1.411383 S    
C94   H77   1.109797 S    
C45   O41   1.412016 S    
C10   C30   1.409817 A    
C89   H66   1.116493 S    
O19   V3    2.156605 S    
C96   H82   1.106992 S    
C75   H32   1.110714 S    
C96   C97   1.521100 S    
C73   H28   1.110489 S    
C42   C57   1.561283 S    
C65   H10   1.113000 S    
C41   C58   1.550699 S    
C42   C54   1.551383 S    
C93   C94   1.524890 S    
C85   H56   1.110473 S    
N3    O25   1.301020 A    
C76   H36   1.110999 S    
C41   C53   1.558531 S    
C79   H41   1.108962 S    
C68   H17   1.115589 S    
O16   V4    1.972464 S    
C88   H64   1.111099 S    
O9    V1    2.001171 S    
C8    C13   1.488997 S    
N7    O34   1.301103 A    
C97   H83   1.108161 S    
C3    O13   1.297234 A    
C100  H92   1.105485 S    
N1    O22   1.300303 A    
C81   H47   1.110612 S    
O6    V2    1.975619 S    
C95   H80   1.107760 S    
C10   C14   1.418282 A    
O17   V3    1.714874 S    
C47   O43   1.410932 S    
O5    C1    1.293200 A    
C71   H23   1.114162 S    
C93   H75   1.109468 S    
O6    C2    1.293841 A    
C23   C27   1.422905 A    
C70   H20   1.110826 S    
C81   C82   1.525233 S    
O11   V3    2.002274 S    
C57   C61   1.480045 S    
C30   C37   1.402046 A    
O12   V4    2.002278 S    
C89   C90   1.524157 S    
C22   C26   1.423055 A    
C35   C39   1.397521 A    
C7    C14   1.489573 S    
C36   C40   1.406983 A    
O10   C6    1.301713 A    
C65   C66   1.528529 S    
C82   H49   1.108449 S    
C84   C85   1.524508 S    
C45   C57   1.541540 S    
O43   C83   1.408025 S    
C92   H73   1.105707 S    
C48   O44   1.410455 S    
N5    O29   1.300577 A    
C43   C47   1.557314 S    
C70   H21   1.110466 S    
C46   C58   1.534821 S    
N7    O33   1.301136 A    
C68   H16   1.112570 S    
C5    C16   1.485214 S    
N4    O28   1.300829 A    
C25   C29   1.409207 A    
C6    C15   1.485300 S    
O48   C98   1.415115 S    
O20   V2    1.718219 S    
N2    O23   1.300772 A    
C78   C79   1.525459 S    
C4    C49   1.445985 S    
C27   C31   1.414683 A    
C89   H65   1.108002 S    
C46   C53   1.542012 S    
C13   C17   1.415315 A    
C36   O40   1.389432 S    
C45   C54   1.537025 S    
C80   H44   1.111116 S    
C1    C52   1.446520 S    
C33   O37   1.385021 S    
C20   C24   1.428062 A    
C47   C56   1.542814 S    
C16   C20   1.409911 A    
C56   O47   1.416363 S    
C59   C63   1.486943 S    
C44   H8    1.110031 S    
C25   C26   1.422739 A    
C4    O14   1.293874 A    
O47   C95   1.410511 S    
C66   H12   1.112123 S    
C17   C21   1.421961 A    
C73   H27   1.110928 S    
C65   H9    1.114979 S    
C24   C28   1.423296 A    
C88   H63   1.110594 S    
C19   C23   1.425771 A    
C22   C34   1.418218 A    
O39   C71   1.413335 S    
C95   H79   1.109444 S    
C99   C100  1.521481 S    
