data_mof_unit_45073.cif
_audit_creation_date              2012-12-11T14:44:19-0500
_audit_creation_method            fapswitch 2.2
_symmetry_space_group_name_H-M    P1
_symmetry_Int_Tables_number       1
_space_group_crystal_system       triclinic
_cell_length_a                    18.963097
_cell_length_b                    10.877904
_cell_length_c                    18.862394
_cell_angle_alpha                 90.062157
_cell_angle_beta                  89.785779
_cell_angle_gamma                 89.972682
_cell_volume                      3890.88109693

loop_
_atom_site_label
_atom_site_type_symbol
_atom_type_description
_atom_site_fract_x
_atom_site_fract_y
_atom_site_fract_z
_atom_type_partial_charge
C1    C     C_R   0.730167 0.377151 0.145831 0.551843
C2    C     C_R   0.992901 0.002201 0.036730 -0.138215
C3    C     C_R   0.998039 0.777801 0.037625 0.030843
C4    C     C_R   0.501783 0.053758 0.036059 -0.148503
C5    C     C_R   0.499631 0.053928 0.963439 -0.149215
C6    C     C_R   0.002010 0.553750 0.035981 -0.148935
C7    C     C_R   0.999857 0.553938 0.963362 -0.148639
C8    C     C_R   0.505270 0.502518 0.964129 -0.138613
C9    C     C_R   0.492897 0.502208 0.036779 -0.138100
C10   C     C_R   0.697597 0.865945 0.037963 -0.137060
C11   C     C_R   0.302594 0.866223 0.961955 -0.137060
C12   C     C_R   0.197592 0.365953 0.037963 -0.137396
C13   C     C_R   0.802592 0.366213 0.961950 -0.136691
C14   C     C_R   0.699868 0.853346 0.964574 -0.135141
C15   C     C_R   0.300273 0.853685 0.035348 -0.135671
C16   C     C_R   0.199862 0.353362 0.964572 -0.135564
C17   C     C_R   0.269789 0.377267 0.854121 0.550502
C18   C     C_R   0.800270 0.353678 0.035343 -0.135483
C19   C     C_R   0.751640 0.916131 0.925361 0.031843
C20   C     C_R   0.248117 0.915769 0.074519 0.030855
C21   C     C_R   0.251642 0.416130 0.925362 0.030769
C22   C     C_R   0.748105 0.415746 0.074510 0.031529
C23   C     C_R   0.798207 0.996143 0.959398 -0.125192
C24   C     C_R   0.201079 0.994849 0.040398 -0.125398
C25   C     C_R   0.298219 0.496121 0.959403 -0.125364
C26   C     C_R   0.701054 0.494798 0.040385 -0.125219
C27   C     C_R   0.797904 0.004463 0.031836 -0.121895
C28   C     C_R   0.230171 0.877159 0.145835 0.550344
C29   C     C_R   0.201425 0.003015 0.967963 -0.122624
C30   C     C_R   0.297916 0.504433 0.031842 -0.121872
C31   C     C_R   0.701401 0.502958 0.967951 -0.122471
C32   C     C_R   0.747806 0.939691 0.071953 0.034355
C33   C     C_R   0.252041 0.939180 0.927903 0.033494
C34   C     C_R   0.247809 0.439678 0.071957 0.033669
C35   C     C_R   0.752032 0.439151 0.927895 0.034590
C36   C     C_R   0.466952 0.056388 0.451394 -0.125786
C37   C     C_R   0.447646 0.054290 0.522179 -0.128617
C38   C     C_R   0.052951 0.554650 0.477842 -0.131318
C39   C     C_R   0.769790 0.877266 0.854122 0.549590
C40   C     C_R   0.033535 0.556693 0.548617 -0.130456
C41   C     C_R   0.451111 0.161398 0.563048 0.029900
C42   C     C_R   0.491984 0.165364 0.420403 0.028720
C43   C     C_R   0.007822 0.665377 0.579535 0.026791
C44   C     C_R   0.048890 0.661551 0.436949 0.028926
C45   C     C_R   0.531148 0.155582 0.146719 0.539466
C46   C     C_R   0.468912 0.155665 0.853245 0.550125
C47   C     C_R   0.031176 0.655578 0.146698 0.550330
C48   C     C_R   0.968939 0.655668 0.853225 0.539717
C49   C     C_R   0.468965 0.273494 0.530446 -0.129684
C50   C     C_R   0.509696 0.391800 0.927116 -0.079064
C51   C     C_R   0.489907 0.275252 0.459399 -0.137876
C52   C     C_R   0.009066 0.775092 0.540444 -0.134269
C53   C     C_R   0.030229 0.773429 0.469471 -0.127112
C54   C     C_R   0.789935 0.023165 0.472590 -0.125298
C55   C     C_R   0.200349 0.003437 0.531101 -0.127496
C56   C     C_R   0.298737 0.505400 0.469319 -0.127078
C57   C     C_R   0.684444 0.442578 0.541908 -0.136287
C58   C     C_R   0.791319 0.010086 0.545060 -0.134722
C59   C     C_R   0.199905 0.995244 0.458603 -0.136271
C60   C     C_R   0.299205 0.496647 0.541811 -0.136060
C61   C     C_R   0.489158 0.391213 0.073442 -0.078938
C62   C     C_R   0.679810 0.434756 0.469448 -0.129762
C63   C     C_R   0.750691 0.918802 0.577249 0.032196
C64   C     C_R   0.246782 0.916029 0.424129 0.034919
C65   C     C_R   0.253056 0.415906 0.575926 0.034891
C66   C     C_R   0.738837 0.400350 0.428781 0.036956
C67   C     C_R   0.703728 0.847742 0.536675 -0.126640
C68   C     C_R   0.297860 0.851631 0.463130 -0.138340
C69   C     C_R   0.202647 0.350405 0.536605 -0.138110
C70   C     C_R   0.802401 0.370728 0.462076 -0.142913
C71   C     C_R   0.701186 0.862876 0.463610 -0.134515
C72   C     C_R   0.009733 0.891820 0.927065 -0.078873
C73   C     C_R   0.299645 0.862755 0.536558 -0.149673
C74   C     C_R   0.200864 0.361956 0.463208 -0.149731
C75   C     C_R   0.807656 0.381997 0.535252 -0.137373
C76   C     C_R   0.746049 0.948027 0.431148 0.035796
C77   C     C_R   0.250643 0.938717 0.570811 0.036603
C78   C     C_R   0.249223 0.439382 0.429288 0.036589
C79   C     C_R   0.749015 0.421704 0.575036 0.031778
C80   C     C_R   0.740753 0.972326 0.146161 0.549127
C81   C     C_R   0.259217 0.972223 0.853786 0.549693
C82   C     C_R   0.240755 0.472320 0.146164 0.549608
C83   C     C_R   0.989199 0.891198 0.073391 -0.078996
C84   C     C_R   0.759214 0.472215 0.853783 0.547272
C85   C     C_R   0.727782 0.374672 0.354294 0.550431
C86   C     C_R   0.270249 0.378627 0.647520 0.539410
C87   C     C_R   0.229745 0.878748 0.352473 0.539356
C88   C     C_R   0.769918 0.879100 0.647846 0.549951
C89   C     C_R   0.530563 0.157230 0.353044 0.545998
C90   C     C_R   0.435588 0.153131 0.639057 0.565072
C91   C     C_R   0.064413 0.653198 0.360940 0.565162
C92   C     C_R   0.969375 0.657151 0.646930 0.547266
C93   C     C_R   0.740127 0.976332 0.356394 0.551288
C94   C     C_R   0.005272 0.002531 0.964080 -0.138495
C95   C     C_R   0.258973 0.973180 0.644590 0.540679
C96   C     C_R   0.240988 0.473437 0.355463 0.540726
C97   C     C_R   0.758572 0.469949 0.645895 0.549827
C98   C     C_R   0.497014 0.164370 0.925540 -0.001222
C99   C     C_R   0.503335 0.164051 0.074319 0.000598
C100  C     C_R   0.997130 0.664386 0.925482 0.000438
C101  C     C_R   0.003451 0.664036 0.074260 -0.000837
C102  C     C_R   0.501631 0.278041 0.962523 0.031103
C103  C     C_R   0.497957 0.277808 0.037677 0.031863
C104  C     C_R   0.001712 0.778051 0.962471 0.032106
Cr1   Cr    Cr6+3 0.772000 0.169640 0.250110 1.012943
Cr2   Cr    Cr6+3 0.383330 0.010620 0.749160 1.009183
Cr3   Cr    Cr6+3 0.116670 0.510620 0.250840 1.008853
Cr4   Cr    Cr6+3 0.883330 0.510620 0.749160 1.011822
Cr5   Cr    Cr6+3 0.228000 0.169640 0.749890 1.000016
Cr6   Cr    Cr6+3 0.272000 0.669640 0.250110 1.000183
Cr7   Cr    Cr6+3 0.728000 0.669640 0.749890 1.012737
Cr8   Cr    Cr6+3 0.614960 0.323350 0.249260 1.008658
Cr9   Cr    Cr6+3 0.385040 0.323350 0.750740 1.006445
Cr10  Cr    Cr6+3 0.114960 0.823350 0.249260 1.008436
Cr11  Cr    Cr6+3 0.885040 0.823350 0.750740 1.011128
Cr12  Cr    Cr6+3 0.616670 0.010620 0.250840 1.015456
H1    H     H_    0.505113 0.965158 0.062050 0.137431
H2    H     H_    0.334473 0.789609 0.437300 0.119173
H3    H     H_    0.166623 0.287146 0.562140 0.119724
H4    H     H_    0.847706 0.340149 0.431665 0.121846
H5    H     H_    0.665320 0.807277 0.432575 0.123251
H6    H     H_    0.339402 0.813524 0.566287 0.110584
H7    H     H_    0.161642 0.311812 0.433238 0.110745
H8    H     H_    0.858261 0.365811 0.560011 0.131515
H9    H     H_    0.521351 0.396629 0.871074 0.132233
H10   H     H_    0.477512 0.395507 0.129509 0.130373
H11   H     H_    0.021381 0.896658 0.871021 0.130222
H12   H     H_    0.497086 0.965414 0.937152 0.137405
H13   H     H_    0.977549 0.895484 0.129456 0.132955
H14   H     H_    0.010597 0.088913 0.936127 0.097937
H15   H     H_    0.986982 0.088312 0.064960 0.098845
H16   H     H_    0.510626 0.588892 0.936174 0.098441
H17   H     H_    0.487007 0.588326 0.065006 0.098326
H18   H     H_    0.657087 0.818467 0.067899 0.116248
H19   H     H_    0.343474 0.819433 0.932073 0.116447
H20   H     H_    0.157075 0.318489 0.067896 0.116239
H21   H     H_    0.843481 0.319442 0.932071 0.116340
H22   H     H_    0.663314 0.791189 0.939036 0.117772
H23   H     H_    0.005405 0.465144 0.061957 0.137627
H24   H     H_    0.337185 0.792282 0.060938 0.116957
H25   H     H_    0.163299 0.291226 0.939031 0.117529
H26   H     H_    0.837190 0.292294 0.060936 0.117131
H27   H     H_    0.838260 0.046805 0.930530 0.133388
H28   H     H_    0.160677 0.044968 0.069190 0.134110
H29   H     H_    0.338278 0.546773 0.930538 0.133542
H30   H     H_    0.660644 0.544903 0.069173 0.134171
H31   H     H_    0.836214 0.065036 0.056000 0.131629
H32   H     H_    0.162778 0.062889 0.943771 0.131535
H33   H     H_    0.336233 0.564991 0.056008 0.131667
H34   H     H_    0.997377 0.465430 0.937059 0.137197
H35   H     H_    0.662746 0.562815 0.943758 0.131579
H36   H     H_    0.466563 0.970456 0.422310 0.129965
H37   H     H_    0.432729 0.967499 0.545749 0.127013
H38   H     H_    0.068424 0.468031 0.454280 0.126920
H39   H     H_    0.034398 0.470936 0.577756 0.128026
H40   H     H_    0.469956 0.358427 0.560424 0.128495
H41   H     H_    0.508010 0.360738 0.436336 0.116052
H42   H     H_    0.989974 0.860268 0.563303 0.127596
H43   H     H_    0.028658 0.858166 0.439442 0.132350
H44   H     H_    0.827312 0.066713 0.575377 0.127498
H45   H     H_    0.822952 0.093692 0.449272 0.136885
H46   H     H_    0.159908 0.046006 0.429993 0.125479
H47   H     H_    0.338653 0.548273 0.570700 0.125076
H48   H     H_    0.629116 0.453826 0.445617 0.129985
H49   H     H_    0.162080 0.064063 0.555611 0.128049
H50   H     H_    0.336408 0.567270 0.445055 0.128162
H51   H     H_    0.638346 0.472181 0.571489 0.128415
H52   H     H_    0.672006 0.776073 0.560660 0.136305
O1    O     O_R   0.787540 0.042690 0.170470 -0.530217
O2    O     O_R   0.454130 0.051100 0.669160 -0.516705
O3    O     O_R   0.045870 0.551100 0.330840 -0.517602
O4    O     O_R   0.954130 0.551100 0.669160 -0.526964
O5    O     O_R   0.681340 0.959300 0.325510 -0.502084
O6    O     O_R   0.318660 0.959300 0.674490 -0.522902
O7    O     O_R   0.181340 0.459300 0.325510 -0.522959
O8    O     O_R   0.818660 0.459300 0.674490 -0.506573
O9    O     O_3   0.667880 0.167870 0.250070 -0.242131
O10   O     O_3   0.332120 0.167870 0.749930 -0.259252
O11   O     O_3   0.167880 0.667870 0.250070 -0.259676
O12   O     O_R   0.212460 0.042690 0.829530 -0.529722
O13   O     O_3   0.832120 0.667870 0.749930 -0.238539
O14   O     O_R   0.765660 0.292160 0.175050 -0.506006
O15   O     O_R   0.234340 0.292160 0.824950 -0.505334
O16   O     O_R   0.265660 0.792160 0.175050 -0.505331
O17   O     O_R   0.734340 0.792160 0.824950 -0.506970
O18   O     O_R   0.670190 0.408980 0.168550 -0.521839
O19   O     O_R   0.329810 0.408980 0.831450 -0.521851
O20   O     O_R   0.170190 0.908980 0.168550 -0.522123
O21   O     O_R   0.829810 0.908980 0.831450 -0.523490
O22   O     O_R   0.556580 0.251450 0.175160 -0.507535
O23   O     O_R   0.287540 0.542690 0.170470 -0.529663
O24   O     O_R   0.443420 0.251450 0.824840 -0.502576
O25   O     O_R   0.056580 0.751450 0.175160 -0.502391
O26   O     O_R   0.943420 0.751450 0.824840 -0.507878
O27   O     O_R   0.545920 0.049510 0.170320 -0.524123
O28   O     O_R   0.454080 0.049510 0.829680 -0.518393
O29   O     O_R   0.045920 0.549510 0.170320 -0.518456
O30   O     O_R   0.954080 0.549510 0.829680 -0.523907
O31   O     O_R   0.681390 0.957840 0.176710 -0.502153
O32   O     O_R   0.318610 0.957840 0.823290 -0.501332
O33   O     O_R   0.181390 0.457840 0.176710 -0.501310
O34   O     O_R   0.712460 0.542690 0.829530 -0.531761
O35   O     O_R   0.818610 0.457840 0.823290 -0.503201
O36   O     O_R   0.787500 0.044280 0.330990 -0.526543
O37   O     O_R   0.212500 0.044280 0.669010 -0.527785
O38   O     O_R   0.287500 0.544280 0.330990 -0.527574
O39   O     O_R   0.712500 0.544280 0.669010 -0.525316
O40   O     O_R   0.765610 0.293630 0.323860 -0.506060
O41   O     O_R   0.234390 0.293630 0.676140 -0.509727
O42   O     O_R   0.265610 0.793630 0.323860 -0.509660
O43   O     O_R   0.734390 0.793630 0.676140 -0.504867
O44   O     O_R   0.670140 0.410570 0.329080 -0.529610
O45   O     O_R   0.556540 0.252920 0.323970 -0.508739
O46   O     O_R   0.329860 0.410570 0.670920 -0.534884
O47   O     O_R   0.170140 0.910570 0.329080 -0.534751
O48   O     O_R   0.829860 0.910570 0.670920 -0.525375
O49   O     O_R   0.443460 0.252920 0.676030 -0.506667
O50   O     O_R   0.056540 0.752920 0.323970 -0.505030
O51   O     O_R   0.943460 0.752920 0.676030 -0.503959
O52   O     O_R   0.545870 0.051100 0.330840 -0.523524

loop_
_geom_bond_atom_site_label_1
_geom_bond_atom_site_label_2
_ccdc_geom_bond_type
C3    C104  A    
C45   O27   A    
C99   C103  A    
C95   O37   A    
C16   C21   A    
C47   C101  S    
C96   O7    A    
C55   C59   A    
C63   C88   S    
C57   C79   A    
C49   H40   S    
C36   C42   A    
C86   O41   A    
Cr7   O13   S    
C23   H27   S    
C81   O32   A    
Cr10  O20   S    
C57   C62   A    
Cr3   O3    S    
C1    O18   A    
C10   C32   A    
C10   H18   S    
C59   C64   A    
C94   H14   S    
Cr1   O1    S    
C13   C18   A    
C67   H52   S    
C9    C61   A    
Cr8   O44   S    
Cr2   O32   S    
C36   C37   A    
C61   C103  A    
C95   O6    A    
C17   O19   A    
Cr3   O33   S    
Cr4   O35   S    
C28   O20   A    
Cr8   O18   S    
C71   C76   A    
C55   C77   A    
C43   C52   A    
Cr9   O19   S    
C29   C33   A    
Cr6   O23   S    
C100  C104  A    
C60   H47   S    
C56   C78   A    
C6    C101  A    
C41   C49   A    
C6    H23   S    
C26   H30   S    
C93   O36   A    
C24   C29   A    
C90   O49   A    
C68   H2    S    
Cr12  O27   S    
C11   C15   A    
Cr5   O10   S    
C40   C43   A    
C62   H48   S    
C20   C24   A    
C78   C96   S    
C8    C9    A    
C49   C51   A    
C88   O43   A    
C8    H16   S    
C40   H39   S    
C61   H10   S    
C23   C27   A    
Cr1   O14   S    
Cr12  O52   S    
C64   C87   S    
C74   C78   A    
C42   C51   A    
Cr7   O39   S    
Cr3   O11   S    
Cr5   O15   S    
Cr9   O10   S    
C46   C98   S    
Cr6   O16   S    
C1    C22   S    
C14   H22   S    
C97   O8    A    
Cr12  O9    S    
Cr4   O30   S    
Cr2   O2    S    
Cr11  O51   S    
C2    C83   A    
Cr6   O42   S    
Cr9   O46   S    
Cr10  O50   S    
Cr5   O41   S    
C44   C53   A    
Cr7   O34   S    
Cr9   O49   S    
Cr11  O13   S    
C79   C97   S    
C80   O1    A    
C52   H42   S    
C15   C20   A    
C48   C100  S    
C66   C85   S    
C63   C67   A    
C53   H43   S    
Cr7   O17   S    
C7    C100  A    
C62   C66   A    
C72   H11   S    
C75   H8    S    
C12   C16   A    
C65   C86   S    
C45   C99   S    
C70   H4    S    
Cr3   O29   S    
Cr12  O31   S    
C30   C34   A    
C36   H36   S    
Cr1   O36   S    
Cr2   O28   S    
C72   C104  A    
C68   C73   A    
C98   C102  A    
C80   O31   A    
C69   H3    S    
C13   C35   A    
C17   C21   S    
C56   C60   A    
C48   O30   A    
C39   O17   A    
C92   O51   A    
C19   C23   A    
C86   O46   A    
C82   O23   A    
C38   C44   A    
C11   H19   S    
C76   C93   S    
C32   C80   S    
C7    H34   S    
C31   H35   S    
C17   O15   A    
C96   O38   A    
C2    C94   A    
C35   C84   S    
C90   O2    A    
C2    H15   S    
Cr2   O6    S    
C69   C74   A    
Cr6   O38   S    
C50   H9    S    
Cr8   O45   S    
C97   O39   A    
Cr5   O37   S    
C44   C91   S    
C19   C39   S    
C56   H50   S    
C54   C76   A    
Cr12  O5    S    
C84   O35   A    
Cr1   O9    S    
Cr11  O26   S    
C60   C65   A    
C50   C102  A    
Cr4   O4    S    
C22   C26   A    
C92   O4    A    
C87   O42   A    
C31   C35   A    
C4    H1    S    
C75   C79   A    
C38   H38   S    
C12   C34   A    
C85   O44   A    
C64   C68   A    
C70   C75   A    
Cr10  O11   S    
C52   C53   A    
C77   C95   S    
Cr1   O40   S    
C89   O45   A    
C15   H24   S    
C54   C58   A    
Cr10  O25   S    
C84   O34   A    
C25   C30   A    
Cr9   O24   S    
C21   C25   A    
C18   H26   S    
C73   C77   A    
C88   O48   A    
C48   O26   A    
C27   C32   A    
C18   C22   A    
C14   C19   A    
C47   O25   A    
C58   C63   A    
C81   O12   A    
C46   O24   A    
C4    C5    A    
C30   H33   S    
C82   O33   A    
C1    O14   A    
C83   H13   S    
C6    C7    A    
C57   H51   S    
C11   C33   A    
C20   C28   S    
C43   C92   S    
C87   O47   A    
C91   O3    A    
C29   H32   S    
C42   C89   S    
C37   H37   S    
C13   H21   S    
C16   H25   S    
C28   O16   A    
C72   C94   A    
C59   H46   S    
C58   H44   S    
C89   O52   A    
C38   C40   A    
Cr5   O12   S    
C3    C101  A    
C66   C70   A    
Cr3   O7    S    
Cr6   O11   S    
C24   H28   S    
C65   C69   A    
Cr4   O8    S    
C5    H12   S    
C93   O5    A    
C51   H41   S    
Cr11  O48   S    
C74   H7    S    
C8    C50   A    
C67   C71   A    
C54   H45   S    
C37   C41   A    
C102  C103  A    
Cr10  O47   S    
Cr7   O43   S    
C91   O50   A    
Cr8   O22   S    
Cr11  O21   S    
C41   C90   S    
C71   H5    S    
C45   O22   A    
C26   C31   A    
C3    C83   A    
C5    C98   A    
C27   H31   S    
C73   H6    S    
C12   H20   S    
C4    C99   A    
Cr4   O13   S    
C46   O28   A    
C39   O21   A    
C55   H49   S    
C47   O29   A    
C25   H29   S    
C34   C82   S    
C33   C81   S    
Cr2   O10   S    
C85   O40   A    
C10   C14   A    
Cr8   O9    S    
C9    H17   S    
