data_mof_unit_5627.cif
_audit_creation_date              2012-12-10T20:27:12-0500
_audit_creation_method            fapswitch 2.2
_symmetry_space_group_name_H-M    P1
_symmetry_Int_Tables_number       1
_space_group_crystal_system       triclinic
_cell_length_a                    10.52162
_cell_length_b                    10.844787
_cell_length_c                    10.044646
_cell_angle_alpha                 91.716333
_cell_angle_beta                  101.585582
_cell_angle_gamma                 91.836791
_cell_volume                      1121.43773638

loop_
_atom_site_label
_atom_site_type_symbol
_atom_type_description
_atom_site_fract_x
_atom_site_fract_y
_atom_site_fract_z
_atom_type_partial_charge
C1    C     C_R   0.507941 0.261740 0.499120 0.874811
C2    C     C_R   0.609594 0.531222 0.094127 0.156689
C3    C     C_R   0.603736 0.546409 0.951628 0.156869
C4    C     C_R   0.258757 0.485924 0.444047 0.886749
C5    C     C_R   0.401911 0.441700 0.907210 0.138909
C6    C     C_3   0.260471 0.466916 0.872978 -0.527928
C7    C     C_3   0.260189 0.478799 0.023876 -0.236673
C8    C     C_R   0.508924 0.739678 0.502094 0.886487
C9    C     C_R   0.741618 0.500193 0.554716 0.856970
C10   C     C_2   0.122859 0.439575 0.415384 -0.164161
C11   C     C_2   0.070556 0.405097 0.519922 -0.193992
C12   C     C_R   0.526519 0.131816 0.496000 -0.154395
C13   C     C_2   0.881264 0.494500 0.577793 -0.134695
C14   C     C_2   0.931471 0.402860 0.514416 -0.208408
C15   C     C_R   0.525139 0.068307 0.612768 0.023691
C16   C     C_1   0.631108 0.174470 0.830130 0.255110
C17   C     C_3   0.742519 0.522991 0.181543 -0.298525
C18   C     C_3   0.796618 0.644277 0.257943 -0.769865
C19   C     C_3   0.694245 0.642187 0.910970 -0.338703
C20   C     C_3   0.833848 0.605938 0.912690 -0.820286
C21   C     C_1   0.238072 0.605440 0.068872 0.322833
C22   C     C_1   0.959664 0.603616 0.633172 0.119307
C23   C     C_R   0.549303 0.064736 0.379194 0.095858
C24   C     C_1   0.057431 0.407227 0.277642 0.166059
C25   C     C_3   0.594189 0.126941 0.260512 -0.353188
C26   C     C_3   0.481211 0.147415 0.141913 -0.785089
C27   C     C_1   0.541081 0.868999 0.250473 0.235178
C28   C     C_1   0.451431 0.874554 0.817594 0.187073
C29   C     C_1   0.686396 0.924383 0.837245 0.145816
C30   C     C_R   0.539995 0.934476 0.378568 -0.042918
C31   C     C_R   0.529367 0.872508 0.500878 -0.199828
C32   C     C_R   0.537599 0.945560 0.618245 0.020643
C33   C     C_3   0.551832 0.948657 0.770005 -0.063364
C34   C     C_3   0.525079 0.088199 0.760441 -0.263497
C35   C     C_R   0.399072 0.448843 0.047214 0.097796
H1    H     H_    0.869997 0.330018 0.454969 0.151593
H2    H     H_    0.746557 0.440776 0.243689 0.209043
H3    H     H_    0.809768 0.492854 0.118549 0.203242
H4    H     H_    0.839477 0.507274 0.882571 0.280468
H5    H     H_    0.872516 0.665587 0.842350 0.264890
H6    H     H_    0.899253 0.627338 0.012103 0.249238
H7    H     H_    0.653223 0.673227 0.809397 0.251658
H8    H     H_    0.695776 0.724027 0.979399 0.201651
H9    H     H_    0.400305 0.193130 0.176831 0.270442
H10   H     H_    0.515759 0.206422 0.067105 0.227658
H11   H     H_    0.443149 0.058322 0.089614 0.250393
H12   H     H_    0.239872 0.552713 0.815723 0.237140
H13   H     H_    0.651271 0.214079 0.293629 0.206122
H14   H     H_    0.666046 0.069805 0.222311 0.190999
H15   H     H_    0.203485 0.382749 0.827956 0.185014
H16   H     H_    0.200342 0.406047 0.059452 0.176578
H17   H     H_    0.127711 0.413349 0.620920 0.182845
H18   H     H_    0.428113 0.114163 0.777907 0.150485
H19   H     H_    0.818847 0.714899 0.187993 0.233369
H20   H     H_    0.727337 0.683992 0.315262 0.275832
H21   H     H_    0.888440 0.627005 0.329853 0.244482
N1    N     N_R   0.499160 0.499140 0.142600 -0.129309
N2    N     N_R   0.499160 0.499180 0.856960 -0.130585
N3    N     N_1   0.713840 0.242120 0.884707 -0.209848
N4    N     N_1   0.220515 0.704848 0.104314 -0.191119
N5    N     N_1   0.023341 0.690659 0.675248 -0.196991
N6    N     N_1   0.006413 0.377603 0.167903 -0.248680
N7    N     N_1   0.541452 0.817859 0.147824 -0.216818
N8    N     N_1   0.372103 0.816118 0.854425 -0.178738
N9    N     N_1   0.793377 0.910014 0.888636 -0.202799
O1    O     O_R   0.500020 0.316790 0.614700 -0.610675
O2    O     O_R   0.500000 0.316760 0.385350 -0.623742
O3    O     O_R   0.317820 0.500020 0.571850 -0.606706
O4    O     O_R   0.317800 0.499980 0.342510 -0.606336
O5    O     O_R   0.500000 0.683240 0.614650 -0.626107
O6    O     O_R   0.499980 0.683210 0.385300 -0.602546
O7    O     O_R   0.682200 0.500020 0.657490 -0.603634
O8    O     O_R   0.682180 0.499980 0.428150 -0.626898
Zn1   Zn    Zn3+2 0.500010 0.500020 0.653140 0.952565
Zn2   Zn    Zn3+2 0.499990 0.499980 0.346860 0.944497

loop_
_geom_bond_atom_site_label_1
_geom_bond_atom_site_label_2
_ccdc_geom_bond_type
O5    Zn1   S    
C9    O7    A    
C3    C19   S    
C6    C7    S    
C29   C33   S    
O3    Zn1   S    
C15   C34   S    
C8    O5    A    
C31   C32   A    
C12   C23   A    
C12   C15   A    
C18   H21   S    
C3    N2    A    
C35   N1    A    
C18   H19   S    
C32   C33   S    
N1    Zn2   S    
C19   H7    S    
C17   C18   S    
C2    N1    A    
C7    H16   S    
C15   C32   A    
C17   H2    S    
C13   C14   D    
C6    H15   S    
C27   C30   S    
O6    Zn2   S    
O8    Zn2   S    
C25   H13   S    
C5    C6    S    
C1    C12   S    
C27   N7    T    
C5    N2    A    
C34   H18   S    
C29   N9    T    
C28   N8    T    
C4    O4    A    
C1    O2    A    
C19   H8    S    
C13   C22   S    
C33   C34   S    
C18   H20   S    
C2    C3    A    
C17   H3    S    
C23   C25   S    
C14   H1    S    
C30   C31   A    
C20   H5    S    
C11   C14   S    
C25   H14   S    
O2    Zn2   S    
C28   C33   S    
C26   H11   S    
O4    Zn2   S    
C26   H9    S    
O1    Zn1   S    
C23   C30   A    
C5    C35   A    
C22   N5    T    
C6    H12   S    
N2    Zn1   S    
C21   N4    T    
O7    Zn1   S    
C10   C11   D    
C4    O3    A    
C20   H4    S    
C9    C13   S    
C8    O6    A    
C24   N6    T    
C11   H17   S    
C26   H10   S    
C16   C34   S    
C25   C26   S    
C7    C21   S    
C8    C31   S    
C7    C35   S    
C9    O8    A    
C10   C24   S    
C19   C20   S    
C4    C10   S    
C20   H6    S    
C2    C17   S    
C16   N3    T    
C1    O1    A    
