data_mof_unit_52671.cif
_audit_creation_date              2012-12-11T15:19:29-0500
_audit_creation_method            fapswitch 2.2
_symmetry_space_group_name_H-M    P1
_symmetry_Int_Tables_number       1
_space_group_crystal_system       triclinic
_cell_length_a                    19.985197
_cell_length_b                    6.89155
_cell_length_c                    18.179456
_cell_angle_alpha                 89.99923
_cell_angle_beta                  104.233239
_cell_angle_gamma                 90.001206
_cell_volume                      2426.97738651

loop_
_atom_site_label
_atom_site_type_symbol
_atom_type_description
_atom_site_fract_x
_atom_site_fract_y
_atom_site_fract_z
_atom_type_partial_charge
O1    O     O_R   0.312200 0.620210 0.189560 -0.533353
O2    O     O_R   0.687800 0.379790 0.810440 -0.548522
O3    O     O_R   0.187800 0.120210 0.310440 -0.533317
O4    O     O_R   0.812200 0.879790 0.689560 -0.548500
O5    O     O_R   0.171590 0.286140 0.165000 -0.539553
O6    O     O_R   0.828410 0.713860 0.835000 -0.536893
O7    O     O_R   0.328410 0.786140 0.335000 -0.539517
O8    O     O_R   0.671590 0.213860 0.665000 -0.536895
C1    C     C_R   0.145700 0.459500 0.143843 0.709890
C2    C     C_R   0.854201 0.540475 0.856277 0.732246
C3    C     C_R   0.354301 0.959501 0.356156 0.709830
C4    C     C_R   0.645799 0.040474 0.643724 0.732203
O9    O     O_R   0.310670 0.290220 0.180540 -0.551751
O10   O     O_R   0.689330 0.709780 0.819460 -0.541744
O11   O     O_R   0.189330 0.790220 0.319460 -0.551734
O12   O     O_R   0.810670 0.209780 0.680540 -0.541760
O13   O     O_R   0.327870 0.124170 0.326080 -0.527996
O14   O     O_R   0.672130 0.875830 0.673920 -0.531708
O15   O     O_R   0.172130 0.624170 0.173920 -0.527991
O16   O     O_R   0.827870 0.375830 0.826080 -0.531717
C5    C     C_R   0.329303 0.459496 0.162541 0.751303
C6    C     C_R   0.669488 0.540290 0.836205 0.762426
C7    C     C_R   0.170695 0.959494 0.337456 0.751254
C8    C     C_R   0.830512 0.040295 0.663794 0.762456
O17   O     O_3   0.255480 0.455050 0.297740 -0.370583
O18   O     O_3   0.744520 0.544950 0.702260 -0.378287
O19   O     O_3   0.244520 0.955050 0.202260 -0.370611
O20   O     O_3   0.755480 0.044950 0.797740 -0.378268
V1    V     V_3+5 0.248980 0.178550 0.241140 1.456192
V2    V     V_3+5 0.751020 0.821450 0.758860 1.428766
V3    V     V_3+5 0.251020 0.678550 0.258860 1.456227
V4    V     V_3+5 0.748980 0.321450 0.741140 1.428730
C9    C     C_R   0.950474 0.074851 0.646692 -0.152475
C10   C     C_R   0.050028 0.962777 0.352554 -0.155992
C11   C     C_R   0.549509 0.574504 0.853282 -0.152456
C12   C     C_R   0.449978 0.463108 0.147460 -0.156020
C13   C     C_R   0.880767 0.029001 0.615925 -0.214259
C14   C     C_R   0.121243 0.966571 0.386322 -0.192573
C15   C     C_R   0.619237 0.528968 0.884078 -0.214242
C16   C     C_R   0.378762 0.466583 0.113683 -0.192538
C17   C     C_R   0.858862 0.967584 0.540187 0.320741
C18   C     C_R   0.145562 0.976191 0.465760 0.348258
C19   C     C_R   0.641160 0.467741 0.959840 0.320753
C20   C     C_R   0.354449 0.475856 0.034240 0.348104
C21   C     C_R   0.905235 0.974690 0.491992 -0.014014
C22   C     C_R   0.097890 0.997114 0.512454 -0.022649
C23   C     C_R   0.594782 0.474834 0.008031 -0.014014
C24   C     C_R   0.402117 0.496777 0.987541 -0.022666
C25   C     C_R   0.977185 0.998734 0.524853 0.010030
C26   C     C_R   0.025475 0.984640 0.478535 0.005705
C27   C     C_R   0.522825 0.498642 0.975156 0.010018
C28   C     C_R   0.474535 0.484578 0.021475 0.005762
C29   C     C_R   0.000519 0.038754 0.604006 0.019021
C30   C     C_R   0.001218 0.958341 0.398349 0.020225
C31   C     C_R   0.499480 0.538346 0.895981 0.019004
C32   C     C_R   0.498794 0.458591 0.101674 0.020196
C33   C     C_R   0.881731 0.953460 0.412329 -0.105149
C34   C     C_R   0.120566 0.024399 0.592555 -0.103923
C35   C     C_R   0.618287 0.453801 0.087704 -0.105177
C36   C     C_R   0.379437 0.523747 0.907423 -0.104122
C37   C     C_R   0.928941 0.933474 0.366829 -0.110725
C38   C     C_R   0.072660 0.040406 0.637600 -0.109099
C39   C     C_R   0.571076 0.433910 0.133211 -0.110718
C40   C     C_R   0.427343 0.539627 0.862375 -0.109034
C41   C     C_1   0.583318 0.027488 0.581466 -0.152083
C42   C     C_1   0.416788 0.972424 0.418408 -0.162124
C43   C     C_1   0.916681 0.527489 0.918535 -0.152070
C44   C     C_1   0.083213 0.472424 0.081591 -0.162067
C45   C     C_1   0.530942 0.010841 0.530087 0.047056
C46   C     C_1   0.469158 0.988999 0.469799 0.042432
C47   C     C_1   0.969056 0.510842 0.969915 0.047032
C48   C     C_1   0.030842 0.489000 0.030201 0.042456
C49   C     C_1   0.967941 0.168667 0.720526 0.324064
N1    N     N_1   0.981102 0.244240 0.779209 -0.342612
C50   C     C_1   0.029415 0.979212 0.270318 0.322493
N2    N     N_1   0.014012 0.993285 0.204841 -0.332157
C51   C     C_1   0.531993 0.668078 0.779401 0.324039
N3    N     N_1   0.518790 0.743453 0.720678 -0.342630
C52   C     C_1   0.470581 0.479938 0.229684 0.322524
N4    N     N_1   0.485976 0.494326 0.295150 -0.332142
O21   O     O_3   0.790622 0.911777 0.512250 -0.583010
C53   C     C_3   0.780998 0.717251 0.533072 0.086904
H1    H     H_    0.740617 0.717772 0.565483 0.163543
H2    H     H_    0.828044 0.647357 0.569706 0.110353
C54   C     C_3   0.755054 0.593123 0.462087 -0.335893
H3    H     H_    0.708728 0.662011 0.424682 0.238262
H4    H     H_    0.796021 0.582322 0.430572 0.198654
C55   C     C_3   0.736073 0.389375 0.482767 -0.719625
H5    H     H_    0.781685 0.318174 0.520161 0.229219
H6    H     H_    0.718553 0.301441 0.430438 0.270392
H7    H     H_    0.693723 0.395535 0.512463 0.224135
O22   O     O_3   0.216131 0.989820 0.497497 -0.588903
C56   C     C_3   0.251187 0.809543 0.499610 0.064123
H8    H     H_    0.303291 0.829735 0.538064 0.172668
H9    H     H_    0.260982 0.774968 0.444071 0.131481
C57   C     C_3   0.217281 0.635667 0.529638 -0.381714
H10   H     H_    0.213606 0.664430 0.588574 0.220074
H11   H     H_    0.164586 0.608693 0.493544 0.188988
C58   C     C_3   0.259778 0.452396 0.529103 -0.692026
H12   H     H_    0.259761 0.411567 0.469966 0.230217
H13   H     H_    0.236664 0.332926 0.554961 0.263946
H14   H     H_    0.313781 0.473814 0.562423 0.247738
O23   O     O_3   0.709411 0.412065 0.987793 -0.583013
C59   C     C_3   0.719083 0.217560 0.966981 0.086925
H15   H     H_    0.759491 0.218156 0.934605 0.163437
H16   H     H_    0.672064 0.147612 0.930314 0.110391
C60   C     C_3   0.745000 0.093433 0.037972 -0.335950
H17   H     H_    0.791309 0.162338 0.075400 0.238208
H18   H     H_    0.704012 0.082602 0.069456 0.198657
C61   C     C_3   0.764006 0.889699 0.017303 -0.719646
H19   H     H_    0.718407 0.818462 0.979895 0.229257
H20   H     H_    0.781518 0.801774 0.069636 0.270416
H21   H     H_    0.806368 0.895898 0.987627 0.224135
O24   O     O_3   0.283873 0.489120 0.002490 -0.588956
C62   C     C_3   0.248931 0.308665 0.000406 0.064283
H22   H     H_    0.196845 0.328535 0.961875 0.172845
H23   H     H_    0.239087 0.274153 0.055931 0.131600
C63   C     C_3   0.283008 0.134904 0.970526 -0.381870
H24   H     H_    0.286845 0.163689 0.911648 0.220013
H25   H     H_    0.335650 0.108090 0.006780 0.188987
C64   C     C_3   0.240547 0.951504 0.970918 -0.692210
H26   H     H_    0.240363 0.910714 0.030005 0.230263
H27   H     H_    0.263841 0.832120 0.945218 0.263776
H28   H     H_    0.186606 0.972704 0.937376 0.247834
C65   C     C_1   0.808708 0.967578 0.374378 0.396475
N5    N     N_1   0.750820 0.979422 0.343563 -0.319151
C66   C     C_1   0.193384 0.036950 0.631639 0.381955
N6    N     N_1   0.251048 0.046830 0.663616 -0.317724
C67   C     C_1   0.691308 0.467985 0.125649 0.396488
N7    N     N_1   0.749196 0.479878 0.156461 -0.319062
C68   C     C_1   0.306619 0.536127 0.868328 0.381897
N8    N     N_1   0.248953 0.545879 0.836348 -0.317549
C69   C     C_1   0.900958 0.872225 0.288694 0.333616
N9    N     N_1   0.877822 0.822644 0.226802 -0.307840
C70   C     C_1   0.099627 0.039405 0.719668 0.348841
N10   N     N_1   0.121834 0.037780 0.784782 -0.326220
C71   C     C_1   0.599064 0.372920 0.211378 0.333687
N11   N     N_1   0.622204 0.323545 0.273296 -0.307964
C72   C     C_1   0.400397 0.537972 0.780307 0.348833
N12   N     N_1   0.378213 0.535806 0.715192 -0.326195

loop_
_geom_bond_atom_site_label_1
_geom_bond_atom_site_label_2
_ccdc_geom_bond_type
C34   C38   A    
O1    C5    A    
C56   H8    S    
O19   V1    S    
O13   V1    S    
C49   N1    T    
O3    C7    A    
O15   V3    S    
C59   H16   S    
O21   C53   S    
C37   C69   S    
C70   N10   T    
C42   C46   T    
C2    C43   S    
O7    C3    A    
C21   C33   A    
C26   C30   A    
O9    V1    S    
C14   C18   A    
C33   C65   S    
O4    C8    A    
C25   C29   A    
C62   H22   S    
C57   C58   S    
O1    V3    S    
O2    V4    S    
C18   C22   A    
C33   C37   A    
O3    V1    S    
C61   H19   S    
C12   C16   A    
C63   H24   S    
C1    O15   A    
C35   C67   S    
C2    O16   A    
C64   H28   S    
C57   H11   S    
O2    C6    A    
C60   H17   S    
O14   V2    S    
C16   C20   A    
O5    V1    S    
C3    C42   S    
O8    C4    A    
C10   C50   S    
O11   C7    A    
C20   O24   S    
C34   C66   S    
O12   C8    A    
C22   C34   A    
O17   V1    S    
C39   C71   S    
C19   O23   S    
O10   V2    S    
C36   C68   S    
C59   H15   S    
C24   C36   A    
C61   H20   S    
C54   H4    S    
C9    C29   A    
O7    V3    S    
O19   V3    S    
C27   C28   A    
O8    V4    S    
O20   V4    S    
O18   V4    S    
C15   C19   A    
C27   C31   A    
C62   H23   S    
C51   N3    T    
C11   C31   A    
C11   C51   S    
C9    C13   A    
C63   C64   S    
C38   C70   S    
C11   C15   A    
C50   N2    T    
C57   H10   S    
O5    C1    A    
C12   C32   A    
C69   N9    T    
C29   C38   A    
C4    C41   S    
C58   H12   S    
C55   H7    S    
C21   C25   A    
C44   C48   T    
C62   C63   S    
C17   O21   S    
C31   C40   A    
C8    C13   S    
C32   C39   A    
O9    C5    A    
O11   V3    S    
C61   H21   S    
C64   H26   S    
O18   V2    S    
C9    C49   S    
C58   H13   S    
C55   H6    S    
C10   C30   A    
C56   C57   S    
C53   H2    S    
C65   N5    T    
C60   C61   S    
C66   N6    T    
C53   C54   S    
C67   N7    T    
O16   V4    S    
C54   C55   S    
C3    O13   A    
C18   O22   S    
O6    V2    S    
C10   C14   A    
O17   V3    S    
C12   C52   S    
C54   H3    S    
O6    C2    A    
C23   C27   A    
C72   N12   T    
O24   C62   S    
C30   C37   A    
O12   V4    S    
C7    C14   S    
C71   N11   T    
C22   C26   A    
C35   C39   A    
C36   C40   A    
O10   C6    A    
O20   V2    S    
C1    C44   S    
C47   C48   S    
C60   H18   S    
C5    C16   S    
C28   C32   A    
C41   C45   T    
C6    C15   S    
O22   C56   S    
C43   C47   T    
C13   C17   A    
C45   C46   S    
C63   H25   S    
C64   H27   S    
C23   C35   A    
C52   N4    T    
C20   C24   A    
C24   C28   A    
C58   H14   S    
C55   H5    S    
C56   H9    S    
C25   C26   A    
C4    O14   A    
O23   C59   S    
C17   C21   A    
C53   H1    S    
C19   C23   A    
C59   C60   S    
O4    V2    S    
C68   N8    T    
C40   C72   S    
