data_mof_unit_39404.cif
_audit_creation_date              2012-12-10T19:44:27-0500
_audit_creation_method            fapswitch 2.2
_symmetry_space_group_name_H-M    P1
_symmetry_Int_Tables_number       1
_space_group_crystal_system       triclinic
_cell_length_a                    10.853205
_cell_length_b                    12.285991
_cell_length_c                    13.440375
_cell_angle_alpha                 116.532738
_cell_angle_beta                  79.061196
_cell_angle_gamma                 100.475594
_cell_volume                      1564.6479264

loop_
_atom_site_label
_atom_site_type_symbol
_atom_type_description
_atom_site_fract_x
_atom_site_fract_y
_atom_site_fract_z
_atom_type_partial_charge
C1    C     C_R   0.504872 0.854053 0.288506 0.769393
C2    C     C_R   0.678672 0.734622 0.724689 -0.182368
C3    C     C_R   0.043110 0.941542 0.554161 -0.251441
C4    C     C_R   0.129479 0.002592 0.499335 -0.081704
C5    C     C_R   0.085532 0.064258 0.448599 -0.006673
C6    C     C_R   0.956628 0.063758 0.454439 -0.251046
C7    C     C_R   0.870077 0.001046 0.507224 -0.059036
C8    C     C_R   0.913882 0.938873 0.558180 0.043519
C9    C     C_R   0.166795 0.245487 0.409171 -0.153437
C10   C     C_R   0.214719 0.293060 0.331046 -0.138055
C11   C     C_R   0.261887 0.215693 0.222552 -0.135863
C12   C     C_R   0.736742 0.000567 0.503215 0.831553
C13   C     C_R   0.269927 0.092804 0.193956 -0.146575
C14   C     C_R   0.222402 0.044834 0.272005 -0.109200
C15   C     C_R   0.166884 0.120265 0.378883 0.141290
C16   C     C_R   0.492920 0.263147 0.019696 -0.236170
C17   C     C_R   0.485459 0.227391 0.829817 -0.023224
C18   C     C_R   0.488815 0.819284 0.095321 -0.205851
C19   C     C_R   0.477509 0.743995 0.983399 -0.163613
C20   C     C_R   0.473454 0.617731 0.942788 -0.182003
C21   C     C_R   0.472358 0.562645 0.015763 0.084520
C22   C     C_R   0.465349 0.638693 0.132659 0.085918
C23   C     C_R   0.486639 0.145055 0.711612 0.843856
C24   C     C_R   0.476729 0.434489 0.977318 0.073293
C25   C     C_R   0.478095 0.386400 0.055508 0.182069
C26   C     C_R   0.455103 0.459523 0.168933 -0.238705
C27   C     C_R   0.437516 0.580302 0.205746 -0.220059
C28   C     C_R   0.480339 0.352172 0.864065 -0.269292
C29   C     C_R   0.493564 0.183315 0.907535 -0.162500
C30   C     C_R   0.485576 0.769100 0.171227 -0.100716
C31   C     C_R   0.698565 0.343678 0.330069 -0.262635
C32   C     C_R   0.330419 0.759888 0.643436 0.083285
C33   C     C_R   0.295088 0.662726 0.673218 -0.272821
C34   C     C_R   0.263122 0.000368 0.498506 0.781749
C35   C     C_R   0.358698 0.558591 0.618201 -0.187443
C36   C     C_R   0.459612 0.550654 0.532519 0.001102
C37   C     C_R   0.492755 0.652570 0.505702 0.231647
C38   C     C_R   0.529266 0.446547 0.473455 -0.115385
C39   C     C_R   0.629991 0.445807 0.388181 0.056272
C40   C     C_R   0.663093 0.546359 0.361901 0.442472
C41   C     C_R   0.594127 0.647858 0.422123 -0.311329
C42   C     C_R   0.503844 0.342092 0.495719 0.069104
C43   C     C_R   0.668969 0.244774 0.356755 0.039957
C44   C     C_R   0.671265 0.860146 0.766672 -0.206253
C45   C     C_R   0.749582 0.929277 0.714705 0.567003
C46   C     C_R   0.830380 0.869713 0.616108 0.024679
C47   C     C_R   0.838545 0.743908 0.576126 -0.245773
C48   C     C_R   0.763281 0.676965 0.630507 -0.135057
Cu1   Cu    Cu3+1 0.529370 0.098270 0.475420 0.944408
Cu2   Cu    Cu3+1 0.470630 0.901730 0.524580 0.929293
H1    H     H_    0.618904 0.681400 0.764597 0.151529
H2    H     H_    0.288512 0.250310 0.159880 0.137087
H3    H     H_    0.307773 0.033636 0.109915 0.119710
H4    H     H_    0.221585 0.947791 0.247005 0.109866
H5    H     H_    0.500425 0.087396 0.881711 0.164046
H6    H     H_    0.444070 0.421898 0.229654 0.149411
H7    H     H_    0.499703 0.227637 0.078962 0.140162
H8    H     H_    0.476395 0.382040 0.800866 0.145503
H9    H     H_    0.498398 0.917463 0.122712 0.155289
H10   H     H_    0.470125 0.566325 0.854051 0.118761
H11   H     H_    0.474740 0.784226 0.927032 0.133383
H12   H     H_    0.605362 0.904122 0.839800 0.117116
H13   H     H_    0.395765 0.621928 0.291312 0.194793
H14   H     H_    0.721669 0.166256 0.312475 0.125962
H15   H     H_    0.775552 0.339697 0.264584 0.187520
H16   H     H_    0.429267 0.334266 0.558322 0.116053
H17   H     H_    0.280592 0.840391 0.686235 0.119760
H18   H     H_    0.326871 0.486274 0.644737 0.127737
H19   H     H_    0.218094 0.668012 0.738982 0.143526
H20   H     H_    0.620953 0.722512 0.401957 0.220895
H21   H     H_    0.902676 0.697464 0.502158 0.164901
H22   H     H_    0.769287 0.579887 0.598655 0.152705
H23   H     H_    0.076104 0.895663 0.595230 0.157562
H24   H     H_    0.923992 0.108787 0.412378 0.161892
H25   H     H_    0.123154 0.304430 0.490988 0.128057
H26   H     H_    0.210211 0.388566 0.353045 0.135499
N1    N     N_R   0.573890 0.246290 0.438210 -0.179744
N2    N     N_R   0.426890 0.754320 0.561170 -0.197153
O1    O     O_R   0.536940 0.972510 0.318130 -0.582286
O2    O     O_R   0.487330 0.806530 0.359650 -0.624298
O3    O     O_R   0.705160 0.082990 0.479250 -0.588032
O4    O     O_R   0.655550 0.917010 0.520760 -0.597600
O5    O     O_R   0.512670 0.193470 0.640350 -0.598255
O6    O     O_R   0.463060 0.027490 0.681870 -0.585860
O7    O     O_R   0.344450 0.082990 0.479240 -0.581446
O8    O     O_R   0.294840 0.917010 0.520750 -0.598391
O9    O     O_3   0.761364 0.537420 0.274904 -0.583948
C49   C     C_3   0.802453 0.646032 0.261020 -0.326283
H27   H     H_    0.832658 0.722432 0.339495 0.157186
H28   H     H_    0.728824 0.670051 0.229242 0.172322
H29   H     H_    0.886308 0.629894 0.196637 0.191107
O10   O     O_3   0.742193 0.053334 0.755711 -0.600575
C50   C     C_3   0.804949 0.115373 0.852071 -0.362082
H30   H     H_    0.905272 0.096174 0.833379 0.161777
H31   H     H_    0.755359 0.091986 0.921581 0.159042
H32   H     H_    0.804759 0.215248 0.881124 0.213637

loop_
_geom_bond_atom_site_label_1
_geom_bond_atom_site_label_2
_ccdc_geom_bond_type
O9    C49   S    
C50   H30   S    
C17   C29   A    
C35   C36   A    
Cu2   O6    S    
C7    C8    A    
C45   C46   A    
C26   C27   A    
C17   C23   S    
C31   C43   A    
C40   O9    S    
C36   C37   A    
C38   C42   A    
C34   O8    A    
C5    C6    A    
C18   C19   A    
C23   O5    A    
Cu1   O3    S    
C45   O10   S    
C1    C30   S    
C11   H2    S    
C10   H26   S    
C19   C20   A    
C2    C44   A    
C18   C30   A    
C20   H10   S    
C9    C10   A    
C33   H19   S    
C50   H31   S    
C21   C22   A    
C48   H22   S    
Cu2   N2    S    
C25   C26   A    
C43   H14   S    
C6    H24   S    
C13   H3    S    
C7    C12   S    
C4    C34   S    
C23   O6    A    
Cu1   O7    S    
C24   C25   A    
C3    C8    A    
C10   C11   A    
C39   C40   A    
C29   H5    S    
C2    C48   A    
C16   C29   A    
Cu1   O1    S    
C26   H6    S    
C34   O7    A    
C47   C48   A    
C49   H29   S    
C12   O4    A    
C49   H27   S    
C47   H21   S    
C27   H13   S    
C32   H17   S    
C40   C41   A    
C14   H4    S    
C49   H28   S    
C50   H32   S    
C22   C27   A    
C1    O1    A    
C3    C4    A    
C44   C45   A    
Cu2   O4    S    
C42   H16   S    
C16   C25   A    
C31   H15   S    
C46   C47   A    
C22   C30   A    
C17   C28   A    
C24   C28   A    
C4    C5    A    
Cu2   O2    S    
C6    C7    A    
C28   H8    S    
C43   N1    A    
C37   N2    A    
C44   H12   S    
C32   C33   A    
Cu1   O5    S    
C36   C38   A    
C9    C15   A    
C11   C13   A    
C38   C39   A    
C35   H18   S    
C19   H11   S    
O10   C50   S    
C33   C35   A    
Cu1   N1    S    
C12   O3    A    
C16   H7    S    
C37   C41   A    
C3    H23   S    
C8    C46   S    
C5    C15   S    
C2    H1    S    
Cu2   O8    S    
C32   N2    A    
C18   H9    S    
C20   C21   A    
C42   N1    A    
Cu1   Cu2   S    
C21   C24   A    
C31   C39   A    
C1    O2    A    
C14   C15   A    
C9    H25   S    
C13   C14   A    
C41   H20   S    
