data_mof_unit_32496.cif
_audit_creation_date              2012-12-10T18:57:38-0500
_audit_creation_method            fapswitch 2.2
_symmetry_space_group_name_H-M    P1
_symmetry_Int_Tables_number       1
_space_group_crystal_system       triclinic
_cell_length_a                    10.938714
_cell_length_b                    10.82015
_cell_length_c                    9.548279
_cell_angle_alpha                 89.860512
_cell_angle_beta                  89.95886
_cell_angle_gamma                 90.095384
_cell_volume                      1130.11502131

loop_
_atom_site_label
_atom_site_type_symbol
_atom_type_description
_atom_site_fract_x
_atom_site_fract_y
_atom_site_fract_z
_atom_type_partial_charge
C1    C     C_R   0.502229 0.262392 0.499707 0.867796
C2    C     C_R   0.501017 0.128884 0.496087 -0.194325
C3    C     C_R   0.564864 0.063035 0.390785 0.260422
C4    C     C_R   0.561669 0.934039 0.390927 -0.221690
C5    C     C_R   0.498783 0.870147 0.496638 -0.133504
C6    C     C_R   0.426406 0.936186 0.589612 0.070613
C7    C     C_3   0.412992 0.928865 0.744703 -0.447904
C8    C     C_3   0.408342 0.069631 0.743099 0.084849
C9    C     C_R   0.547471 0.597874 0.073219 0.258864
C10   C     C_R   0.442087 0.409825 0.074718 -0.023115
C11   C     C_R   0.442186 0.409922 0.925957 -0.052272
C12   C     C_R   0.265390 0.500813 0.500106 0.863345
C13   C     C_R   0.547415 0.597840 0.925911 0.250098
C14   C     C_3   0.675404 0.644904 0.919297 -0.482003
C15   C     C_3   0.675706 0.644662 0.078298 -0.486080
C16   C     C_R   0.500736 0.737321 0.499692 0.819654
C17   C     C_R   0.734625 0.498120 0.500143 0.857014
C18   C     C_2   0.933280 0.495271 0.385383 -0.122565
C19   C     C_2   0.866530 0.491703 0.503006 -0.292853
C20   C     C_2   0.067189 0.490732 0.385860 -0.137182
C21   C     C_2   0.133483 0.505528 0.502569 -0.284219
C22   C     C_R   0.425413 0.063128 0.587930 0.079097
Cu1   Cu    Cu3+1 0.499990 0.499980 0.640670 0.967924
Cu2   Cu    Cu3+1 0.500010 0.500020 0.359330 0.982413
H1    H     H_    0.485888 0.114474 0.798603 0.147899
H2    H     H_    0.396958 0.335537 0.130497 0.165783
H3    H     H_    0.397379 0.336076 0.870566 0.185538
H4    H     H_    0.680463 0.739267 0.873328 0.198331
H5    H     H_    0.740252 0.576248 0.123287 0.216509
H6    H     H_    0.681592 0.738855 0.123901 0.200283
H7    H     H_    0.907085 0.481332 0.605607 0.151852
H8    H     H_    0.112025 0.476616 0.285600 0.173423
H9    H     H_    0.092631 0.523484 0.603623 0.151894
H10   H     H_    0.614292 0.883947 0.313570 0.173549
H11   H     H_    0.325970 0.883503 0.776209 0.230464
H12   H     H_    0.496137 0.891785 0.796813 0.178113
N1    N     N_R   0.500780 0.500930 0.147930 -0.192102
N2    N     N_R   0.500780 0.500890 0.852020 -0.196023
O1    O     O_R   0.500000 0.319640 0.618810 -0.588126
O2    O     O_R   0.500010 0.319680 0.381230 -0.549780
O3    O     O_R   0.321940 0.499980 0.618760 -0.572198
O4    O     O_R   0.321950 0.500020 0.381180 -0.588221
O5    O     O_R   0.499990 0.680320 0.618770 -0.586523
O6    O     O_R   0.500000 0.680360 0.381190 -0.587278
O7    O     O_R   0.678050 0.499980 0.618820 -0.589280
O8    O     O_R   0.678060 0.500020 0.381240 -0.570302
H13   H     H_    0.889019 0.500059 0.283893 0.166167
H14   H     H_    0.740134 0.576919 0.873603 0.223203
Br1   Br    Br    0.669395 0.141012 0.254491 -0.505532
Br2   Br    Br    0.246974 0.132217 0.789570 -0.522020

loop_
_geom_bond_atom_site_label_1
_geom_bond_atom_site_label_2
_ccdc_geom_bond_type
C2    C22   A    
C11   N2    A    
C8    C22   S    
Cu1   Cu2   S    
C14   H4    S    
C12   O3    A    
Cu1   O7    S    
Cu1   N2    S    
Cu2   O4    S    
C7    H12   S    
C16   O6    A    
Cu1   O3    S    
C11   H3    S    
C19   H7    S    
C18   H13   S    
C10   H2    S    
C9    N1    A    
C2    C3    A    
C3    Br1   S    
Cu2   O8    S    
C7    C8    S    
C13   C14   S    
C20   C21   D    
C8    H1    S    
C16   O5    A    
C13   N2    A    
C6    C7    S    
C10   N1    A    
Cu1   O1    S    
C17   C19   S    
C17   O7    A    
C15   H5    S    
C18   C20   S    
C9    C15   S    
C5    C6    A    
Cu2   O6    S    
C4    H10   S    
C21   H9    S    
C10   C11   A    
C1    O1    A    
C12   O4    A    
C3    C4    A    
C6    C22   A    
C8    Br2   S    
Cu1   O5    S    
C17   O8    A    
C15   H6    S    
Cu2   N1    S    
C1    C2    S    
C20   H8    S    
C9    C13   A    
C14   C15   S    
C18   C19   D    
C5    C16   S    
C14   H14   S    
C1    O2    A    
Cu2   O2    S    
C7    H11   S    
C12   C21   S    
C4    C5    A    
