data_mof_unit_22344.cif
_audit_creation_date              2013-03-05T16:20:28-0500
_audit_creation_method            fapswitch 2.2
_symmetry_space_group_name_H-M    P1
_symmetry_Int_Tables_number       1
_space_group_crystal_system       triclinic
_cell_length_a                    23.171351
_cell_length_b                    29.934769
_cell_length_c                    8.524578
_cell_angle_alpha                 89.999788
_cell_angle_beta                  93.309234
_cell_angle_gamma                 90.011118
_cell_volume                      5903.03514389

loop_
_atom_site_label
_atom_site_type_symbol
_atom_site_description
_atom_site_fract_x
_atom_site_fract_y
_atom_site_fract_z
_atom_type_partial_charge
P1    P     P_3+3 0.879620 0.451210 0.061380 0.461047
P2    P     P_3+3 0.879620 0.548790 0.561380 0.461065
P3    P     P_3+3 0.379620 0.951210 0.061380 0.461237
P4    P     P_3+3 0.379620 0.048790 0.561380 0.461323
O1    O     O_2   0.885280 0.436300 0.888260 -0.362368
O2    O     O_2   0.885280 0.563700 0.388260 -0.362281
O3    O     O_2   0.385280 0.936300 0.888260 -0.362189
O4    O     O_2   0.385280 0.063700 0.388260 -0.362135
O5    O     O_3   0.933180 0.477650 0.134870 -0.403683
O6    O     O_3   0.933180 0.522350 0.634870 -0.403785
O7    O     O_3   0.433180 0.977650 0.134870 -0.403635
O8    O     O_3   0.433180 0.022350 0.634870 -0.403483
O9    O     O_3   0.980100 0.397030 0.639600 -0.388975
O10   O     O_3   0.980100 0.602970 0.139600 -0.388132
O11   O     O_3   0.480100 0.897030 0.639600 -0.388039
O12   O     O_3   0.480100 0.102970 0.139600 -0.387514
O13   O     O_2   0.878737 0.365715 0.703396 -0.406533
O14   O     O_2   0.878704 0.634214 0.203350 -0.406593
O15   O     O_2   0.378655 0.865836 0.703187 -0.406682
O16   O     O_2   0.378633 0.134105 0.203146 -0.406729
O17   O     O_3   0.819886 0.487164 0.050684 -0.564019
O18   O     O_3   0.819881 0.512823 0.550659 -0.563977
O19   O     O_3   0.319882 0.987160 0.050707 -0.563874
O20   O     O_3   0.319876 0.012828 0.550692 -0.563849
O21   O     O_3   0.958189 0.304446 0.678731 -0.511175
O22   O     O_3   0.958123 0.695537 0.178928 -0.511420
O23   O     O_3   0.458023 0.804472 0.679027 -0.511483
O24   O     O_3   0.457985 0.195514 0.179207 -0.511312
H1    H     H_    0.044047 0.320988 0.656756 0.109493
H2    H     H_    0.043937 0.679142 0.155551 0.109790
H3    H     H_    0.543868 0.820803 0.655788 0.109924
H4    H     H_    0.543821 0.179272 0.155486 0.109785
C1    C     C_3   0.031951 0.249645 0.651262 -0.986561
C2    C     C_3   0.031746 0.750477 0.151448 -0.987267
C3    C     C_3   0.531555 0.749476 0.651529 -0.987607
C4    C     C_3   0.531449 0.250591 0.151795 -0.988483
H5    H     H_    0.042534 0.246536 0.779222 0.288824
H6    H     H_    0.071130 0.758090 0.088855 0.220122
H7    H     H_    0.542385 0.746519 0.779416 0.289010
H8    H     H_    0.542334 0.253486 0.279675 0.289170
H9    H     H_    0.998107 0.224875 0.614747 0.268214
H10   H     H_    0.042580 0.753412 0.279342 0.289008
H11   H     H_    0.497569 0.724731 0.615909 0.268035
H12   H     H_    0.497430 0.275328 0.116458 0.268110
P5    P     P_3+3 0.120160 0.450850 0.628590 0.630131
P6    P     P_3+3 0.120160 0.549150 0.128590 0.625977
P7    P     P_3+3 0.620160 0.950850 0.628590 0.626741
P8    P     P_3+3 0.620160 0.049150 0.128590 0.626688
P9    P     P_3+3 0.071776 0.355406 0.076651 0.477983
P10   P     P_3+3 0.071753 0.644611 0.576736 0.467744
P11   P     P_3+3 0.571704 0.855366 0.076727 0.467980
P12   P     P_3+3 0.571661 0.144664 0.576799 0.462593
O25   O     O_2   0.114450 0.435960 0.801790 -0.260099
O26   O     O_2   0.114450 0.564040 0.301790 -0.262089
O27   O     O_2   0.614450 0.935960 0.801790 -0.263126
O28   O     O_2   0.614450 0.064040 0.301790 -0.263955
O29   O     O_3   0.019500 0.396970 0.050670 -0.340135
O30   O     O_3   0.019500 0.603030 0.550670 -0.335860
O31   O     O_3   0.519500 0.896970 0.050670 -0.335750
O32   O     O_3   0.519500 0.103030 0.550670 -0.333482
O33   O     O_2   0.118368 0.368140 0.963252 -0.344838
O34   O     O_2   0.118391 0.631904 0.463418 -0.364506
O35   O     O_2   0.618395 0.868085 0.963551 -0.364140
O36   O     O_2   0.618307 0.131991 0.463437 -0.374460
O37   O     O_3   0.178243 0.488278 0.649835 -0.471052
O38   O     O_3   0.178052 0.511576 0.150306 -0.486618
O39   O     O_3   0.678477 0.988065 0.649693 -0.482610
O40   O     O_3   0.678309 0.011823 0.150378 -0.481320
O41   O     O_3   0.041860 0.304913 0.008735 -0.552135
O42   O     O_3   0.041823 0.695086 0.508761 -0.547325
O43   O     O_3   0.541724 0.804915 0.008607 -0.547344
O44   O     O_3   0.541630 0.195097 0.508754 -0.545725
C5    C     C_3   0.989108 0.299285 0.080521 0.460958
C6    C     C_3   0.989022 0.700663 0.580330 0.467323
C7    C     C_3   0.488971 0.799299 0.080401 0.467235
C8    C     C_3   0.488864 0.200655 0.580509 0.470296
H13   H     H_    0.956354 0.323311 0.030429 0.128481
H14   H     H_    0.956289 0.676664 0.529888 0.127689
H15   H     H_    0.456223 0.823325 0.030278 0.127481
H16   H     H_    0.456140 0.176617 0.530280 0.127219
H17   H     H_    0.994556 0.304075 0.209809 0.004618
H18   H     H_    0.994375 0.695788 0.709591 0.006200
H19   H     H_    0.494414 0.804101 0.209682 0.006259
H20   H     H_    0.494294 0.195824 0.709776 0.006475
C9    C     C_3   0.966460 0.252143 0.051692 -0.966016
C10   C     C_3   0.966417 0.747823 0.551786 -0.971717
C11   C     C_3   0.466316 0.752154 0.051656 -0.971920
C12   C     C_3   0.466182 0.247791 0.551872 -0.975020
H21   H     H_    0.955434 0.246839 0.924756 0.290771
H22   H     H_    0.955467 0.753211 0.424859 0.291100
H23   H     H_    0.455244 0.746841 0.924750 0.291148
H24   H     H_    0.455143 0.253130 0.424965 0.291378
H25   H     H_    0.999561 0.227367 0.093451 0.255337
H26   H     H_    0.999511 0.772572 0.593889 0.255922
H27   H     H_    0.499429 0.727381 0.093356 0.255901
H28   H     H_    0.499269 0.272577 0.593716 0.255999
C13   C     C_3   0.220552 0.523873 0.047589 0.235091
C14   C     C_3   0.220635 0.475691 0.547153 0.201593
C15   C     C_3   0.720486 0.024136 0.046591 0.221373
C16   C     C_3   0.720889 0.975123 0.547515 0.215794
H29   H     H_    0.204886 0.517613 0.924300 0.154626
H30   H     H_    0.205068 0.482091 0.423866 0.135726
H31   H     H_    0.704729 0.017206 0.923776 0.155998
H32   H     H_    0.705532 0.981605 0.424110 0.155698
H33   H     H_    0.232178 0.559775 0.061807 0.036466
H34   H     H_    0.231835 0.439721 0.561226 0.002966
H35   H     H_    0.731612 0.060199 0.058772 0.036741
H36   H     H_    0.731710 0.939077 0.561665 0.033930
C17   C     C_3   0.275798 0.497073 0.085183 0.118323
C18   C     C_3   0.276285 0.501991 0.584783 0.204898
C19   C     C_3   0.776228 0.998032 0.084797 0.187211
C20   C     C_3   0.776791 0.001071 0.585424 0.189079
H37   H     H_    0.291109 0.502880 0.209306 0.095176
H38   H     H_    0.292250 0.495251 0.707789 0.099660
H39   H     H_    0.792134 0.005010 0.207720 0.099032
H40   H     H_    0.792665 0.994158 0.708387 0.099637
H41   H     H_    0.309885 0.508926 0.008770 0.062959
H42   H     H_    0.309796 0.490565 0.505842 0.023847
H43   H     H_    0.809700 0.009420 0.005637 0.047199
H44   H     H_    0.810179 0.989493 0.506346 0.044699
Ba1   Ba    Ba6+2 0.999920 0.468170 0.845000 1.662400
Ba2   Ba    Ba6+2 0.999920 0.531830 0.345000 1.658626
Ba3   Ba    Ba6+2 0.499920 0.968170 0.845000 1.658918
Ba4   Ba    Ba6+2 0.499920 0.031830 0.345000 1.658030
C21   C     C_3   0.837045 0.529148 0.997337 0.461882
C22   C     C_3   0.837042 0.470840 0.497360 0.462045
C23   C     C_3   0.337029 0.029137 0.997277 0.461599
C24   C     C_3   0.337022 0.970852 0.497293 0.461690
H45   H     H_    0.854589 0.525992 0.879746 0.078929
H46   H     H_    0.854618 0.473993 0.379806 0.078969
H47   H     H_    0.354542 0.025968 0.879653 0.078991
H48   H     H_    0.354568 0.974021 0.379707 0.079032
H49   H     H_    0.869958 0.544404 0.080822 0.135563
H50   H     H_    0.869930 0.455590 0.580910 0.135557
H51   H     H_    0.369962 0.044400 0.080687 0.135581
H52   H     H_    0.369930 0.955592 0.580763 0.135564
C25   C     C_3   0.784684 0.559867 0.985306 -1.001731
C26   C     C_3   0.784674 0.440113 0.485245 -1.002109
C27   C     C_3   0.284670 0.059859 0.985297 -1.000805
C28   C     C_3   0.284653 0.940126 0.485216 -1.001117
H53   H     H_    0.751970 0.546705 0.896773 0.267746
H54   H     H_    0.751991 0.453261 0.396618 0.267790
H55   H     H_    0.251923 0.046679 0.896886 0.267818
H56   H     H_    0.251941 0.953295 0.396712 0.267872
H57   H     H_    0.797690 0.593858 0.949512 0.224703
H58   H     H_    0.797685 0.406120 0.449535 0.224738
H59   H     H_    0.297666 0.093840 0.949362 0.224571
H60   H     H_    0.297651 0.906143 0.449358 0.224580
H61   H     H_    0.765236 0.562182 0.101114 0.267960
H62   H     H_    0.765186 0.437809 0.601003 0.267916
H63   H     H_    0.265265 0.062204 0.101158 0.268011
H64   H     H_    0.265207 0.937791 0.601024 0.267954
H65   H     H_    0.138868 0.694207 0.315301 0.175080
H66   H     H_    0.139393 0.306098 0.815426 0.174197
H67   H     H_    0.638518 0.194445 0.315579 0.176179
H68   H     H_    0.638759 0.805715 0.815558 0.175118
O45   O     O_3   0.066770 0.522240 0.054830 -0.304218
O46   O     O_3   0.066770 0.477760 0.554830 -0.304665
O47   O     O_3   0.566770 0.022240 0.054830 -0.303970
O48   O     O_3   0.566770 0.977760 0.554830 -0.304083
P13   P     P_3+3 0.929859 0.645530 0.101721 0.418892
P14   P     P_3+3 0.929879 0.354448 0.601677 0.418461
P15   P     P_3+3 0.429827 0.145500 0.101767 0.419373
P16   P     P_3+3 0.429833 0.854482 0.601713 0.418907
C29   C     C_3   0.011068 0.296634 0.610595 0.472403
C30   C     C_3   0.010856 0.703519 0.110237 0.471658
C31   C     C_3   0.510754 0.796456 0.610386 0.471990
C32   C     C_3   0.510665 0.203618 0.110399 0.472122
H69   H     H_    0.006411 0.299097 0.480430 0.006067
H70   H     H_    0.005962 0.701240 0.980062 0.008634
H71   H     H_    0.505891 0.798755 0.480210 0.008500
H72   H     H_    0.505726 0.201396 0.980219 0.008884
H73   H     H_    0.071481 0.242177 0.589141 0.219685
H74   H     H_    0.997806 0.775254 0.115867 0.268071
H75   H     H_    0.570925 0.741838 0.588926 0.220162
H76   H     H_    0.570782 0.258298 0.089104 0.220045
H77   H     H_    0.184273 0.688333 0.584254 0.139261
H78   H     H_    0.185337 0.312441 0.083925 0.160293
H79   H     H_    0.683800 0.188705 0.584665 0.137355
H80   H     H_    0.684231 0.811629 0.084414 0.139483
H81   H     H_    0.926779 0.247005 0.116565 0.227214
H82   H     H_    0.926697 0.752918 0.616519 0.227493
H83   H     H_    0.426658 0.747018 0.116631 0.227519
H84   H     H_    0.426502 0.252881 0.616778 0.227752
C33   C     C_R   0.157264 0.642428 0.083072 -0.308658
C34   C     C_R   0.157348 0.357666 0.582856 -0.317426
C35   C     C_R   0.656987 0.142555 0.083441 -0.304516
C36   C     C_R   0.657000 0.857495 0.583286 -0.310423
H85   H     H_    0.181287 0.638205 0.194048 0.198345
H86   H     H_    0.181442 0.361974 0.693672 0.203498
H87   H     H_    0.680975 0.138359 0.194489 0.196651
H88   H     H_    0.681038 0.861736 0.694230 0.198536
C37   C     C_R   0.129424 0.603535 0.018434 0.081956
C38   C     C_R   0.129299 0.396478 0.518416 0.071237
C39   C     C_R   0.629266 0.103622 0.018670 0.088043
C40   C     C_R   0.629134 0.896379 0.518673 0.084172
C41   C     C_R   0.127969 0.683909 0.848004 -0.415123
C42   C     C_R   0.128390 0.316205 0.347515 -0.401852
C43   C     C_R   0.627626 0.184032 0.848384 -0.409354
C44   C     C_R   0.627826 0.816033 0.348084 -0.415078
H89   H     H_    0.125867 0.711827 0.771091 0.166797
H90   H     H_    0.126688 0.288371 0.270180 0.159290
H91   H     H_    0.625371 0.211981 0.771625 0.166360
H92   H     H_    0.625784 0.788129 0.271099 0.166734
C45   C     C_R   0.104545 0.644972 0.780339 0.147144
C46   C     C_R   0.104656 0.355073 0.280139 0.178606
C47   C     C_R   0.604386 0.145056 0.780531 0.137740
C48   C     C_R   0.604405 0.854972 0.280425 0.146982
C49   C     C_R   0.870065 0.317330 0.329598 -0.329565
C50   C     C_R   0.870082 0.682668 0.829643 -0.330468
C51   C     C_R   0.370175 0.817321 0.329547 -0.330805
C52   C     C_R   0.370233 0.182674 0.829601 -0.331027
H93   H     H_    0.874344 0.284951 0.385294 0.156550
H94   H     H_    0.874386 0.715045 0.885352 0.156353
H95   H     H_    0.374496 0.784941 0.385220 0.156343
H96   H     H_    0.374592 0.215051 0.885279 0.156896
C53   C     C_R   0.903902 0.352728 0.392643 0.205730
C54   C     C_R   0.903897 0.647266 0.892678 0.205652
C55   C     C_R   0.403945 0.852743 0.392642 0.205655
C56   C     C_R   0.403970 0.147247 0.892689 0.205429
C57   C     C_R   0.827103 0.368573 0.137324 -0.304834
C58   C     C_R   0.827120 0.631440 0.637277 -0.304587
C59   C     C_R   0.327172 0.868538 0.137247 -0.304620
C60   C     C_R   0.327208 0.131473 0.637240 -0.304783
H97   H     H_    0.793000 0.379141 0.053902 0.157263
H98   H     H_    0.793025 0.620878 0.553803 0.157326
H99   H     H_    0.293073 0.879077 0.053766 0.157402
H100  H     H_    0.293110 0.120944 0.553722 0.157420
C61   C     C_R   0.871826 0.399145 0.174183 0.304489
C62   C     C_R   0.871824 0.600861 0.674167 0.303791
C63   C     C_R   0.371848 0.899144 0.174176 0.303816
C64   C     C_R   0.371860 0.100857 0.674185 0.303397
C65   C     C_R   0.155958 0.684831 0.001097 0.115723
C66   C     C_R   0.156206 0.315279 0.500850 0.115718
C67   C     C_R   0.655652 0.184960 0.001441 0.117287
C68   C     C_R   0.655765 0.815101 0.501252 0.115724
C69   C     C_R   0.107371 0.605279 0.863749 0.072561
C70   C     C_R   0.107186 0.394727 0.363799 0.069241
C71   C     C_R   0.607372 0.105345 0.863829 0.064935
C72   C     C_R   0.607180 0.894655 0.363898 0.072413
C73   C     C_R   0.826961 0.325328 0.207234 0.094306
C74   C     C_R   0.826987 0.674683 0.707232 0.094565
C75   C     C_R   0.327079 0.825291 0.207156 0.094558
C76   C     C_R   0.327141 0.174718 0.707188 0.094804
C77   C     C_R   0.908964 0.391553 0.305503 -0.451367
C78   C     C_R   0.908950 0.608449 0.805516 -0.450165
C79   C     C_R   0.408970 0.891576 0.305541 -0.449896
C80   C     C_R   0.408974 0.108416 0.805579 -0.449202
H101  H     H_    0.938607 0.417434 0.347441 0.163451
H102  H     H_    0.938579 0.582566 0.847457 0.163440
H103  H     H_    0.438570 0.917480 0.347538 0.163455
H104  H     H_    0.438554 0.082508 0.847581 0.163641
C81   C     C_R   0.163210 0.783389 0.854944 -0.193121
C82   C     C_R   0.163331 0.216762 0.354935 -0.194300
C83   C     C_R   0.662967 0.283523 0.855181 -0.193880
C84   C     C_R   0.663055 0.716565 0.355064 -0.193177
C85   C     C_R   0.681753 0.314941 0.748387 -0.092373
C86   C     C_R   0.681818 0.685153 0.248238 -0.092306
C87   C     C_R   0.181989 0.814806 0.748140 -0.092220
C88   C     C_R   0.182061 0.185368 0.248008 -0.094254
C89   C     C_R   0.739553 0.327825 0.755501 -0.120746
C90   C     C_R   0.739603 0.672244 0.255396 -0.120007
C91   C     C_R   0.239781 0.827715 0.755310 -0.119990
C92   C     C_R   0.239825 0.172402 0.255199 -0.119694
C93   C     C_R   0.776509 0.313163 0.879826 -0.182151
C94   C     C_R   0.776560 0.686873 0.379785 -0.182411
C95   C     C_R   0.276728 0.813079 0.879697 -0.182275
C96   C     C_R   0.276784 0.186957 0.379699 -0.181432
C97   C     C_R   0.754494 0.288558 0.003748 0.074304
C98   C     C_R   0.754560 0.711479 0.503714 0.073771
C99   C     C_R   0.254709 0.788470 0.003603 0.073675
C100  C     C_R   0.254807 0.211568 0.503650 0.073284
C101  C     C_R   0.202154 0.764635 0.970279 0.100300
C102  C     C_R   0.202307 0.235454 0.470339 0.101224
C103  C     C_R   0.701909 0.264748 0.970475 0.101021
C104  C     C_R   0.702006 0.735313 0.470412 0.100215
C105  C     C_R   0.779866 0.290623 0.160390 -0.060385
C106  C     C_R   0.779923 0.709406 0.660363 -0.060483
C107  C     C_R   0.280048 0.790548 0.160268 -0.060418
C108  C     C_R   0.280156 0.209484 0.660301 -0.060070
C109  C     C_R   0.752840 0.263748 0.274535 0.107687
C110  C     C_R   0.752940 0.736319 0.774472 0.106935
C111  C     C_R   0.253056 0.763634 0.274372 0.107060
C112  C     C_R   0.253267 0.236471 0.774374 0.107702
C113  C     C_R   0.208203 0.732283 0.226499 0.045559
C114  C     C_R   0.208524 0.267894 0.726464 0.047198
C115  C     C_R   0.707928 0.232433 0.226733 0.046484
C116  C     C_R   0.708082 0.767664 0.726632 0.045535
C117  C     C_R   0.187353 0.727956 0.066924 -0.072411
C118  C     C_R   0.187616 0.272182 0.566867 -0.071365
C119  C     C_R   0.687068 0.228092 0.067182 -0.072650
C120  C     C_R   0.687208 0.771990 0.567063 -0.072272
C121  C     C_R   0.767080 0.268100 0.437762 -0.178522
C122  C     C_R   0.767176 0.731982 0.937710 -0.176008
C123  C     C_R   0.267278 0.767972 0.437617 -0.176020
C124  C     C_R   0.267494 0.232150 0.937632 -0.182492
C125  C     C_R   0.246469 0.738080 0.544962 -0.120608
C126  C     C_R   0.246961 0.262203 0.044883 -0.121514
C127  C     C_R   0.746186 0.238272 0.545179 -0.114974
C128  C     C_R   0.746396 0.761876 0.045071 -0.120715
C129  C     C_R   0.202348 0.709393 0.498248 -0.026430
C130  C     C_R   0.203076 0.291094 0.998089 0.008108
C131  C     C_R   0.701972 0.209662 0.498557 -0.027147
C132  C     C_R   0.702280 0.790562 0.998396 -0.026198
C133  C     C_R   0.179812 0.709934 0.343763 -0.128473
C134  C     C_R   0.180339 0.290392 0.843762 -0.142974
C135  C     C_R   0.679478 0.210154 0.344036 -0.131793
C136  C     C_R   0.679714 0.790006 0.843940 -0.128467
H105  H     H_    0.117468 0.776202 0.852699 0.123689
H106  H     H_    0.117616 0.224061 0.352535 0.123874
H107  H     H_    0.617217 0.276378 0.853026 0.123392
H108  H     H_    0.617318 0.723758 0.352806 0.123670
H109  H     H_    0.152099 0.828274 0.657995 0.130987
H110  H     H_    0.152160 0.171969 0.157743 0.131186
H111  H     H_    0.651858 0.328431 0.658296 0.130777
H112  H     H_    0.651921 0.671693 0.158080 0.130823
H113  H     H_    0.755252 0.350217 0.667919 0.146474
H114  H     H_    0.755286 0.649855 0.167800 0.146354
H115  H     H_    0.255475 0.850111 0.667737 0.146517
H116  H     H_    0.255483 0.150013 0.167563 0.146491
H117  H     H_    0.821048 0.323669 0.884745 0.186832
H118  H     H_    0.821088 0.676351 0.384716 0.186781
H119  H     H_    0.321259 0.823608 0.884685 0.186860
H120  H     H_    0.321295 0.176389 0.384669 0.186677
H121  H     H_    0.792512 0.294989 0.487864 0.144534
H122  H     H_    0.792534 0.705063 0.987842 0.144433
H123  H     H_    0.292648 0.794888 0.487771 0.144472
H124  H     H_    0.292709 0.205159 0.987812 0.145865
H125  H     H_    0.761391 0.239455 0.667432 0.148804
H126  H     H_    0.761615 0.760700 0.167318 0.148118
H127  H     H_    0.261673 0.739258 0.667220 0.148154
H128  H     H_    0.262219 0.261030 0.167108 0.149585
S1    S     S_3+6 0.265982 0.438348 0.054563 -0.003402
O49   O     O_2   0.240257 0.429633 0.891845 -0.267766
O50   O     O_2   0.323752 0.415525 0.072892 -0.293386
O51   O     O_3   0.222036 0.417213 0.185914 -0.494919
H129  H     H_    0.247300 0.411250 0.281268 0.321228
S2    S     S_3+6 0.266784 0.560914 0.560237 -0.012556
O52   O     O_2   0.325072 0.583035 0.574481 -0.287492
O53   O     O_2   0.238463 0.570861 0.401218 -0.289282
O54   O     O_3   0.225775 0.580898 0.700468 -0.533574
H130  H     H_    0.226714 0.613769 0.687785 0.361603
S3    S     S_3+6 0.766931 0.939041 0.061168 -0.013852
O55   O     O_2   0.738795 0.928829 0.902118 -0.290759
O56   O     O_2   0.825290 0.917061 0.076202 -0.287058
O57   O     O_3   0.725836 0.919116 0.201314 -0.533708
H131  H     H_    0.727073 0.886232 0.189527 0.361592
S4    S     S_3+6 0.767847 0.060056 0.561237 -0.012437
O58   O     O_2   0.826355 0.081857 0.570531 -0.275407
O59   O     O_2   0.737938 0.070023 0.404145 -0.297091
O60   O     O_3   0.728775 0.080419 0.705000 -0.537385
H132  H     H_    0.718568 0.111326 0.671404 0.367881
Br1   Br    Br    0.090141 0.551773 0.755212 -0.302434
Br2   Br    Br    0.089641 0.448240 0.255526 -0.299730
Br3   Br    Br    0.590675 0.051818 0.754941 -0.308799
Br4   Br    Br    0.590200 0.948194 0.255242 -0.301249

loop_
_geom_bond_atom_site_label_1
_geom_bond_atom_site_label_2
_geom_bond_distance
_ccdc_geom_bond_type
C15   H31   1.108282 S    
C83   C85   1.395835 A    
C72   Br4   1.881349 S    
C11   H23   1.108781 S    
C42   C46   1.396375 A    
C33   C65   1.448440 A    
C2    H10   1.108041 S    
C88   C92   1.391630 A    
C18   H42   1.110500 S    
C82   C102  1.411990 A    
S1    O49   1.500627 D    
C91   C95   1.394471 A    
C23   C27   1.521269 S    
C85   C89   1.391629 A    
P4    C64   1.845635 S    
O38   C13   1.404079 S    
C53   C77   1.387888 A    
C87   C91   1.391631 A    
C85   H111  1.082312 S    
C86   H112  1.082308 S    
C57   H97   1.079555 S    
C4    C32   1.521122 S    
C126  C130  1.376454 A    
C25   H53   1.110526 S    
C73   C105  1.542355 S    
C59   C75   1.425223 A    
O42   C6    1.408274 S    
C107  C111  1.434023 A    
P4    O8    1.571539 S    
C28   H64   1.110792 S    
C62   C78   1.390716 A    
C13   H33   1.112822 S    
C99   C107  1.428858 A    
C56   C80   1.387817 A    
P14   C53   1.848347 S    
C44   C48   1.396409 A    
P9    O41   1.747467 S    
P11   O43   1.747474 S    
C60   H100  1.079552 S    
C5    H17   1.111351 S    
P3    Ba3   3.467477 S    
H66   C134  1.073899 S    
C29   H69   1.111070 S    
O27   Ba3   2.867395 S    
O30   Ba2   2.780330 S    
C50   C74   1.422249 A    
C10   H22   1.108794 S    
C75   C107  1.542174 S    
C20   H44   1.110570 S    
C69   Br1   1.880957 S    
C31   H71   1.111040 S    
C52   C56   1.405980 A    
P5    Ba1   3.468224 S    
C14   H30   1.107970 S    
O16   P15   1.545502 D    
C49   H93   1.081349 S    
C34   H86   1.076927 S    
C2    H74   1.110522 S    
C43   C67   1.423738 A    
P7    Ba3   3.468224 S    
C129  C133  1.388459 A    
Ba2   O46   2.810651 S    
C46   C70   1.384280 A    
C18   S2    1.788383 S    
O39   C16   1.404829 S    
H3    C31   1.111416 S    
H4    C32   1.111414 S    
C42   C66   1.423908 A    
C82   H106  1.080655 S    
C74   C106  1.542537 S    
C49   C73   1.422233 A    
C116  C120  1.423055 A    
S1    O51   1.679969 S    
P5    C38   1.897138 S    
C130  C134  1.388782 A    
C63   C79   1.390719 A    
O3    Ba3   2.866097 S    
O51   H129  0.990146 S    
H80   C132  1.070423 S    
O22   P13   1.747233 S    
C14   H34   1.112526 S    
H78   C130  1.071237 S    
C49   C53   1.406209 A    
O10   P13   1.743516 S    
C20   S4    1.788385 S    
C1    H9    1.110516 S    
Ba3   O47   2.810311 S    
Ba4   O48   2.810651 S    
S4    O58   1.502468 D    
C19   S3    1.788890 S    
P10   O42   1.747488 S    
C23   H47   1.107277 S    
P3    O7    1.571300 S    
O24   C32   1.405500 S    
C21   H45   1.107284 S    
P9    C46   1.853907 S    
C22   H50   1.110804 S    
C5    H13   1.112850 S    
C112  C124  1.417504 A    
P6    Ba2   3.468057 S    
C103  C119  1.426355 A    
C7    H15   1.112840 S    
C80   H104  1.082278 S    
C121  H121  1.071611 S    
O7    Ba4   2.812446 S    
C16   H32   1.108028 S    
Ba3   Ba4   4.668901 S    
C123  C125  1.386116 A    
C57   C73   1.425208 A    
C39   C71   1.387444 A    
C67   C119  1.569581 S    
C11   H83   1.110649 S    
O14   P13   1.545537 D    
C59   H99   1.079557 S    
C12   H84   1.110639 S    
C113  C117  1.422935 A    
O9    Ba1   2.778232 S    
P4    Ba4   3.467636 S    
C19   H43   1.110604 S    
C116  C136  1.398373 A    
P12   O32   1.741274 S    
C109  C121  1.417373 A    
C27   H55   1.110526 S    
C96   C100  1.407416 A    
C111  C123  1.417413 A    
C11   H27   1.110739 S    
C42   H90   1.061777 S    
C3    H11   1.110516 S    
C18   H38   1.110087 S    
C61   C77   1.390761 A    
P5    O25   1.555194 D    
C100  C108  1.428844 A    
C86   C90   1.391625 A    
C43   C47   1.396309 A    
C95   H119  1.077339 S    
C16   H36   1.112806 S    
P3    C63   1.845548 S    
C41   C65   1.423668 A    
S4    O60   1.679717 S    
C64   C80   1.390705 A    
O25   Ba1   2.867395 S    
P2    O18   1.751694 S    
C83   H107  1.080522 S    
C84   H108  1.080562 S    
C44   H92   1.061620 S    
C15   C19   1.528664 S    
C97   C105  1.428928 A    
C38   C70   1.387291 A    
C102  C118  1.426272 A    
C5    C9    1.520561 S    
P16   C55   1.848102 S    
C7    C11   1.520576 S    
C30   H70   1.111033 S    
S2    O53   1.501415 D    
Ba1   O46   3.007091 S    
S3    O56   1.502754 D    
P8    C39   1.898440 S    
P5    O37   1.752354 S    
C65   C117  1.569439 S    
C124  C126  1.386356 A    
C20   H40   1.110132 S    
C77   H101  1.082272 S    
C9    H81   1.110655 S    
C34   C38   1.425853 A    
C1    C29   1.521115 S    
C8    H16   1.112827 S    
C33   H85   1.077041 S    
C79   H103  1.082271 S    
S2    O54   1.679621 S    
C51   C55   1.406076 A    
C36   H88   1.077022 S    
C112  C114  1.441510 A    
C13   C17   1.529086 S    
C24   C28   1.521253 S    
C2    C30   1.521111 S    
O8    Ba3   2.812784 S    
C26   H58   1.108929 S    
C27   H63   1.110794 S    
P1    Ba1   3.467477 S    
P2    C62   1.845764 S    
C132  C136  1.388466 A    
C58   C62   1.404487 A    
C100  C102  1.425569 A    
C88   H110  1.082306 S    
O20   C24   1.401793 S    
C123  H123  1.071605 S    
O24   P15   1.747227 S    
C34   C66   1.448193 A    
C12   H28   1.110732 S    
C127  H125  1.081240 S    
C14   C18   1.528833 S    
P12   C47   1.854533 S    
C41   C45   1.396243 A    
C8    H20   1.111320 S    
C17   H41   1.110555 S    
O9    P14   1.743408 S    
C113  C133  1.398330 A    
P1    O17   1.751697 S    
C96   H120  1.077347 S    
C101  C117  1.426311 A    
P1    O1    1.554573 D    
O28   Ba4   2.867046 S    
C25   H57   1.108928 S    
C23   H51   1.110800 S    
O37   C14   1.404437 S    
P6    O38   1.752349 S    
P3    O3    1.554573 D    
C24   H52   1.110806 S    
C78   H102  1.082281 S    
P4    O20   1.751691 S    
C22   H46   1.107291 S    
C99   C101  1.425644 A    
H1    C29   1.111473 S    
C93   C97   1.407399 A    
C95   C99   1.407387 A    
C22   C26   1.521253 S    
O60   H132  0.993080 S    
O41   C5    1.408264 S    
C47   C71   1.384360 A    
C71   Br3   1.880691 S    
S1    O50   1.503095 D    
P13   C54   1.848350 S    
C43   H91   1.061560 S    
C48   C72   1.384305 A    
C6    H18   1.111339 S    
C59   C63   1.404339 A    
P2    Ba2   3.467636 S    
O31   Ba3   2.780455 S    
P9    O33   1.538054 D    
C114  C118  1.423394 A    
P10   O30   1.741561 S    
C51   C75   1.422115 A    
P7    C40   1.898061 S    
P11   O35   1.538373 D    
C70   Br2   1.881538 S    
C33   C37   1.426158 A    
C9    H21   1.108805 S    
O4    Ba4   2.866441 S    
O21   C29   1.405567 S    
C1    H5    1.108049 S    
C83   C103  1.412041 A    
C3    H7    1.108033 S    
C89   C93   1.394457 A    
O11   P16   1.743321 S    
C82   C88   1.395790 A    
P6    O26   1.555211 D    
S4    O59   1.501850 D    
O5    Ba2   2.812446 S    
P1    O5    1.571300 S    
C12   H24   1.108783 S    
P8    O40   1.752187 S    
C45   C69   1.384303 A    
C91   H115  1.081787 S    
Ba1   Ba2   4.668901 S    
O10   Ba2   2.778358 S    
C87   H109  1.082313 S    
C16   C20   1.528695 S    
C26   H54   1.110531 S    
C55   C79   1.387840 A    
O17   C21   1.401790 S    
O19   C23   1.401780 S    
C105  C109  1.433999 A    
C124  H124  1.071670 S    
C110  C122  1.417409 A    
C28   H56   1.110531 S    
C115  C135  1.398295 A    
C15   H35   1.113310 S    
C44   C68   1.423777 A    
C21   C25   1.521264 S    
C98   C106  1.428938 A    
C58   C74   1.425320 A    
C81   C101  1.412041 A    
C7    H19   1.111335 S    
Ba2   O45   3.007150 S    
C66   C118  1.569654 S    
C93   H117  1.077324 S    
C32   H72   1.111023 S    
C6    H14   1.112832 S    
C57   C61   1.404350 A    
C10   H82   1.110653 S    
O12   Ba4   2.778358 S    
C127  C131  1.376133 A    
C128  C132  1.376215 A    
C109  C115  1.441653 A    
C51   H95   1.081344 S    
S3    O55   1.501549 D    
C122  H122  1.071629 S    
C110  C116  1.441723 A    
P12   O36   1.538415 D    
C111  C113  1.441566 A    
P3    O19   1.751697 S    
P4    O4    1.554554 D    
O6    Ba1   2.812784 S    
C28   H60   1.108934 S    
P9    O29   1.741836 S    
O54   H130  0.990288 S    
C26   H62   1.110791 S    
H68   C136  1.074188 S    
C27   H59   1.108932 S    
O11   Ba3   2.778232 S    
P12   O44   1.747491 S    
C54   C78   1.387842 A    
C60   C64   1.404424 A    
H65   C133  1.074184 S    
O18   C22   1.401803 S    
Ba3   O48   3.007091 S    
C58   H98   1.079547 S    
Ba4   O47   3.007150 S    
O1    Ba1   2.866097 S    
C76   C108  1.542179 S    
O32   Ba4   2.780330 S    
C81   C87   1.395826 A    
C10   H26   1.110733 S    
C52   H96   1.081324 S    
C3    H75   1.107059 S    
C3    C31   1.521126 S    
C41   H89   1.061595 S    
C1    H73   1.107021 S    
C8    C12   1.520591 S    
C35   H87   1.077092 S    
C36   C68   1.448455 A    
C17   H37   1.110083 S    
P15   C56   1.847983 S    
O26   Ba2   2.867046 S    
C84   C104  1.412022 A    
Ba1   O45   2.810311 S    
C25   H61   1.110792 S    
P2    O2    1.554554 D    
C9    H25   1.110740 S    
C90   C94   1.394449 A    
C24   H48   1.107288 S    
P7    O39   1.752366 S    
P7    O48   1.576484 S    
C94   H118  1.077348 S    
O12   P15   1.743285 S    
P8    O47   1.576240 S    
C97   C103  1.425782 A    
C81   H105  1.080552 S    
C98   C104  1.425821 A    
C4    H8    1.108030 S    
H2    C30   1.111458 S    
C94   C98   1.407414 A    
P11   C48   1.854077 S    
C60   C76   1.425285 A    
C131  C135  1.388417 A    
C50   H94   1.081336 S    
P6    O45   1.576240 S    
C84   C86   1.395814 A    
C121  C127  1.386029 A    
C128  H126  1.081274 S    
C122  C128  1.386122 A    
O23   P16   1.747239 S    
C125  H127  1.081269 S    
O21   P14   1.747239 S    
C92   C96   1.394477 A    
H77   C129  1.070370 S    
O44   C8    1.408250 S    
C6    C10   1.520575 S    
H79   C131  1.070166 S    
C68   C120  1.569768 S    
C37   C69   1.387386 A    
C92   H116  1.081790 S    
P10   O34   1.538303 D    
C115  C119  1.422844 A    
P11   O31   1.741589 S    
O2    Ba2   2.866441 S    
P2    O6    1.571539 S    
P6    C37   1.897727 S    
P7    O27   1.555194 D    
C40   C72   1.387347 A    
C21   H49   1.110798 S    
P8    O28   1.555211 D    
O22   C30   1.405518 S    
C125  C129  1.376200 A    
C35   C39   1.426366 A    
C2    H6    1.107046 S    
P5    O46   1.576484 S    
C108  C112  1.434085 A    
H67   C135  1.074251 S    
P8    Ba4   3.468057 S    
C4    H76   1.107072 S    
C126  H128  1.081343 S    
C50   C54   1.406219 A    
C90   H114  1.081791 S    
O40   C15   1.404789 S    
C52   C76   1.422064 A    
O43   C7    1.408286 S    
O57   H131  0.990076 S    
O15   P16   1.545506 D    
C114  C134  1.398396 A    
C89   H113  1.081791 S    
C13   H29   1.107876 S    
C17   S1    1.789716 S    
C4    H12   1.110524 S    
O13   P14   1.545541 D    
O29   Ba1   2.780455 S    
C104  C120  1.426379 A    
P10   C45   1.854083 S    
P1    C61   1.845615 S    
C36   C40   1.426305 A    
S2    O52   1.502713 D    
C106  C110  1.434082 A    
S3    O57   1.679544 S    
C19   H39   1.110351 S    
C35   C67   1.448605 A    
O23   C31   1.405525 S    
