data_mof_unit_43623.cif
_audit_creation_date              2012-12-11T15:31:35-0500
_audit_creation_method            fapswitch 2.2
_symmetry_space_group_name_H-M    P1
_symmetry_Int_Tables_number       1
_space_group_crystal_system       triclinic
_cell_length_a                    6.944231
_cell_length_b                    14.780979
_cell_length_c                    21.313018
_cell_angle_alpha                 74.850347
_cell_angle_beta                  90.173555
_cell_angle_gamma                 90.752665
_cell_volume                      2111.41226849

loop_
_atom_site_label
_atom_site_type_symbol
_atom_type_description
_atom_site_fract_x
_atom_site_fract_y
_atom_site_fract_z
_atom_type_partial_charge
O1    O     O_R   0.648150 0.130050 0.214300 -0.538889
O2    O     O_R   0.351850 0.869950 0.785700 -0.538889
O3    O     O_R   0.320490 0.006660 0.340150 -0.543799
O4    O     O_R   0.679510 0.993340 0.659850 -0.543799
O5    O     O_R   0.146100 0.869940 0.285700 -0.538792
O6    O     O_R   0.853900 0.130060 0.714300 -0.538792
C1    C     C_R   0.489111 0.001576 0.367150 0.676407
C2    C     C_R   0.510889 0.998424 0.632850 0.676407
O7    O     O_R   0.318690 0.137980 0.218120 -0.540959
O8    O     O_R   0.681310 0.862020 0.781880 -0.540959
O9    O     O_R   0.144280 0.002190 0.162800 -0.541375
O10   O     O_R   0.855720 0.997810 0.837200 -0.541376
C3    C     C_R   0.488602 0.175523 0.205956 0.696047
C4    C     C_R   0.511398 0.824477 0.794044 0.696047
O11   O     O_R   0.649960 0.997790 0.337200 -0.540689
O12   O     O_R   0.350040 0.002210 0.662800 -0.540688
O13   O     O_3   0.479300 0.955290 0.231990 -0.369590
O14   O     O_3   0.520700 0.044710 0.768010 -0.369590
V1    V     V_3+5 0.206040 0.008290 0.253340 1.413819
V2    V     V_3+5 0.793960 0.991710 0.746660 1.413819
O15   O     O_R   0.814320 0.993320 0.159850 -0.543230
O16   O     O_R   0.185680 0.006680 0.840150 -0.543230
C5    C     C_R   0.982999 0.998367 0.132846 0.676321
C6    C     C_R   0.017001 0.001633 0.867154 0.676320
O17   O     O_R   0.816120 0.862000 0.281880 -0.541004
O18   O     O_R   0.183880 0.138000 0.718120 -0.541004
C7    C     C_R   0.983770 0.824410 0.294122 0.696658
C8    C     C_R   0.016230 0.175590 0.705878 0.696657
V3    V     V_3+5 0.705540 0.991700 0.246660 1.414589
V4    V     V_3+5 0.294460 0.008300 0.753340 1.414588
O19   O     O_3   0.982150 0.044700 0.268010 -0.369654
O20   O     O_3   0.017850 0.955300 0.731990 -0.369654
C9    C     C_R   0.987414 0.723005 0.321731 -0.033322
C10   C     C_R   0.012586 0.276995 0.678269 -0.033322
C11   C     C_R   0.941362 0.566518 0.309515 -0.163049
C12   C     C_R   0.058638 0.433482 0.690484 -0.163049
C13   C     C_R   0.952523 0.662813 0.282200 -0.175300
C14   C     C_R   0.047477 0.337187 0.717800 -0.175301
C15   C     C_R   0.010410 0.687019 0.388813 -0.214802
C16   C     C_R   0.989589 0.312980 0.611187 -0.214801
C17   C     C_R   0.995224 0.589433 0.418231 0.084513
C18   C     C_R   0.004776 0.410567 0.581769 0.084513
C19   C     C_R   0.960570 0.529504 0.376939 0.142573
C20   C     C_R   0.039430 0.470496 0.623061 0.142573
C21   C     C_R   0.010107 0.549656 0.486956 0.059813
C22   C     C_R   0.989892 0.450344 0.513044 0.059813
C23   C     C_R   0.956304 0.394165 0.469541 -0.191848
C24   C     C_R   0.043695 0.605835 0.530459 -0.191848
C25   C     C_R   0.942547 0.433131 0.403062 -0.206232
C26   C     C_R   0.057453 0.566869 0.596938 -0.206232
H1    H     H_    0.915885 0.387121 0.371721 0.120527
H2    H     H_    0.084115 0.612879 0.628279 0.120527
H3    H     H_    0.965479 0.262371 0.583597 0.090285
H4    H     H_    0.034521 0.737629 0.416402 0.090285
H5    H     H_    0.067468 0.309491 0.769698 0.100622
H6    H     H_    0.932532 0.690509 0.230302 0.100622
H7    H     H_    0.914540 0.520881 0.277969 0.112650
H8    H     H_    0.085460 0.479119 0.722030 0.112650
C27   C     C_3   0.820506 0.994703 0.977572 -0.116759
C28   C     C_3   0.179494 0.005297 0.022428 -0.116759
C29   C     C_3   0.914553 0.920131 0.033780 -0.144980
C30   C     C_3   0.085447 0.079869 0.966220 -0.144980
H9    H     H_    0.844017 0.854276 0.062011 0.097881
H10   H     H_    0.155982 0.145724 0.937989 0.097881
C31   C     C_3   0.992503 0.998930 0.062232 -0.005126
C32   C     C_3   0.007497 0.001070 0.937768 -0.005126
C33   C     C_3   0.898530 0.073516 0.006826 -0.138666
C34   C     C_3   0.101470 0.926484 0.993174 -0.138666
H11   H     H_    0.814555 0.134067 0.012909 0.102285
H12   H     H_    0.185445 0.865933 0.987091 0.102285
C35   C     C_3   0.680957 0.994841 0.479175 -0.118314
C36   C     C_3   0.319043 0.005159 0.520825 -0.118314
C37   C     C_3   0.603657 0.073587 0.507703 -0.137057
C38   C     C_3   0.396343 0.926413 0.492297 -0.137057
H13   H     H_    0.689123 0.134322 0.514526 0.097026
H14   H     H_    0.310877 0.865678 0.485474 0.097026
H15   H     H_    0.830320 0.990644 0.461788 0.107964
H16   H     H_    0.169680 0.009356 0.538212 0.107964
C39   C     C_3   0.502876 0.999002 0.562248 -0.005287
C40   C     C_3   0.497124 0.000997 0.437752 -0.005287
C41   C     C_3   0.580209 0.920272 0.534531 -0.143253
C42   C     C_3   0.419791 0.079728 0.465469 -0.143253
H17   H     H_    0.646081 0.854452 0.563466 0.101692
H18   H     H_    0.353919 0.145548 0.436534 0.101692
C43   C     C_R   0.502025 0.276725 0.178139 -0.032975
C44   C     C_R   0.497975 0.723275 0.821861 -0.032974
C45   C     C_R   0.571854 0.431597 0.190007 -0.162202
C46   C     C_R   0.428146 0.568403 0.809993 -0.162202
C47   C     C_R   0.549207 0.335753 0.217468 -0.176891
C48   C     C_R   0.450793 0.664247 0.782532 -0.176891
C49   C     C_R   0.478016 0.313306 0.111175 -0.216278
C50   C     C_R   0.521984 0.686694 0.888825 -0.216278
C51   C     C_R   0.503174 0.410366 0.081664 0.084220
C52   C     C_R   0.496826 0.589634 0.918336 0.084220
C53   C     C_R   0.550569 0.469193 0.122704 0.142715
C54   C     C_R   0.449431 0.530807 0.877296 0.142716
C55   C     C_R   0.485059 0.450638 0.013100 0.059732
C56   C     C_R   0.514941 0.549362 0.986899 0.059732
C57   C     C_R   0.561396 0.604479 0.030127 -0.192861
C58   C     C_R   0.438604 0.395521 0.969873 -0.192861
C59   C     C_R   0.578344 0.565023 0.096460 -0.205483
C60   C     C_R   0.421656 0.434977 0.903540 -0.205484
H19   H     H_    0.614777 0.610205 0.127591 0.119384
H20   H     H_    0.385223 0.389795 0.872409 0.119384
H21   H     H_    0.556510 0.736511 0.916206 0.091470
H22   H     H_    0.443490 0.263489 0.083794 0.091470
H23   H     H_    0.430615 0.692494 0.730693 0.101383
H24   H     H_    0.569385 0.307506 0.269307 0.101383
H25   H     H_    0.608158 0.476397 0.221367 0.112939
H26   H     H_    0.391842 0.523603 0.778633 0.112939
H27   H     H_    0.586448 0.678966 0.014506 0.118790
H28   H     H_    0.413552 0.321034 0.985493 0.118790
H29   H     H_    0.939016 0.319190 0.485062 0.117475
H30   H     H_    0.060984 0.680810 0.514938 0.117475
H31   H     H_    0.672138 0.990382 0.958895 0.108886
H32   H     H_    0.327862 0.009618 0.041105 0.108886

loop_
_geom_bond_atom_site_label_1
_geom_bond_atom_site_label_2
_ccdc_geom_bond_type
C32   C34   S    
C46   C54   A    
C54   C60   A    
O13   V3    S    
O4    C2    A    
V1    O19   S    
C55   C56   A    
C43   C49   A    
C23   C25   A    
C21   C22   A    
C7    C9    S    
O9    V1    S    
C9    C15   A    
C38   H14   S    
C30   C33   S    
C10   C16   A    
C24   H30   S    
C11   C13   A    
C48   H23   S    
C36   C39   S    
O3    C1    A    
C27   C32   S    
C15   H4    S    
C52   C56   A    
O12   V4    S    
C56   C57   A    
C28   C30   S    
C18   C22   A    
C29   H9    S    
O7    C3    A    
C36   H16   S    
C27   C33   S    
O5    C7    A    
C13   H6    S    
O7    V1    S    
O6    C8    A    
C14   H5    S    
O8    V2    S    
C31   C33   S    
C45   C53   A    
C2    C39   S    
C26   H2    S    
O3    V1    S    
O14   V4    S    
C11   C19   A    
C30   H10   S    
C6    C32   S    
C46   H26   S    
C2    O12   A    
C24   C26   A    
C8    C10   S    
C59   H19   S    
C38   C40   S    
C17   C19   A    
C49   H22   S    
C18   C20   A    
C58   C60   A    
C35   C40   S    
C41   H17   S    
O11   V3    S    
O17   V3    S    
C27   C29   S    
C30   C32   S    
C4    C44   S    
C36   C38   S    
C44   C48   A    
C39   C41   S    
C43   C47   A    
C19   C25   A    
C1    O11   A    
C25   H1    S    
O15   V3    S    
C9    C13   A    
C33   H11   S    
C52   C54   A    
C49   C51   A    
C57   H27   S    
O10   V2    S    
O1    V3    S    
C37   C39   S    
C60   H20   S    
C28   C34   S    
C45   H25   S    
C40   C42   S    
C57   C59   A    
C46   C48   A    
C28   C31   S    
C58   H28   S    
C42   H18   S    
O15   C5    A    
O8    C4    A    
O16   C6    A    
C28   H32   S    
O1    C3    A    
C37   H13   S    
C38   C41   S    
C12   C14   A    
C51   C55   A    
C37   C42   S    
C35   H15   S    
C55   C58   A    
C35   C37   S    
V2    O20   S    
C21   C24   A    
C20   C26   A    
C23   H29   S    
C22   C23   A    
O16   V4    S    
C10   C14   A    
O18   C8    A    
C16   C18   A    
O18   V4    S    
O5    V1    S    
O17   C7    A    
O6    V2    S    
O10   C6    A    
C12   H8    S    
O2    V4    S    
C11   H7    S    
C5    C31   S    
C45   C47   A    
V3    O19   S    
C44   C50   A    
V4    O20   S    
C29   C34   S    
C50   C52   A    
C51   C53   A    
C47   H24   S    
O9    C5    A    
O13   V1    S    
O14   V2    S    
O2    C4    A    
C12   C20   A    
O4    V2    S    
C29   C31   S    
C50   H21   S    
C15   C17   A    
C27   H31   S    
C16   H3    S    
C3    C43   S    
C34   H12   S    
C17   C21   A    
C36   C42   S    
C53   C59   A    
C1    C40   S    
C35   C41   S    
