data_mof_unit_63407.cif
_audit_creation_date              2012-12-10T19:31:56-0500
_audit_creation_method            fapswitch 2.2
_symmetry_space_group_name_H-M    P1
_symmetry_Int_Tables_number       1
_space_group_crystal_system       triclinic
_cell_length_a                    18.799417
_cell_length_b                    18.590256
_cell_length_c                    18.73629
_cell_angle_alpha                 109.17335
_cell_angle_beta                  109.856329
_cell_angle_gamma                 109.246502
_cell_volume                      5049.07894993

loop_
_atom_site_label
_atom_site_type_symbol
_atom_type_description
_atom_site_fract_x
_atom_site_fract_y
_atom_site_fract_z
_atom_type_partial_charge
C1    C     C_R   0.380215 0.379960 0.499679 0.890464
C2    C     C_R   0.266785 0.197252 0.525239 0.044632
C3    C     C_3   0.326922 0.169034 0.566840 0.008952
C4    C     C_R   0.618834 0.498149 0.620876 0.831466
C5    C     C_3   0.397186 0.239215 0.563905 -0.043668
C6    C     C_R   0.283639 0.451342 0.225862 0.098656
C7    C     C_R   0.311290 0.499291 0.313604 -0.111670
C8    C     C_R   0.271392 0.548543 0.336547 -0.202259
C9    C     C_R   0.206526 0.548432 0.271377 -0.208310
C10   C     C_R   0.182219 0.499785 0.183671 -0.072690
C11   C     C_R   0.222265 0.452199 0.163639 0.033884
C12   C     C_3   0.809218 0.499175 0.807548 0.176508
C13   C     C_3   0.225787 0.392071 0.090805 -0.083575
C14   C     C_3   0.295926 0.390401 0.162474 -0.456238
C15   C     C_R   0.663789 0.709137 0.437515 0.030165
C16   C     C_R   0.620592 0.620255 0.500986 0.874043
C17   C     C_R   0.686276 0.687541 0.502926 -0.085780
C18   C     C_R   0.769992 0.739814 0.576519 -0.210285
C19   C     C_R   0.834236 0.804959 0.577183 -0.208562
C20   C     C_R   0.813501 0.818323 0.504860 -0.099560
C21   C     C_R   0.726747 0.774039 0.438527 0.108067
C22   C     C_3   0.687370 0.724977 0.341506 -0.474640
C23   C     C_3   0.848021 0.552447 0.768236 -0.369065
C24   C     C_3   0.617797 0.652496 0.340500 -0.059417
C25   C     C_R   0.997943 0.379876 0.878197 0.864776
C26   C     C_R   0.876887 0.499027 0.875285 0.832080
C27   C     C_R   0.997397 0.620291 0.116955 0.882227
C28   C     C_R   0.378716 0.499636 0.379195 0.856739
C29   C     C_R   0.117428 0.499143 0.117053 0.867764
C30   C     C_R   0.999439 0.119891 0.619430 0.876299
C31   C     C_R   0.119723 0.120517 0.500062 0.917638
C32   C     C_R   0.000501 0.879717 0.380195 0.893588
C33   C     C_R   0.879848 0.880113 0.500618 0.871872
C34   C     C_3   0.764151 0.540985 0.848368 -0.419793
C35   C     C_R   0.923721 0.240081 0.744714 0.126933
C36   C     C_R   0.999953 0.314368 0.814653 -0.094139
C37   C     C_R   0.079723 0.324748 0.820440 -0.218445
C38   C     C_R   0.080140 0.259789 0.756284 -0.228133
C39   C     C_R   0.000644 0.186327 0.685178 -0.086584
C40   C     C_3   0.667029 0.403033 0.664172 -0.369472
C41   C     C_R   0.923961 0.179581 0.681637 0.123234
C42   C     C_3   0.827285 0.124266 0.629988 -0.480047
C43   C     C_3   0.826963 0.194397 0.702027 -0.480368
C44   C     C_R   0.936042 0.710576 0.161987 0.101448
C45   C     C_R   0.327275 0.257401 0.522301 0.002831
C46   C     C_R   0.000132 0.687433 0.183504 -0.076854
C47   C     C_R   0.072537 0.736684 0.267953 -0.210473
C48   C     C_R   0.073704 0.801033 0.333428 -0.170177
C49   C     C_R   0.003342 0.817000 0.313220 -0.119897
C50   C     C_R   0.937661 0.774838 0.226276 0.164121
C51   C     C_3   0.840965 0.725688 0.186896 -0.472188
C52   C     C_3   0.740823 0.403594 0.733033 -0.402929
C53   C     C_3   0.839369 0.654738 0.115884 -0.519155
C54   C     C_3   0.775136 0.549755 0.696173 -0.417573
C55   C     C_3   0.693417 0.542858 0.778721 -0.376315
C56   C     C_R   0.311401 0.313882 0.495083 -0.109590
C57   C     C_3   0.686970 0.498443 0.688683 0.164695
C58   C     C_3   0.202139 0.359409 0.427792 -0.396918
C59   C     C_3   0.200609 0.431955 0.494537 -0.835368
C60   C     C_3   0.139995 0.304464 0.027947 -0.351344
C61   C     C_3   0.150159 0.239327 0.962937 -0.846620
C62   C     C_3   0.525477 0.638814 0.295529 -0.343207
C63   C     C_3   0.484342 0.591831 0.196315 -0.883171
C64   C     C_R   0.226961 0.304347 0.464293 0.148139
C65   C     C_R   0.163370 0.239647 0.465998 -0.231704
C66   C     C_R   0.183922 0.186171 0.498199 -0.133334
H1    H     H_    0.660199 0.368259 0.599193 0.204851
H2    H     H_    0.176079 0.586251 0.289204 0.137952
H3    H     H_    0.251149 0.425388 0.058138 0.158971
H4    H     H_    0.275792 0.326411 0.161146 0.207669
H5    H     H_    0.361757 0.422139 0.170768 0.189091
H6    H     H_    0.786359 0.727513 0.630981 0.136200
H7    H     H_    0.900015 0.842356 0.632299 0.166757
H8    H     H_    0.663196 0.759990 0.310310 0.208354
H9    H     H_    0.730249 0.704775 0.321844 0.172054
H10   H     H_    0.712607 0.362847 0.758848 0.191080
H11   H     H_    0.620627 0.590559 0.320816 0.173848
H12   H     H_    0.812855 0.609016 0.903438 0.156074
H13   H     H_    0.140973 0.381772 0.874579 0.156833
H14   H     H_    0.141645 0.267403 0.761416 0.154393
H15   H     H_    0.799266 0.121391 0.565803 0.214577
H16   H     H_    0.804523 0.059877 0.627807 0.202274
H17   H     H_    0.799352 0.232448 0.679578 0.196713
H18   H     H_    0.803387 0.170387 0.741076 0.213618
H19   H     H_    0.125570 0.722524 0.283819 0.146601
H20   H     H_    0.127654 0.835786 0.399632 0.191676
H21   H     H_    0.821155 0.704119 0.229173 0.192444
H22   H     H_    0.772262 0.373220 0.702193 0.154671
H23   H     H_    0.789589 0.617897 0.711738 0.156038
H24   H     H_    0.809316 0.760235 0.162488 0.206633
H25   H     H_    0.818639 0.591824 0.116778 0.218480
H26   H     H_    0.806899 0.648450 0.050571 0.196471
H27   H     H_    0.772601 0.517868 0.632916 0.177876
H28   H     H_    0.882804 0.524776 0.740487 0.169070
H29   H     H_    0.709882 0.612294 0.799228 0.185616
H30   H     H_    0.629697 0.508206 0.774007 0.161949
H31   H     H_    0.734100 0.502828 0.875255 0.178211
H32   H     H_    0.265743 0.475539 0.554616 0.271729
H33   H     H_    0.183231 0.471842 0.466431 0.244761
H34   H     H_    0.896031 0.621987 0.820074 0.182563
H35   H     H_    0.151496 0.403379 0.511871 0.250527
H36   H     H_    0.247777 0.389390 0.407679 0.199829
H37   H     H_    0.136705 0.316927 0.367899 0.202380
H38   H     H_    0.175596 0.268319 0.927732 0.260288
H39   H     H_    0.195693 0.220795 0.997362 0.258082
H40   H     H_    0.085836 0.179182 0.914426 0.252929
H41   H     H_    0.117396 0.275245 0.064589 0.217573
H42   H     H_    0.089272 0.316641 0.991156 0.205946
H43   H     H_    0.520963 0.633331 0.176063 0.264238
H44   H     H_    0.484201 0.528599 0.172604 0.251406
H45   H     H_    0.098643 0.231922 0.443103 0.169445
H46   H     H_    0.416026 0.578292 0.165676 0.249611
H47   H     H_    0.484401 0.598095 0.313296 0.202692
H48   H     H_    0.526411 0.702624 0.318040 0.218372
H49   H     H_    0.340147 0.186558 0.634490 0.115280
H50   H     H_    0.448998 0.295760 0.629898 0.089707
H51   H     H_    0.289865 0.586715 0.404033 0.172757
H52   H     H_    0.604519 0.366084 0.660363 0.172352
I1    I     I_    0.281329 0.032739 0.485483 -0.324574
I2    I     I_    0.445449 0.195993 0.478821 -0.325300
O1    O     O_R   0.408690 0.356690 0.448570 -0.589761
O2    O     O_R   0.947510 0.091650 0.539220 -0.623842
O3    O     O_R   0.143610 0.091630 0.552030 -0.613472
O4    O     O_R   0.408080 0.460090 0.551420 -0.629478
O5    O     O_R   0.039620 0.091690 0.448080 -0.629173
O6    O     O_R   0.052490 0.908450 0.460880 -0.611873
O7    O     O_R   0.948500 0.908500 0.356930 -0.622640
O8    O     O_R   0.960380 0.908410 0.552020 -0.626998
O9    O     O_R   0.856390 0.908470 0.448070 -0.622860
O10   O     O_R   0.592400 0.448300 0.540680 -0.615633
O11   O     O_R   0.591790 0.551700 0.643540 -0.636330
O12   O     O_R   0.049530 0.460080 0.906210 -0.624185
O13   O     O_R   0.591920 0.539910 0.448580 -0.629419
O14   O     O_R   0.591310 0.643310 0.551430 -0.614696
O15   O     O_R   0.408210 0.448300 0.356460 -0.623316
O16   O     O_R   0.407600 0.551700 0.459320 -0.625576
O17   O     O_R   0.946090 0.356720 0.906270 -0.625710
O18   O     O_R   0.853510 0.448360 0.905260 -0.630989
O19   O     O_R   0.956950 0.551730 0.905200 -0.630748
O20   O     O_R   0.945130 0.540000 0.088470 -0.623708
O21   O     O_R   0.048570 0.643360 0.088400 -0.612135
O22   O     O_R   0.037700 0.448350 0.089480 -0.622977
O23   O     O_R   0.141150 0.551720 0.089410 -0.621311
O24   O     O_R   0.051500 0.091600 0.643170 -0.627096
Zn1   Zn    Zn3+2 0.500410 0.430960 0.431320 0.973870
Zn2   Zn    Zn3+2 0.499590 0.569040 0.568680 0.940782
Zn3   Zn    Zn3+2 0.928260 0.431020 0.997380 0.940684
Zn4   Zn    Zn3+2 0.066400 0.569060 0.997290 0.955578
Zn5   Zn    Zn3+2 0.069430 0.000010 0.569450 0.965250
Zn6   Zn    Zn3+2 0.930570 0.000090 0.430650 0.946422

loop_
_geom_bond_atom_site_label_1
_geom_bond_atom_site_label_2
_ccdc_geom_bond_type
C31   C66   S    
C40   H52   S    
O3    Zn5   S    
C28   O15   A    
C59   H33   S    
C14   H5    S    
C35   C36   A    
C42   H16   S    
C16   O14   A    
C7    C8    A    
C39   C41   A    
C13   C60   S    
C37   H13   S    
C12   C23   S    
C37   C38   A    
C38   H14   S    
C47   H19   S    
C32   O7    A    
C36   C37   A    
C1    C56   S    
C62   H48   S    
O7    Zn6   S    
C38   C39   A    
O6    Zn5   S    
C44   C50   A    
C29   O23   A    
O4    Zn2   S    
C43   H17   S    
C34   H31   S    
C30   O24   A    
O11   Zn2   S    
C18   C19   A    
C41   C42   S    
C32   O6    A    
C63   H46   S    
C65   H45   S    
C54   H27   S    
O21   Zn4   S    
C44   C53   S    
C30   O2    A    
C45   C56   A    
C16   C17   S    
O15   Zn1   S    
C40   H1    S    
C4    C57   S    
C53   H25   S    
C56   C64   A    
C58   H36   S    
C35   C43   S    
C9    C10   A    
C60   H42   S    
C26   O18   A    
C23   H34   S    
C34   C55   S    
C21   C22   S    
O10   Zn1   S    
C58   C64   S    
C43   H18   S    
C14   H4    S    
C42   H15   S    
C22   H9    S    
C53   H26   S    
C16   O13   A    
O20   Zn3   S    
C12   C52   S    
C44   C46   A    
C8    H51   S    
C50   C51   S    
C4    O11   A    
C2    C45   A    
C18   H6    S    
O23   Zn4   S    
O14   Zn2   S    
O19   Zn4   S    
C5    I2    S    
O12   Zn4   S    
C19   H7    S    
C61   H38   S    
C62   H47   S    
C55   H29   S    
C26   O19   A    
O5    Zn6   S    
C51   H21   S    
C6    C11   A    
C8    C9    A    
C4    O10   A    
C3    C5    S    
C58   C59   S    
C40   C52   S    
C5    C45   S    
C33   O8    A    
C7    C28   S    
C12   C26   S    
C60   C61   S    
C51   C53   S    
C59   H35   S    
C63   H43   S    
C25   O17   A    
O24   Zn5   S    
C6    C14   S    
C24   H11   S    
C47   C48   A    
C52   H22   S    
O18   Zn3   S    
C62   C63   S    
C17   C18   A    
C61   H40   S    
C60   H41   S    
C3    I1    S    
C54   H23   S    
C20   C33   S    
C27   C46   S    
C48   C49   A    
C65   C66   A    
C55   C57   S    
C5    H50   S    
O1    Zn1   S    
C22   C24   S    
O13   Zn1   S    
C42   C43   S    
C22   H8    S    
C12   C34   S    
O2    Zn6   S    
C61   H39   S    
C23   C54   S    
C33   O9    A    
C15   C17   A    
C46   C47   A    
C15   C24   S    
C24   C62   S    
C40   C57   S    
C28   O16   A    
O22   Zn3   S    
O17   Zn3   S    
C55   H30   S    
C52   H10   S    
C2    C66   A    
C6    C7    A    
C27   O20   A    
C23   H28   S    
C64   C65   A    
C19   C20   A    
C2    C3    S    
C9    H2    S    
C31   O3    A    
O9    Zn6   S    
C51   H24   S    
C3    H49   S    
C34   H12   S    
C11   C13   S    
C10   C29   S    
C13   H3    S    
C63   H44   S    
C29   O22   A    
C27   O21   A    
C30   C39   S    
C48   H20   S    
C35   C41   A    
C1    O1    A    
C32   C49   S    
C1    O4    A    
C10   C11   A    
C25   C36   S    
O8    Zn5   S    
C15   C21   A    
C20   C21   A    
C49   C50   A    
C59   H32   S    
C31   O5    A    
C58   H37   S    
C13   C14   S    
C25   O12   A    
O16   Zn2   S    
C54   C57   S    
