data_mof_unit_68271.cif
_audit_creation_date              2012-12-10T20:52:12-0500
_audit_creation_method            fapswitch 2.2
_symmetry_space_group_name_H-M    P1
_symmetry_Int_Tables_number       1
_space_group_crystal_system       triclinic
_cell_length_a                    10.660748
_cell_length_b                    8.909448
_cell_length_c                    8.106075
_cell_angle_alpha                 90.121136
_cell_angle_beta                  90.303061
_cell_angle_gamma                 89.622356
_cell_volume                      769.897030829

loop_
_atom_site_label
_atom_site_type_symbol
_atom_type_description
_atom_site_fract_x
_atom_site_fract_y
_atom_site_fract_z
_atom_type_partial_charge
C1    C     C_R   0.500842 0.218020 0.499883 0.933527
C2    C     C_R   0.740300 0.495135 0.500590 0.872891
C3    C     C_R   0.176460 0.985886 0.262323 0.164502
C4    C     C_R   0.823595 0.013986 0.737344 0.164505
C5    C     C_R   0.124563 0.871306 0.358108 -0.196621
C6    C     C_R   0.875504 0.128642 0.641677 -0.196634
C7    C     C_R   0.119704 0.723654 0.297986 0.067850
C8    C     C_R   0.880298 0.276265 0.701905 0.067798
C9    C     C_R   0.165643 0.691088 0.139967 -0.092775
C10   C     C_R   0.834286 0.308723 0.859921 -0.092759
C11   C     C_R   0.218687 0.804504 0.044655 -0.157423
C12   C     C_R   0.499153 0.781980 0.500117 0.933511
C13   C     C_R   0.781228 0.195230 0.955116 -0.157411
C14   C     C_R   0.224176 0.951422 0.105189 -0.130619
C15   C     C_R   0.775799 0.048343 0.894470 -0.130608
C16   C     C_R   0.931136 0.599059 0.400606 -0.232107
C17   C     C_R   0.068864 0.400952 0.599398 -0.232153
C18   C     C_R   0.872388 0.494980 0.501835 -0.069263
C19   C     C_R   0.127612 0.505030 0.498168 -0.069262
C20   C     C_R   0.940086 0.394543 0.602258 0.010120
C21   C     C_R   0.059914 0.605455 0.397733 0.010124
C22   C     C_1   0.500380 0.065230 0.499855 -0.211593
C23   C     C_1   0.499610 0.934770 0.500145 -0.211560
C24   C     C_R   0.259700 0.504868 0.499410 0.872898
H1    H     H_    0.264544 0.038217 0.029122 0.129116
H2    H     H_    0.123616 0.322985 0.673761 0.151089
H3    H     H_    0.219092 0.208655 0.239871 0.195054
H4    H     H_    0.233078 0.138021 0.430795 0.170533
H5    H     H_    0.780984 0.791188 0.759586 0.195080
H6    H     H_    0.767116 0.861927 0.568695 0.170481
H7    H     H_    0.735417 0.961488 0.970445 0.129129
H8    H     H_    0.087201 0.897431 0.478965 0.148536
H9    H     H_    0.912922 0.102600 0.520822 0.148547
H10   H     H_    0.160408 0.578071 0.090947 0.137353
H11   H     H_    0.839473 0.421717 0.909026 0.137365
H12   H     H_    0.254726 0.778726 0.923149 0.151276
H13   H     H_    0.745131 0.220926 0.076618 0.151235
H14   H     H_    0.876383 0.677018 0.326232 0.151085
N1    N     N_1   0.500020 0.500030 0.073640 -0.048258
N2    N     N_1   0.499980 0.499970 0.926360 -0.048270
N3    N     N_3   0.177012 0.136710 0.324669 -0.465236
N4    N     N_3   0.823111 0.863196 0.674885 -0.465248
O1    O     O_R   0.499990 0.285340 0.636850 -0.607986
O2    O     O_R   0.500010 0.714660 0.363150 -0.607994
O3    O     O_R   0.500010 0.285350 0.363100 -0.625860
O4    O     O_R   0.499990 0.714650 0.636900 -0.625859
O5    O     O_R   0.316750 0.500000 0.636870 -0.629350
O6    O     O_R   0.683250 0.500000 0.363130 -0.629321
O7    O     O_R   0.316770 0.500020 0.363120 -0.624081
O8    O     O_R   0.683230 0.499980 0.636880 -0.624123
Zn1   Zn    Zn3+2 0.499990 0.499990 0.682780 0.959371
Zn2   Zn    Zn3+2 0.500010 0.500010 0.317220 0.959397

loop_
_geom_bond_atom_site_label_1
_geom_bond_atom_site_label_2
_ccdc_geom_bond_type
O2    Zn2   S    
O5    Zn1   S    
C10   C13   A    
C15   H7    S    
C16   C21   A    
H5    N4    S    
C2    C18   S    
N2    Zn1   S    
H3    N3    S    
C13   H13   S    
C6    H9    S    
C5    H8    S    
C1    O3    A    
O7    Zn2   S    
C4    C15   A    
N1    Zn2   S    
C1    C22   S    
C12   O2    A    
C16   C18   A    
C9    C11   A    
C12   C23   S    
O1    Zn1   S    
C8    C20   S    
C3    C14   A    
C4    N4    S    
C17   H2    S    
C24   O7    A    
C4    C6    A    
C11   H12   S    
C17   C19   A    
C19   C24   S    
C18   C20   A    
C13   C15   A    
C14   H1    S    
C9    H10   S    
C11   C14   A    
C19   C21   A    
C10   H11   S    
C7    C9    A    
H4    N3    S    
O6    Zn2   S    
C17   C20   A    
C8    C10   A    
C2    O6    A    
N1    N2    T    
C5    C7    A    
C22   C23   T    
C3    N3    S    
C6    C8    A    
C2    O8    A    
O3    Zn2   S    
O8    Zn1   S    
C7    C21   S    
C24   O5    A    
O4    Zn1   S    
C1    O1    A    
H6    N4    S    
C16   H14   S    
C3    C5    A    
C12   O4    A    
