data_mof_unit_23428.cif
_audit_creation_date              2012-12-11T15:39:29-0500
_audit_creation_method            fapswitch 2.2
_symmetry_space_group_name_H-M    P1
_symmetry_Int_Tables_number       1
_space_group_crystal_system       triclinic
_cell_length_a                    17.395285
_cell_length_b                    24.227119
_cell_length_c                    15.094356
_cell_angle_alpha                 89.795755
_cell_angle_beta                  125.787407
_cell_angle_gamma                 90.077614
_cell_volume                      5160.227273

loop_
_atom_site_label
_atom_site_type_symbol
_atom_type_description
_atom_site_fract_x
_atom_site_fract_y
_atom_site_fract_z
_atom_type_partial_charge
C1    C     C_R   0.348198 0.349341 0.908281 -0.134609
C2    C     C_R   0.442493 0.499494 0.639099 -0.082589
C3    C     C_R   0.116838 0.815495 0.000518 0.075937
C4    C     C_3   0.920592 0.394254 0.205772 0.157036
C5    C     C_3   0.026326 0.391245 0.254592 -0.298125
C6    C     C_3   0.069358 0.448764 0.274394 -0.997162
C7    C     C_3   0.132799 0.290176 0.791834 0.147970
C8    C     C_3   0.045759 0.288198 0.673081 -0.250093
C9    C     C_3   0.957174 0.308150 0.661936 -1.057663
C10   C     C_3   0.309478 0.743768 0.281856 0.146597
C11   C     C_3   0.332961 0.696884 0.362507 -0.271739
C12   C     C_3   0.439260 0.685882 0.437598 -0.977468
C13   C     C_R   0.952732 0.997265 0.277421 -0.091749
C14   C     C_3   0.655576 0.787717 0.766750 0.137193
C15   C     C_3   0.565675 0.752876 0.718331 -0.289722
C16   C     C_3   0.476439 0.788396 0.651081 -1.027435
C17   C     C_3   0.601127 0.632137 0.331870 0.121693
C18   C     C_3   0.692426 0.640412 0.446333 -0.279085
C19   C     C_3   0.746929 0.690840 0.450084 -1.023283
C20   C     C_3   0.375252 0.629305 0.662840 0.153700
C21   C     C_3   0.277527 0.622966 0.554024 -0.293138
C22   C     C_3   0.211129 0.669708 0.536449 -1.043157
C23   C     C_3   0.084197 0.114278 0.364604 0.142793
C24   C     C_R   0.941246 0.997421 0.636507 -0.065636
C25   C     C_3   0.135632 0.085113 0.476003 -0.293898
C26   C     C_3   0.234457 0.109030 0.556518 -0.989620
C27   C     C_3   0.863149 0.121719 0.663450 0.131544
C28   C     C_3   0.819374 0.170790 0.584906 -0.251128
C29   C     C_3   0.756372 0.205215 0.603078 -1.057180
C30   C     C_R   0.173149 0.500302 0.705585 0.081906
C31   C     C_R   0.801268 0.500652 0.365969 0.091496
C32   C     C_R   0.674455 0.000710 0.722361 0.085449
C33   C     C_R   0.303963 0.000153 0.365429 0.082716
C34   C     C_R   0.023056 0.552776 0.608072 0.170169
C35   C     C_R   0.928053 0.553019 0.524170 0.165688
C36   C     C_R   0.522304 0.052172 0.619138 0.178135
C37   C     C_R   0.689813 0.375113 0.092739 -0.127003
C38   C     C_R   0.429229 0.051718 0.528942 0.153308
C39   C     C_R   0.071456 0.502651 0.649936 0.035684
C40   C     C_R   0.880274 0.503014 0.480226 0.019198
C41   C     C_R   0.571732 0.002486 0.664213 0.029913
C42   C     C_R   0.383402 0.001720 0.480791 0.036491
C43   C     C_R   0.018455 0.454218 0.626463 -0.208511
C44   C     C_R   0.922040 0.454340 0.541012 -0.199543
C45   C     C_R   0.518759 0.953362 0.634212 -0.204259
C46   C     C_R   0.424431 0.952901 0.541818 -0.199305
C47   C     C_3   0.938578 0.601426 0.469773 -0.524138
C48   C     C_R   0.851989 0.848212 0.908091 -0.155424
C49   C     C_3   0.041965 0.600900 0.560818 -0.538702
C50   C     C_3   0.442089 0.101821 0.480598 -0.520921
C51   C     C_3   0.544079 0.102163 0.578515 -0.526057
C52   C     C_R   0.161593 0.692204 0.894928 -0.160302
C53   C     C_R   0.843899 0.684307 0.099736 -0.164852
C54   C     C_R   0.785999 0.267605 0.899915 -0.163393
C55   C     C_R   0.344151 0.182610 0.095745 -0.162881
C56   C     C_R   0.740222 0.313804 0.901294 -0.223756
C57   C     C_R   0.385256 0.231272 0.093411 -0.226123
C58   C     C_R   0.111459 0.735308 0.897465 -0.231003
C59   C     C_R   0.148729 0.848082 0.091361 -0.117776
C60   C     C_R   0.887180 0.731415 0.095864 -0.205640
C61   C     C_R   0.763363 0.334249 0.001128 -0.047741
C62   C     C_R   0.341858 0.261541 0.995461 -0.030617
C63   C     C_R   0.139354 0.757438 0.998173 0.004935
C64   C     C_R   0.848897 0.758791 0.995736 -0.037174
C65   C     C_R   0.400106 0.625405 0.088027 -0.185394
C66   C     C_R   0.601138 0.621894 0.911034 -0.185472
C67   C     C_R   0.942887 0.152455 0.089638 -0.067568
C68   C     C_R   0.100369 0.120965 0.909747 -0.173614
C69   C     C_R   0.849815 0.317487 0.098833 0.571787
C70   C     C_R   0.314142 0.642454 0.995785 0.093877
C71   C     C_R   0.266187 0.237354 0.896942 0.554902
C72   C     C_R   0.201884 0.727146 0.095171 0.574728
C73   C     C_R   0.776878 0.732112 0.897489 0.584526
C74   C     C_R   0.249251 0.681970 0.090185 -0.358167
C75   C     C_R   0.743830 0.681173 0.903205 -0.314785
C76   C     C_R   0.893762 0.270058 0.096929 -0.299083
C77   C     C_R   0.236349 0.184829 0.899236 -0.306352
C78   C     C_R   0.238788 0.670476 0.993022 0.094692
C79   C     C_R   0.765105 0.662656 0.002847 0.070714
C80   C     C_R   0.856385 0.242125 0.998333 0.072068
C81   C     C_R   0.691451 0.633654 0.003089 0.083850
C82   C     C_R   0.262993 0.162528 0.998892 0.072465
C83   C     C_R   0.541437 0.530621 0.586243 -0.153357
C84   C     C_R   0.569866 0.526949 0.519099 -0.144270
C85   C     C_R   0.940454 0.945218 0.498199 -0.182504
C86   C     C_R   0.941947 0.944688 0.408490 -0.180481
C87   C     C_R   0.519349 0.492845 0.428546 0.187878
C88   C     C_R   0.462873 0.500018 0.561684 0.203364
C89   C     C_R   0.920176 0.992844 0.346359 0.170142
C90   C     C_R   0.915988 0.993596 0.526383 0.171877
C91   C     C_R   0.442305 0.461082 0.405403 -0.185526
C92   C     C_R   0.880802 0.184253 0.998750 0.074049
C93   C     C_R   0.413983 0.464607 0.472996 -0.210081
C94   C     C_R   0.881042 0.038273 0.363657 -0.165994
C95   C     C_R   0.878437 0.038565 0.453763 -0.172193
C96   C     C_R   0.532156 0.451190 0.291247 -0.252495
C97   C     C_R   0.454586 0.453856 0.699339 -0.253756
C98   C     C_R   0.980028 0.952540 0.245782 -0.237392
C99   C     C_R   0.955797 0.952712 0.700993 -0.237372
C100  C     C_R   0.230825 0.545769 0.734785 -0.168000
C101  C     C_R   0.753220 0.545900 0.302380 -0.203144
C102  C     C_R   0.732616 0.046369 0.753141 -0.178793
C103  C     C_R   0.190914 0.132766 0.001098 0.082667
C104  C     C_R   0.254259 0.045724 0.302785 -0.175207
C105  C     C_R   0.540544 0.542783 0.301073 0.540710
C106  C     C_R   0.448881 0.544882 0.695761 0.517290
C107  C     C_R   0.984821 0.044339 0.254850 0.551594
C108  C     C_R   0.951766 0.044050 0.695506 0.509794
C109  C     C_R   0.230280 0.453729 0.740690 -0.129665
C110  C     C_R   0.754912 0.454412 0.303813 -0.149673
C111  C     C_R   0.730786 0.954133 0.748256 -0.116210
C112  C     C_R   0.256597 0.954065 0.302373 -0.126567
C113  C     C_R   0.316435 0.632484 0.907593 -0.127141
C114  C     C_R   0.538233 0.495332 0.349830 -0.076804
C115  C     C_R   0.691575 0.622508 0.093284 -0.123362
C116  C     C_R   0.851054 0.152108 0.908585 -0.171275
C117  C     C_R   0.191738 0.122060 0.092218 -0.125206
C118  C     C_R   0.435704 0.349647 0.090192 -0.125705
C119  C     C_R   0.598995 0.376023 0.909895 -0.113000
C120  C     C_R   0.940341 0.847780 0.089223 -0.120989
C121  C     C_R   0.056358 0.847989 0.909404 -0.122059
C122  C     C_R   0.370697 0.318764 0.998035 0.071545
C123  C     C_R   0.689150 0.362880 0.002051 0.071413
C124  C     C_R   0.877246 0.816281 0.997281 0.080927
H1    H     H_    0.315385 0.335054 0.825982 0.158987
H2    H     H_    0.085394 0.589753 0.531365 0.215784
H3    H     H_    0.123667 0.109215 0.327942 0.081762
H4    H     H_    0.093809 0.089925 0.509733 0.222833
H5    H     H_    0.142546 0.040341 0.466228 0.191369
H6    H     H_    0.277131 0.104934 0.523874 0.260008
H7    H     H_    0.270749 0.086311 0.635257 0.275002
H8    H     H_    0.229696 0.153308 0.571646 0.270355
H9    H     H_    0.897230 0.136617 0.748041 0.129537
H10   H     H_    0.804741 0.092451 0.640340 0.099722
H11   H     H_    0.876557 0.197336 0.596287 0.222927
H12   H     H_    0.776369 0.155452 0.499464 0.189263
H13   H     H_    0.401443 0.137898 0.478153 0.189624
H14   H     H_    0.700510 0.179086 0.595957 0.267470
H15   H     H_    0.721866 0.238532 0.540727 0.278608
H16   H     H_    0.799585 0.224554 0.685106 0.264420
H17   H     H_    0.052748 0.415324 0.663642 0.135965
H18   H     H_    0.885017 0.415309 0.514258 0.140679
H19   H     H_    0.552435 0.914375 0.672341 0.127432
H20   H     H_    0.388786 0.913578 0.512113 0.128893
H21   H     H_    0.593432 0.093614 0.556006 0.198429
H22   H     H_    0.145056 0.680048 0.816711 0.112830
H23   H     H_    0.866849 0.668355 0.178698 0.118647
H24   H     H_    0.759072 0.249268 0.821697 0.122511
H25   H     H_    0.370560 0.164007 0.173968 0.119450
H26   H     H_    0.680273 0.328940 0.823608 0.136345
H27   H     H_    0.445326 0.247177 0.170046 0.135315
H28   H     H_    0.058502 0.754514 0.820308 0.134334
H29   H     H_    0.745787 0.368955 0.177818 0.155249
H30   H     H_    0.944595 0.748620 0.172763 0.138283
H31   H     H_    0.581986 0.556177 0.658535 0.135489
H32   H     H_    0.630042 0.550797 0.536777 0.130511
H33   H     H_    0.967806 0.909205 0.550596 0.119290
H34   H     H_    0.970415 0.908160 0.396659 0.116803
H35   H     H_    0.402512 0.435200 0.333530 0.130122
H36   H     H_    0.354774 0.440160 0.456697 0.124469
H37   H     H_    0.858058 0.074567 0.312094 0.168162
H38   H     H_    0.851544 0.074854 0.468208 0.166241
H39   H     H_    0.420816 0.628791 0.169434 0.157104
H40   H     H_    0.820552 0.834771 0.825736 0.153438
H41   H     H_    0.576597 0.626627 0.828000 0.153795
H42   H     H_    0.990677 0.167388 0.171760 0.106631
H43   H     H_    0.074280 0.124591 0.825748 0.155067
H44   H     H_    0.209071 0.410982 0.729816 0.097523
H45   H     H_    0.765256 0.412269 0.332398 0.095819
H46   H     H_    0.709272 0.911460 0.736283 0.079817
H47   H     H_    0.267848 0.911637 0.329697 0.082705
H48   H     H_    0.268938 0.648897 0.826613 0.075717
H49   H     H_    0.749497 0.627591 0.178161 0.090676
H50   H     H_    0.812724 0.165945 0.825026 0.094377
H51   H     H_    0.188971 0.835953 0.175793 0.140389
H52   H     H_    0.250163 0.127379 0.176871 0.092561
H53   H     H_    0.478057 0.335949 0.174171 0.087929
H54   H     H_    0.572285 0.371320 0.825665 0.096843
H55   H     H_    0.985677 0.833481 0.172680 0.089956
H56   H     H_    0.009214 0.834921 0.825484 0.090296
H57   H     H_    0.911822 0.419006 0.261179 0.142330
H58   H     H_    0.881256 0.416759 0.126076 0.089196
H59   H     H_    0.064260 0.368428 0.333465 0.211226
H60   H     H_    0.036063 0.368544 0.197949 0.189872
H61   H     H_    0.033285 0.472154 0.196362 0.270382
H62   H     H_    0.924917 0.591562 0.389778 0.201293
H63   H     H_    0.145788 0.445156 0.309323 0.265955
H64   H     H_    0.062424 0.471783 0.332937 0.267183
H65   H     H_    0.149209 0.333935 0.818577 0.110575
H66   H     H_    0.114311 0.268903 0.842981 0.102308
H67   H     H_    0.058032 0.314445 0.621916 0.196987
H68   H     H_    0.034111 0.245043 0.642957 0.210504
H69   H     H_    0.941578 0.280720 0.708676 0.278562
H70   H     H_    0.895631 0.307637 0.574635 0.275037
H71   H     H_    0.967154 0.350766 0.693583 0.272262
H72   H     H_    0.320812 0.783485 0.324494 0.102324
H73   H     H_    0.065066 0.638238 0.613168 0.191874
H74   H     H_    0.359975 0.744677 0.258896 0.091682
H75   H     H_    0.307461 0.708319 0.412447 0.199245
H76   H     H_    0.296312 0.658272 0.318047 0.213273
H77   H     H_    0.463565 0.668731 0.389878 0.295487
H78   H     H_    0.455252 0.655580 0.501682 0.298103
H79   H     H_    0.478213 0.724792 0.476634 0.264072
H80   H     H_    0.643220 0.817738 0.703857 0.135122
H81   H     H_    0.668918 0.812653 0.836470 0.084810
H82   H     H_    0.563451 0.720029 0.665935 0.226868
H83   H     H_    0.566739 0.732851 0.785341 0.183067
H84   H     H_    0.433986 0.093332 0.403154 0.201705
H85   H     H_    0.476788 0.820824 0.703153 0.269905
H86   H     H_    0.412584 0.762310 0.617069 0.270087
H87   H     H_    0.472211 0.808295 0.581927 0.261721
H88   H     H_    0.299203 0.658965 0.163538 0.146064
H89   H     H_    0.690345 0.661248 0.827363 0.138399
H90   H     H_    0.953016 0.253717 0.173976 0.137505
H91   H     H_    0.178548 0.167987 0.822174 0.148683
H92   H     H_    0.535204 0.407854 0.310490 0.132158
H93   H     H_    0.445921 0.411221 0.674199 0.132297
H94   H     H_    0.968245 0.909470 0.251707 0.132610
H95   H     H_    0.562240 0.138709 0.631731 0.194814
H96   H     H_    0.939875 0.909953 0.676549 0.125976
H97   H     H_    0.210222 0.587642 0.712930 0.110604
H98   H     H_    0.760739 0.587914 0.329060 0.115398
H99   H     H_    0.714080 0.089027 0.749668 0.119688
H100  H     H_    0.261105 0.087511 0.331045 0.097123
H101  H     H_    0.563974 0.672532 0.302804 0.137630
H102  H     H_    0.616633 0.620156 0.273036 0.092368
H103  H     H_    0.674864 0.646625 0.505585 0.223446
H104  H     H_    0.737536 0.602976 0.471382 0.181035
H105  H     H_    0.759060 0.688237 0.385710 0.254658
H106  H     H_    0.902712 0.638989 0.470471 0.206833
H107  H     H_    0.816328 0.693270 0.531291 0.272499
H108  H     H_    0.706309 0.729078 0.437042 0.273776
H109  H     H_    0.397096 0.673216 0.673832 0.147083
H110  H     H_    0.371816 0.619147 0.732113 0.090079
H111  H     H_    0.284777 0.623241 0.485636 0.222932
H112  H     H_    0.246349 0.582698 0.552972 0.183048
H113  H     H_    0.204712 0.671464 0.605372 0.262681
H114  H     H_    0.139877 0.662825 0.459309 0.279571
H115  H     H_    0.238540 0.709890 0.530268 0.268235
H116  H     H_    0.083190 0.159289 0.377738 0.136663
N1    N     N_R   0.394180 0.396910 0.943210 -0.047134
N2    N     N_R   0.474350 0.471570 0.793850 -0.057676
N3    N     N_R   0.025650 0.971570 0.206150 -0.062559
N4    N     N_R   0.974350 0.971570 0.793850 -0.057893
N5    N     N_R   0.319480 0.528420 0.793810 -0.050914
N6    N     N_R   0.680520 0.528420 0.206190 -0.042544
N7    N     N_R   0.819480 0.028420 0.793810 -0.056505
N8    N     N_R   0.180520 0.028420 0.206190 -0.040717
N9    N     N_R   0.525640 0.528390 0.206120 -0.099585
N10   N     N_R   0.474360 0.528390 0.793880 -0.097693
N11   N     N_R   0.025640 0.028390 0.206120 -0.103839
N12   N     N_R   0.605820 0.396910 0.056790 -0.047313
N13   N     N_R   0.974360 0.028390 0.793880 -0.100481
N14   N     N_R   0.319490 0.471590 0.793840 -0.038540
N15   N     N_R   0.680510 0.471590 0.206160 -0.037350
N16   N     N_R   0.819490 0.971590 0.793840 -0.040562
N17   N     N_R   0.180510 0.971590 0.206160 -0.037343
N18   N     N_R   0.394130 0.603080 0.943110 -0.042104
N19   N     N_R   0.605870 0.603080 0.056890 -0.044003
N20   N     N_R   0.894130 0.103080 0.943110 -0.043396
N21   N     N_R   0.105870 0.103080 0.056890 -0.043219
N22   N     N_R   0.450990 0.396900 0.056840 -0.034822
N23   N     N_R   0.894180 0.896910 0.943210 -0.042901
N24   N     N_R   0.549010 0.396900 0.943160 -0.039199
N25   N     N_R   0.950990 0.896900 0.056840 -0.034391
N26   N     N_R   0.049010 0.896900 0.943160 -0.036068
N27   N     N_R   0.105820 0.896910 0.056790 -0.046618
N28   N     N_R   0.450950 0.603070 0.056740 -0.047544
N29   N     N_R   0.549050 0.603070 0.943260 -0.045928
N30   N     N_R   0.950950 0.103070 0.056740 -0.049474
N31   N     N_R   0.049050 0.103070 0.943260 -0.048918
N32   N     N_R   0.525650 0.471570 0.206150 -0.055104
Ni1   Ni    Ni4+2 0.434860 0.434850 0.869700 0.208730
Ni2   Ni    Ni4+2 0.565140 0.434850 0.130300 0.207051
Ni3   Ni    Ni4+2 0.934860 0.934850 0.869700 0.206613
Ni4   Ni    Ni4+2 0.065140 0.934850 0.130300 0.208783
Ni5   Ni    Ni4+2 0.565130 0.565140 0.130240 0.200117
Ni6   Ni    Ni4+2 0.434870 0.565140 0.869760 0.203463
Ni7   Ni    Ni4+2 0.065130 0.065140 0.130240 0.198565
Ni8   Ni    Ni4+2 0.934870 0.065140 0.869760 0.197659
O1    O     O_3   0.884841 0.340739 0.199303 -0.687735
O2    O     O_3   0.211410 0.266532 0.800017 -0.687639
O3    O     O_3   0.212719 0.740821 0.191323 -0.678796
O4    O     O_3   0.734874 0.755166 0.795020 -0.682273
O5    O     O_3   0.540783 0.595398 0.336974 -0.702981
O6    O     O_3   0.443507 0.598703 0.661582 -0.707381
O7    O     O_3   0.988843 0.096718 0.293455 -0.688741
O8    O     O_3   0.931846 0.097324 0.654507 -0.701895

loop_
_geom_bond_atom_site_label_1
_geom_bond_atom_site_label_2
_ccdc_geom_bond_type
C101  H98   S    
C10   O3    S    
N29   Ni6   S    
C109  H44   S    
C87   C91   A    
C108  N13   A    
C70   C78   S    
C28   H11   S    
N12   Ni2   S    
C68   C103  A    
C71   C77   A    
C13   C107  A    
N6    Ni5   S    
C35   C47   S    
C50   H13   S    
C7    C8    S    
C47   C49   S    
C47   H106  S    
C49   H73   S    
C45   C46   A    
N4    N13   A    
C29   H14   S    
C6    H61   S    
C77   H91   S    
N21   N31   A    
C33   C42   S    
C31   C101  A    
C23   H3    S    
C16   H85   S    
C53   C79   A    
C25   H4    S    
C1    H1    S    
C34   C35   A    
C59   H51   S    
C118  C122  A    
C5    C6    S    
N20   Ni8   S    
C30   C100  A    
C9    H69   S    
C112  H47   S    
C83   H31   S    
N6    N15   A    
C51   H21   S    
C8    H67   S    
C61   C69   A    
C65   C70   A    
C33   C104  A    
C6    H64   S    
C109  N14   A    
C53   H23   S    
C31   C40   S    
C69   C76   A    
C18   C19   S    
C42   C46   A    
C12   H79   S    
N1    Ni1   S    
C13   C98   A    
C98   H94   S    
C11   H76   S    
C18   H104  S    
N8    Ni7   S    
C100  N5    A    
C27   H10   S    
C27   O8    S    
C37   C123  A    
C67   N30   A    
C17   H101  S    
C53   C60   A    
C69   O1    S    
C83   C84   A    
C2    C97   A    
N22   Ni2   S    
C8    C9    S    
C87   C114  S    
C118  N22   A    
C62   C71   A    
N4    Ni3   S    
C94   H37   S    
C64   C73   A    
C84   C87   A    
C7    H66   S    
C2    C88   S    
N5    Ni6   S    
C24   C108  A    
C119  H54   S    
C12   H78   S    
C4    H57   S    
C121  H56   S    
C19   H108  S    
C110  N15   A    
C5    H60   S    
C91   H35   S    
C26   H6    S    
C22   H113  S    
C117  N21   A    
N7    N16   A    
C83   C88   A    
C97   N2    A    
C10   C11   S    
N18   N28   A    
C107  N11   A    
C14   C15   S    
C106  O6    S    
C21   C22   S    
C111  N16   A    
C73   C75   A    
N9    N32   A    
C81   C115  A    
C36   C41   A    
C103  C117  A    
C85   H33   S    
C3    C63   S    
C52   C78   A    
C101  N6    A    
C10   H74   S    
N14   Ni1   S    
C58   H28   S    
C102  H99   S    
C55   H25   S    
C113  H48   S    
C54   C80   A    
C70   C113  A    
C29   H15   S    
C54   C56   A    
N27   Ni4   S    
N3    N11   A    
C65   N28   A    
C99   N4    A    
N15   Ni2   S    
C34   C39   A    
C27   H9    S    
C37   H29   S    
C105  C114  A    
C57   C62   A    
C24   C99   A    
C36   C51   S    
C68   N31   A    
C72   C74   A    
C14   H80   S    
N26   N27   A    
C95   H38   S    
C59   N27   A    
C79   C81   S    
C9    H70   S    
C117  H52   S    
N19   N29   A    
C39   C43   A    
C30   C109  A    
C14   O4    S    
C25   C26   S    
C85   C86   A    
N28   Ni5   S    
C75   H89   S    
C105  O5    S    
C74   H88   S    
C55   C82   A    
N2    N10   A    
N30   Ni7   S    
C80   C92   S    
C93   H36   S    
C107  O7    S    
C43   C44   A    
C118  H53   S    
N18   Ni6   S    
C108  O8    S    
N13   Ni8   S    
C10   H72   S    
C112  N17   A    
C91   C93   A    
C17   O5    S    
C17   H102  S    
N25   Ni4   S    
C119  N24   A    
N21   Ni7   S    
N26   Ni3   S    
C32   C41   S    
C65   H39   S    
C9    H71   S    
C17   C18   S    
N11   Ni7   S    
C61   C123  S    
C50   C51   S    
C72   O3    S    
C20   O6    S    
C12   H77   S    
C63   C72   A    
C47   H62   S    
C92   C116  A    
N16   Ni3   S    
C98   N3    A    
C7    O2    S    
C52   C58   A    
C38   C50   S    
C116  N20   A    
C67   H42   S    
N32   Ni2   S    
N31   Ni8   S    
C20   H109  S    
C20   H110  S    
N1    N22   A    
C55   C57   A    
C97   H93   S    
N19   Ni5   S    
C25   H5    S    
C4    O1    S    
C113  N18   A    
C56   H26   S    
C76   H90   S    
N10   Ni6   S    
C62   C122  S    
C26   H8    S    
C73   O4    S    
C54   H24   S    
C22   H115  S    
N5    N14   A    
C33   C112  A    
C58   C63   A    
N23   N25   A    
C29   H16   S    
C88   C93   A    
C28   C29   S    
N17   Ni4   S    
C52   H22   S    
C120  N25   A    
C66   H41   S    
C13   C89   S    
C20   C21   S    
C28   H12   S    
C71   O2    S    
C120  H55   S    
C16   H87   S    
C102  N7    A    
C76   C80   A    
N2    Ni1   S    
C4    C5    S    
C86   C89   A    
C24   C90   S    
C121  N26   A    
C89   C94   A    
C32   C111  A    
C46   H20   S    
C85   C90   A    
C86   H34   S    
C38   C42   A    
C48   H40   S    
C119  C123  A    
C96   N32   A    
C37   N12   A    
C104  N8    A    
C64   C124  S    
C48   N23   A    
N23   Ni3   S    
N24   Ni1   S    
C96   H92   S    
C116  H50   S    
C60   C64   A    
C111  H46   S    
C51   H95   S    
C106  N10   A    
C16   H86   S    
C35   C40   A    
C105  N9    A    
C19   H105  S    
C115  H49   S    
C66   N29   A    
C1    N1    A    
C66   C81   A    
C100  H97   S    
C23   H116  S    
C84   H32   S    
C21   H111  S    
C75   C79   A    
C77   C82   A    
C8    H68   S    
C50   H84   S    
C15   C16   S    
C57   H27   S    
C36   C38   A    
C67   C92   A    
C31   C110  A    
N9    Ni5   S    
C30   C39   S    
C32   C102  A    
C23   C25   S    
N20   N30   A    
C94   C95   A    
C11   H75   S    
C60   H30   S    
C96   C114  A    
C15   H82   S    
C43   H17   S    
C18   H103  S    
N12   N24   A    
C82   C103  S    
C2    C106  A    
N8    N17   A    
C21   H112  S    
C110  H45   S    
C120  C124  A    
C40   C44   A    
C104  H100  S    
C99   H96   S    
C34   C49   S    
C44   H18   S    
C48   C124  A    
C74   C78   A    
C14   H81   S    
C6    H63   S    
C27   C28   S    
C45   H19   S    
C41   C45   A    
C56   C61   A    
C7    H65   S    
N7    Ni8   S    
C115  N19   A    
C1    C122  A    
C4    H58   S    
C68   H43   S    
C19   H107  S    
N3    Ni4   S    
C5    H59   S    
C90   C95   A    
C15   H83   S    
C26   H7    S    
C3    C121  A    
C11   C12   S    
C3    C59   A    
C22   H114  S    
C49   H2    S    
C23   O7    S    
