data_mof_unit_33897.cif
_audit_creation_date              2012-10-26T20:19:33-0400
_audit_creation_method            fapswitch 2.2
_symmetry_space_group_name_H-M    P1
_symmetry_Int_Tables_number       1
_space_group_crystal_system       triclinic
_cell_length_a                    10.786165
_cell_length_b                    10.851239
_cell_length_c                    9.596446
_cell_angle_alpha                 90.258647
_cell_angle_beta                  89.750271
_cell_angle_gamma                 92.659437
_cell_volume                      1121.96844407

loop_
_atom_site_label
_atom_site_type_symbol
_atom_type_description
_atom_site_fract_x
_atom_site_fract_y
_atom_site_fract_z
_atom_type_partial_charge
C1    C     C_R   0.491672 0.262502 0.500117 0.552768
C2    C     C_R   0.419289 0.063213 0.613815 0.018684
C3    C     C_R   0.477392 0.128196 0.501265 -0.002355
C4    C     C_R   0.259972 0.502156 0.499869 0.600993
C5    C     C_R   0.528528 0.064246 0.390239 -0.148415
C6    C     C_R   0.529232 0.937382 0.391868 -0.165188
C7    C     C_R   0.481806 0.870743 0.506188 -0.010201
C8    C     C_R   0.666072 0.663163 0.144133 -0.094179
C9    C     C_R   0.747927 0.742269 0.071945 -0.175706
C10   C     C_R   0.747553 0.742675 0.928342 -0.162361
C11   C     C_R   0.665490 0.663786 0.856112 -0.087457
C12   C     C_3   0.877466 0.501942 0.498826 -0.050189
C13   C     C_R   0.581519 0.580356 0.925283 0.150934
C14   C     C_R   0.581492 0.580353 0.074876 0.149356
C15   C     C_R   0.422315 0.423370 0.072984 0.088763
C16   C     C_R   0.493122 0.737163 0.501475 0.520008
C17   C     C_R   0.421504 0.425100 0.925450 -0.007110
C18   C     C_R   0.739784 0.502359 0.499743 0.535124
C19   C     C_3   0.070808 0.551303 0.641585 0.128818
C20   C     C_3   0.927953 0.551150 0.641192 -0.239345
C21   C     C_3   0.074788 0.581896 0.373701 0.116277
C22   C     C_3   0.066218 0.367340 0.476197 0.115354
C23   C     C_3   0.931597 0.586784 0.381138 -0.217648
C24   C     C_3   0.121551 0.502581 0.498345 0.075069
C25   C     C_3   0.107407 0.771399 0.626965 -0.139996
C26   C     C_1   0.870659 0.310345 0.347760 0.186630
C27   C     C_3   0.128819 0.619013 0.140789 -0.106563
C28   C     C_1   0.339980 0.335385 0.142390 0.266387
C29   C     C_3   0.100800 0.164239 0.536872 -0.155651
C30   C     C_3   0.921236 0.368039 0.476847 -0.108290
C31   C     C_R   0.350941 0.124181 0.717583 -0.105736
C32   C     C_R   0.303348 0.062175 0.833692 -0.138935
C33   C     C_R   0.316292 0.936531 0.845523 -0.131737
C34   C     C_R   0.372828 0.871899 0.738949 -0.101792
C35   C     C_R   0.426017 0.933280 0.620424 0.013416
Cu1   Cu    Cu3+1 0.499990 0.499990 0.640660 0.933080
Cu2   Cu    Cu3+1 0.500010 0.500010 0.359340 0.967287
H1    H     H_    0.891257 0.557735 0.279009 0.187135
H2    H     H_    0.811862 0.804028 0.128200 0.111833
H3    H     H_    0.811147 0.804830 0.872155 0.119072
H4    H     H_    0.672060 0.672441 0.746308 0.179282
H5    H     H_    0.356351 0.365130 0.869582 0.110946
H6    H     H_    0.891891 0.490176 0.726817 0.135113
H7    H     H_    0.892344 0.643111 0.665135 0.127201
H8    H     H_    0.117132 0.676662 0.383113 0.099102
H9    H     H_    0.903867 0.683106 0.397707 0.052466
H10   H     H_    0.100770 0.335476 0.372894 0.200358
H11   H     H_    0.884078 0.310672 0.564853 0.139490
H12   H     H_    0.571712 0.112827 0.302925 0.160035
H13   H     H_    0.020801 0.770855 0.566526 0.086106
H14   H     H_    0.186792 0.797426 0.557760 0.121452
H15   H     H_    0.100049 0.845603 0.705878 0.141524
H16   H     H_    0.213846 0.677261 0.164010 0.125545
H17   H     H_    0.047313 0.677386 0.129859 0.104892
H18   H     H_    0.143545 0.572449 0.039289 0.163734
H19   H     H_    0.179418 0.147171 0.465168 0.146591
H20   H     H_    0.011328 0.137408 0.485468 0.115359
H21   H     H_    0.107961 0.103301 0.628531 0.143333
H22   H     H_    0.326743 0.218652 0.706777 0.170645
H23   H     H_    0.252638 0.111196 0.912383 0.133458
H24   H     H_    0.276244 0.887507 0.934187 0.119465
H25   H     H_    0.366441 0.773689 0.751623 0.195036
H26   H     H_    0.571814 0.891398 0.304672 0.135056
H27   H     H_    0.092903 0.479947 0.719493 0.197249
H28   H     H_    0.673481 0.671145 0.253962 0.174736
N1    N     N_R   0.501200 0.501210 0.147910 -0.259063
N2    N     N_R   0.501250 0.501290 0.852040 -0.256379
N3    N     N_1   0.831077 0.265234 0.246866 -0.291596
N4    N     N_1   0.273863 0.263527 0.196867 -0.331767
O1    O     O_R   0.499990 0.319640 0.618810 -0.508854
O2    O     O_3   0.108652 0.528012 0.244218 -0.565045
O3    O     O_3   0.106898 0.288452 0.582777 -0.617552
O4    O     O_R   0.500000 0.319660 0.381240 -0.486425
O5    O     O_R   0.317680 0.499970 0.618790 -0.481733
O6    O     O_R   0.317700 0.499990 0.381210 -0.469558
O7    O     O_R   0.500000 0.680340 0.618760 -0.541700
O8    O     O_R   0.500010 0.680360 0.381190 -0.534040
O9    O     O_R   0.682300 0.500010 0.618790 -0.524438
O10   O     O_R   0.682320 0.500030 0.381210 -0.512127
O11   O     O_3   0.131185 0.660578 0.696882 -0.586029

loop_
_geom_bond_atom_site_label_1
_geom_bond_atom_site_label_2
_ccdc_geom_bond_type
C2    C35   A    
C25   O11   S    
C19   C20   S    
C34   H25   S    
C27   H17   S    
Cu2   O10   S    
C12   C23   S    
C19   C24   S    
C21   O2    S    
C30   H11   S    
Cu1   Cu2   S    
C34   C35   A    
C5    C6    A    
C4    C24   S    
C27   H18   S    
C9    H2    S    
C10   H3    S    
C16   O8    A    
C31   H22   S    
C17   H5    S    
C4    O6    A    
Cu1   O7    S    
C25   H13   S    
C28   N4    T    
C18   O10   A    
C9    C10   A    
C4    O5    A    
C29   O3    S    
C22   H10   S    
Cu2   O6    S    
C8    H28   S    
C23   H9    S    
C13   C14   A    
C5    H12   S    
C22   O3    S    
C20   H7    S    
Cu1   O1    S    
C21   H8    S    
Cu1   N2    S    
C17   N2    A    
C8    C9    A    
C15   N1    A    
Cu2   O8    S    
C2    C31   A    
C1    C3    S    
C6    H26   S    
C25   H14   S    
C31   C32   A    
C19   H27   S    
C18   O9    A    
Cu2   N1    S    
C12   C20   S    
C33   C34   A    
C14   N1    A    
Cu1   O5    S    
C7    C16   S    
C29   H20   S    
C26   C30   S    
C21   C23   S    
C22   C24   S    
C32   H23   S    
C20   H6    S    
C27   O2    S    
C13   N2    A    
C15   C17   A    
Cu2   O4    S    
C8    C14   A    
C22   C30   S    
C12   C30   S    
C16   O7    A    
C7    C35   A    
C3    C5    A    
C27   H16   S    
C6    C7    A    
C29   H19   S    
C23   H1    S    
C1    O1    A    
C26   N3    T    
C32   C33   A    
C2    C3    A    
C25   H15   S    
C1    O4    A    
Cu1   O9    S    
C11   C13   A    
C15   C28   S    
C11   H4    S    
C19   O11   S    
C10   C11   A    
C29   H21   S    
C33   H24   S    
C21   C24   S    
C12   C18   S    
