data_mof_unit_40413.cif
_audit_creation_date              2012-12-11T17:37:55-0500
_audit_creation_method            fapswitch 2.2
_symmetry_space_group_name_H-M    P1
_symmetry_Int_Tables_number       1
_space_group_crystal_system       triclinic
_cell_length_a                    13.026854
_cell_length_b                    13.011563
_cell_length_c                    15.415249
_cell_angle_alpha                 116.502197
_cell_angle_beta                  63.572376
_cell_angle_gamma                 97.596246
_cell_volume                      2086.74951191

loop_
_atom_site_label
_atom_site_type_symbol
_atom_type_description
_atom_site_fract_x
_atom_site_fract_y
_atom_site_fract_z
_atom_type_partial_charge
C1    C     C_R   0.064143 0.821962 0.992991 -0.114651
C2    C     C_R   0.672533 0.549400 0.319612 0.063719
C3    C     C_R   0.663686 0.457652 0.924094 -0.025040
C4    C     C_R   0.064495 0.800040 0.303812 0.067423
C5    C     C_R   0.338311 0.520013 0.953804 -0.043400
C6    C     C_R   0.977329 0.179779 0.784924 -0.108165
C7    C     C_R   0.201219 0.505114 0.694497 -0.095165
C8    C     C_R   0.038942 0.260713 0.099326 -0.127960
C9    C     C_R   0.935493 0.178951 0.009061 -0.087859
C10   C     C_R   0.299046 0.594919 0.791340 -0.087327
C11   C     C_R   0.258782 0.415863 0.046718 -0.160386
C12   C     C_R   0.678944 0.473034 0.219308 -0.141906
C13   C     C_R   0.052296 0.277527 0.685275 -0.075464
C14   C     C_R   0.361935 0.435957 0.975132 0.227371
C15   C     C_R   0.040806 0.168746 0.682153 0.155508
C16   C     C_R   0.296301 0.565481 0.694751 0.055355
C17   C     C_R   0.982094 0.163197 0.068017 0.059175
C18   C     C_R   0.422145 0.708860 0.189500 -0.127142
C19   C     C_R   0.321591 0.765717 0.282489 -0.120175
C20   C     C_R   0.282562 0.875830 0.308195 0.117386
C21   C     C_R   0.345037 0.928128 0.239714 -0.201590
C22   C     C_R   0.445650 0.871004 0.146817 -0.076211
C23   C     C_R   0.756388 0.520070 0.893141 -0.059490
C24   C     C_R   0.484040 0.761403 0.121627 -0.063029
C25   C     C_R   0.165649 0.021810 0.499950 -0.117618
C26   C     C_R   0.055348 0.064077 0.588348 0.001012
C27   C     C_R   0.954253 0.014269 0.581827 -0.013337
C28   C     C_R   0.962368 0.930610 0.485337 -0.108182
C29   C     C_R   0.068333 0.890646 0.397534 0.047958
C30   C     C_R   0.171451 0.932017 0.402568 -0.085483
C31   C     C_R   0.797177 0.001335 0.745368 -0.015793
C32   C     C_R   0.683083 0.025442 0.823708 -0.071092
C33   C     C_R   0.606646 0.093660 0.826138 -0.135263
C34   C     C_R   0.012794 0.701458 0.302819 -0.141611
C35   C     C_R   0.644299 0.137524 0.750086 -0.035700
C36   C     C_R   0.759066 0.116011 0.673320 -0.108857
C37   C     C_R   0.836682 0.048912 0.671293 0.080549
C38   C     C_R   0.814121 0.303727 0.368959 0.041244
C39   C     C_R   0.708924 0.364766 0.411329 -0.152636
C40   C     C_R   0.695148 0.485222 0.470810 -0.108950
C41   C     C_R   0.784952 0.545008 0.493753 0.547752
C42   C     C_R   0.893307 0.485145 0.438738 -0.306315
C43   C     C_R   0.907401 0.365394 0.380007 -0.300005
C44   C     C_R   0.497624 0.560059 0.590894 -0.101925
C45   C     C_R   0.677562 0.420088 0.988899 -0.189004
C46   C     C_R   0.388033 0.582304 0.606188 0.000163
C47   C     C_R   0.371860 0.601928 0.529714 0.033066
C48   C     C_R   0.467331 0.598400 0.438564 -0.241131
C49   C     C_R   0.576097 0.569227 0.421316 0.082241
C50   C     C_R   0.590532 0.546422 0.496945 0.110268
C51   C     C_R   0.216788 0.509737 0.478731 -0.191714
C52   C     C_R   0.098693 0.502319 0.512429 -0.182554
C53   C     C_R   0.022445 0.598262 0.595686 -0.055439
C54   C     C_R   0.064634 0.703290 0.640558 -0.062705
C55   C     C_R   0.182039 0.708519 0.613487 -0.147590
C56   C     C_R   0.089147 0.804706 0.209562 -0.116861
C57   C     C_R   0.257356 0.609789 0.536246 0.123498
C58   C     C_2   0.474493 0.398239 0.951723 -0.457572
C59   C     C_2   0.572793 0.426939 0.888599 0.531129
C60   C     C_2   0.051728 0.916517 0.883327 -0.263340
C61   C     C_2   0.152346 0.963733 0.865017 -0.083363
C62   C     C_R   0.782447 0.570401 0.309435 -0.105715
C63   C     C_R   0.959467 0.739428 0.901534 -0.138434
C64   C     C_R   0.017882 0.835958 0.932876 0.159677
H1    H     H_    0.127749 0.872549 0.017083 0.082826
H2    H     H_    0.952286 0.111848 0.810258 0.084042
H3    H     H_    0.169624 0.471342 0.634924 0.116062
H4    H     H_    0.074873 0.282834 0.155832 0.085509
H5    H     H_    0.873765 0.125993 0.983593 0.083172
H6    H     H_    0.355635 0.652119 0.821908 0.120239
H7    H     H_    0.247419 0.359814 0.084478 0.100670
H8    H     H_    0.092163 0.298950 0.617899 0.084220
H9    H     H_    0.561502 0.717100 0.049382 0.119807
H10   H     H_    0.451678 0.623815 0.169691 0.112872
H11   H     H_    0.273392 0.723624 0.333823 0.120216
H12   H     H_    0.608734 0.436626 0.198898 0.097852
H13   H     H_    0.315004 0.012201 0.257659 0.105424
H14   H     H_    0.493439 0.911346 0.093926 0.111730
H15   H     H_    0.884402 0.895248 0.478497 0.181089
H16   H     H_    0.854690 0.945353 0.742141 0.111439
H17   H     H_    0.653495 0.989615 0.881308 0.110551
H18   H     H_    0.517857 0.111031 0.885806 0.115170
H19   H     H_    0.584037 0.186666 0.749601 0.181221
H20   H     H_    0.786913 0.148581 0.613513 0.162404
H21   H     H_    0.991405 0.320975 0.342504 0.124801
H22   H     H_    0.780276 0.549966 0.832024 0.148895
H23   H     H_    0.638057 0.319384 0.396617 0.169092
H24   H     H_    0.967755 0.531744 0.438526 0.178606
H25   H     H_    0.510090 0.538286 0.645975 0.203377
H26   H     H_    0.456402 0.611029 0.378078 0.132500
H27   H     H_    0.274583 0.433037 0.418576 0.116458
H28   H     H_    0.066437 0.420841 0.477124 0.130118
H29   H     H_    0.930705 0.591535 0.624471 0.142543
H30   H     H_    0.005437 0.778635 0.700087 0.107947
H31   H     H_    0.993592 0.666520 0.359523 0.152239
H32   H     H_    0.213642 0.787036 0.655569 0.140192
H33   H     H_    0.471686 0.375993 0.012556 0.118341
H34   H     H_    0.995683 0.934072 0.855695 0.129752
H35   H     H_    0.214285 0.947266 0.887441 0.120837
H36   H     H_    0.633556 0.353853 0.012545 0.102846
H37   H     H_    0.137385 0.866830 0.181575 0.096978
H38   H     H_    0.807611 0.631513 0.369451 0.154266
H39   H     H_    0.926493 0.714948 0.842547 0.088149
H40   H     H_    0.396286 0.565669 0.910862 0.163758
N1    N     N_R   0.037320 0.720000 0.995830 -0.048212
N2    N     N_R   0.946240 0.290870 0.848020 -0.047596
N3    N     N_R   0.146160 0.501170 0.788610 -0.039165
N4    N     N_R   0.025750 0.332680 0.063570 -0.033114
N5    N     N_R   0.962680 0.280000 0.004170 -0.042105
N6    N     N_R   0.209230 0.553860 0.848010 -0.040966
N7    N     N_R   0.175100 0.482030 0.063570 -0.046448
N8    N     N_R   0.996810 0.351820 0.788610 -0.047542
N9    N     N_R   0.790770 0.446140 0.151990 -0.040353
N10   N     N_R   0.824900 0.517970 0.936430 -0.051919
N11   N     N_R   0.003190 0.648180 0.211390 -0.048329
N12   N     N_R   0.774330 0.457010 0.995830 -0.031843
N13   N     N_R   0.053760 0.709130 0.151980 -0.041603
N14   N     N_R   0.853840 0.498830 0.211390 -0.048431
N15   N     N_R   0.974250 0.667320 0.936430 -0.046931
N16   N     N_R   0.225670 0.542990 0.004170 -0.066085
Ni1   Ni    Ni4+2 0.130310 0.630310 0.000000 0.222045
Ni2   Ni    Ni4+2 0.869690 0.369690 0.000000 0.222930
Ni3   Ni    Ni4+2 0.985660 0.509480 0.863750 0.231257
Ni4   Ni    Ni4+2 0.014340 0.490520 0.136250 0.224519
C65   C     C_2   0.273806 0.067238 0.508778 0.512377
H41   H     H_    0.354023 0.049106 0.437023 0.041522
O1    O     O_2   0.275811 0.122794 0.596021 -0.552046
C66   C     C_2   0.829120 0.176681 0.309784 0.529892
H42   H     H_    0.911842 0.131492 0.276858 -0.016538
O2    O     O_2   0.749688 0.120881 0.297064 -0.580176
S1    S     S_3+6 0.766979 0.694741 0.582000 -0.100179
O3    O     O_2   0.882177 0.742608 0.564707 -0.398531
O4    O     O_2   0.698497 0.761207 0.564026 -0.292864
O5    O     O_3   0.695850 0.713534 0.710234 -0.486175
H43   H     H_    0.754909 0.728276 0.737436 0.339908
S2    S     S_3+6 0.597215 0.429862 0.766752 -0.101690
O6    O     O_2   0.508473 0.368342 0.728719 -0.292574
O7    O     O_2   0.594103 0.552845 0.784586 -0.337850
O8    O     O_3   0.728555 0.365464 0.671960 -0.579994
H44   H     H_    0.742137 0.381178 0.610647 0.375245

loop_
_geom_bond_atom_site_label_1
_geom_bond_atom_site_label_2
_ccdc_geom_bond_type
C41   C42   A    
C3    C23   A    
C35   C36   A    
N3    Ni3   S    
S1    O5    S    
C2    C12   A    
C66   H42   S    
C31   H16   S    
C20   C30   S    
C53   C54   A    
N16   Ni1   S    
C32   H17   S    
C26   C27   A    
N12   Ni2   S    
C18   C24   A    
C36   C37   A    
C9    H5    S    
C56   H37   S    
C13   N8    A    
C60   H34   S    
N6    Ni1   S    
C38   C39   A    
C11   C14   A    
C11   H7    S    
C24   H9    S    
C44   C50   A    
C59   S2    S    
N4    N5    A    
C18   C19   A    
C56   N13   A    
C28   H15   S    
C25   C65   S    
N13   Ni1   S    
C51   H27   S    
C6    C15   A    
C46   C47   A    
N9    Ni2   S    
C19   C20   A    
N11   N13   A    
C23   H22   S    
C1    H1    S    
C51   C57   A    
C39   H23   S    
C33   H18   S    
C4    C29   S    
C5    H40   S    
C18   H10   S    
C48   H26   S    
C21   C22   A    
C4    C56   A    
C61   H35   S    
C58   H33   S    
N4    Ni4   S    
S2    O8    S    
C8    N4    A    
C44   C46   A    
C9    N5    A    
C14   C58   S    
C4    C34   A    
C54   H30   S    
C5    N16   A    
C11   N7    A    
C51   C52   A    
C43   H21   S    
C34   H31   S    
C22   H14   S    
N8    Ni3   S    
S2    O7    D    
C16   C46   S    
C39   C40   A    
C41   S1    S    
C35   H19   S    
C55   H32   S    
C15   C26   S    
N2    N8    A    
C25   C26   A    
C63   C64   A    
C53   H29   S    
C3    C45   A    
C31   C37   A    
N7    N16   A    
C29   C30   A    
C2    C49   S    
C47   C57   S    
C63   N15   A    
C38   C66   S    
C47   C48   A    
C48   C49   A    
N2    Ni2   S    
C6    N2    A    
N1    Ni1   S    
N14   Ni4   S    
C5    C14   A    
N10   Ni3   S    
C10   H6    S    
C63   H39   S    
C40   C41   A    
C8    H4    S    
C55   C57   A    
C12   H12   S    
C65   H41   S    
N3    N6    A    
C22   C24   A    
C52   H28   S    
C42   H24   S    
C42   C43   A    
S1    O3    D    
C1    C64   A    
C52   C53   A    
C12   N9    A    
C9    C17   A    
C25   C30   A    
C54   C55   A    
C28   C29   A    
N11   Ni4   S    
N7    Ni4   S    
C31   C32   A    
C7    C16   A    
C36   H20   S    
S2    O6    D    
S1    O4    D    
C45   H36   S    
C66   O2    D    
N10   N12   A    
O8    H44   S    
O5    H43   S    
C13   H8    S    
N15   Ni3   S    
C8    C17   A    
C60   C64   S    
N1    N15   A    
C32   C33   A    
C13   C15   A    
C34   N11   A    
C38   C43   A    
C10   C16   A    
C23   N10   A    
C45   N12   A    
C27   C37   S    
C40   C50   S    
C19   H11   S    
C33   C35   A    
C10   N6    A    
C7    N3    A    
N5    Ni2   S    
C58   C59   D    
C62   N14   A    
C7    H3    S    
N9    N14   A    
C6    H2    S    
C20   C21   A    
C49   C50   A    
C21   H13   S    
C27   C28   A    
C65   O1    D    
C60   C61   D    
C44   H25   S    
C2    C62   A    
C1    N1    A    
C62   H38   S    
C3    C59   S    
