data_mof_unit_8594.cif
_audit_creation_date              2012-12-11T14:04:05-0500
_audit_creation_method            fapswitch 2.2
_symmetry_space_group_name_H-M    P1
_symmetry_Int_Tables_number       1
_space_group_crystal_system       triclinic
_cell_length_a                    18.934655
_cell_length_b                    10.988275
_cell_length_c                    18.728958
_cell_angle_alpha                 90.07114
_cell_angle_beta                  89.938248
_cell_angle_gamma                 90.191024
_cell_volume                      3896.70503992

loop_
_atom_site_label
_atom_site_type_symbol
_atom_type_description
_atom_site_fract_x
_atom_site_fract_y
_atom_site_fract_z
_atom_type_partial_charge
C1    C     C_R   0.227412 0.512239 0.637681 0.565641
C2    C     C_R   0.989211 0.658376 0.577519 -0.038005
C3    C     C_R   0.502061 0.166804 0.427628 -0.040237
C4    C     C_R   0.489207 0.158376 0.577521 -0.038007
C5    C     C_R   0.990278 0.892862 0.435140 -0.071708
C6    C     C_R   0.960290 0.874187 0.580450 -0.075691
C7    C     C_R   0.490277 0.392861 0.435141 -0.071714
C8    C     C_R   0.460287 0.374188 0.580452 -0.075684
C9    C     C_R   0.967885 0.994702 0.473453 -0.125742
C10   C     C_R   0.951083 0.984427 0.545533 -0.127753
C11   C     C_R   0.467884 0.494702 0.473454 -0.125742
C12   C     C_R   0.760865 0.468374 0.354091 0.564565
C13   C     C_R   0.451081 0.484427 0.545535 -0.127743
C14   C     C_R   0.981750 0.770105 0.542385 0.009774
C15   C     C_R   0.991915 0.776549 0.467460 0.008883
C16   C     C_R   0.481748 0.270105 0.542386 0.009777
C17   C     C_R   0.491913 0.276549 0.467461 0.008883
C18   C     C_R   0.989250 0.550249 0.536678 0.019051
C19   C     C_R   0.010218 0.555866 0.465089 0.015719
C20   C     C_R   0.489244 0.050249 0.536680 0.019047
C21   C     C_R   0.510212 0.055864 0.465091 0.015717
C22   C     C_R   0.973325 0.435443 0.566737 -0.078361
C23   C     C_R   0.727415 0.012227 0.637680 0.565634
C24   C     C_R   0.032765 0.447322 0.431392 -0.076834
C25   C     C_R   0.473318 0.935444 0.566741 -0.078359
C26   C     C_R   0.532758 0.947319 0.431396 -0.076846
C27   C     C_R   0.990035 0.328788 0.530438 -0.145194
C28   C     C_R   0.021891 0.334684 0.463659 -0.143826
C29   C     C_R   0.490029 0.828788 0.530443 -0.145186
C30   C     C_R   0.521884 0.834682 0.463664 -0.143831
C31   C     C_2   0.258102 0.938099 0.913614 -0.103214
C32   C     C_2   0.761150 0.896677 0.070955 -0.103352
C33   C     C_2   0.758102 0.438099 0.913614 -0.103214
C34   C     C_R   0.260865 0.968374 0.354091 0.564565
C35   C     C_2   0.261150 0.396677 0.070955 -0.103352
C36   C     C_2   0.272392 0.988458 0.066433 -0.098436
C37   C     C_2   0.752296 0.895513 0.914455 -0.108110
C38   C     C_2   0.772392 0.488458 0.066433 -0.098436
C39   C     C_2   0.252296 0.395513 0.914455 -0.108110
C40   C     C_R   0.227752 0.875555 0.648112 0.550083
C41   C     C_R   0.771444 0.878470 0.350118 0.562924
C42   C     C_R   0.727753 0.375555 0.648112 0.550086
C43   C     C_R   0.271444 0.378470 0.350117 0.562924
C44   C     C_2   0.236844 0.060639 0.021556 -0.162247
C45   C     C_2   0.295182 0.854067 0.539258 -0.168847
C46   C     C_2   0.811827 0.914451 0.950622 -0.154748
C47   C     C_2   0.736843 0.560639 0.021556 -0.162247
C48   C     C_2   0.311827 0.414451 0.950622 -0.154748
C49   C     C_2   0.221407 0.024470 0.947870 -0.153123
C50   C     C_2   0.816758 0.888589 0.026317 -0.151872
C51   C     C_2   0.721407 0.524470 0.947870 -0.153123
C52   C     C_2   0.316758 0.388590 0.026317 -0.151871
C53   C     C_2   0.044348 0.655887 0.933338 -0.095676
C54   C     C_2   0.017341 0.663992 0.087347 -0.109334
C55   C     C_2   0.544348 0.155887 0.933338 -0.095675
C56   C     C_2   0.696706 0.882873 0.454395 -0.165074
C57   C     C_2   0.517341 0.163993 0.087347 -0.109334
C58   C     C_2   0.040510 0.564780 0.052785 -0.155682
C59   C     C_2   0.064869 0.568472 0.978474 -0.165851
C60   C     C_2   0.540510 0.064780 0.052785 -0.155682
C61   C     C_2   0.564869 0.068472 0.978474 -0.165851
C62   C     C_R   0.025727 0.654149 0.647361 0.533449
C63   C     C_R   0.972373 0.656000 0.354421 0.533346
C64   C     C_R   0.525726 0.154149 0.647362 0.533449
C65   C     C_R   0.472373 0.156000 0.354421 0.533344
C66   C     C_R   0.239480 0.462879 0.849459 0.557637
C67   C     C_2   0.795183 0.354070 0.539259 -0.168847
C68   C     C_R   0.775917 0.518619 0.141559 0.570623
C69   C     C_R   0.739481 0.962879 0.849459 0.557635
C70   C     C_R   0.275917 0.018619 0.141559 0.570623
C71   C     C_R   0.228748 0.876749 0.851478 0.550463
C72   C     C_R   0.773894 0.870502 0.145408 0.543865
C73   C     C_R   0.728748 0.376750 0.851478 0.550462
C74   C     C_R   0.273894 0.370502 0.145408 0.543864
C75   C     C_R   0.062304 0.647954 0.858331 0.571813
C76   C     C_R   0.972958 0.652614 0.150533 0.542004
C77   C     C_R   0.562304 0.147954 0.858331 0.571812
C78   C     C_2   0.196711 0.382866 0.454398 -0.165071
C79   C     C_R   0.472958 0.152614 0.150533 0.542005
C80   C     C_2   0.250855 0.920787 0.579184 -0.108513
C81   C     C_2   0.743967 0.938984 0.412642 -0.113616
C82   C     C_2   0.750855 0.420789 0.579185 -0.108514
C83   C     C_2   0.243964 0.438985 0.412641 -0.113614
C84   C     C_2   0.248607 0.912333 0.423091 -0.118117
C85   C     C_2   0.737938 0.969477 0.565659 -0.111720
C86   C     C_2   0.748607 0.412334 0.423091 -0.118115
C87   C     C_2   0.237933 0.469506 0.565656 -0.111718
C88   C     C_2   0.303636 0.877586 0.463185 -0.162622
C89   C     C_R   0.002064 0.666806 0.427626 -0.040242
C90   C     C_2   0.684598 0.924055 0.527368 -0.162803
C91   C     C_2   0.803638 0.377590 0.463186 -0.162622
C92   C     C_2   0.184599 0.424052 0.527370 -0.162796
Cr1   Cr    Cr6+3 0.113970 0.508630 0.747920 1.012817
Cr2   Cr    Cr6+3 0.887700 0.820070 0.250200 1.011932
Cr3   Cr    Cr6+3 0.612300 0.320070 0.749800 1.016997
Cr4   Cr    Cr6+3 0.387700 0.320070 0.250200 1.011932
Cr5   Cr    Cr6+3 0.886030 0.508630 0.252080 1.019413
Cr6   Cr    Cr6+3 0.613970 0.008630 0.747920 1.012819
Cr7   Cr    Cr6+3 0.386030 0.008630 0.252080 1.019413
Cr8   Cr    Cr6+3 0.269200 0.666740 0.749850 1.005638
Cr9   Cr    Cr6+3 0.730800 0.666740 0.250150 1.009477
Cr10  Cr    Cr6+3 0.769200 0.166740 0.749850 1.005641
Cr11  Cr    Cr6+3 0.230800 0.166740 0.250150 1.009476
Cr12  Cr    Cr6+3 0.112300 0.820070 0.749800 1.016996
H1    H     H_    0.356396 0.869769 0.440851 0.171979
H2    H     H_    0.708907 0.843810 0.937535 0.091426
H3    H     H_    0.797425 0.404879 0.049101 0.109917
H4    H     H_    0.208907 0.343810 0.937535 0.091426
H5    H     H_    0.307788 0.904334 0.934294 0.107047
H6    H     H_    0.707711 0.913099 0.052477 0.086266
H7    H     H_    0.807788 0.404334 0.934294 0.107047
H8    H     H_    0.207711 0.413099 0.052477 0.086266
H9    H     H_    0.036108 0.475344 0.077074 0.153669
H10   H     H_    0.094254 0.490648 0.958572 0.132569
H11   H     H_    0.536108 0.975344 0.077074 0.153669
H12   H     H_    0.633170 0.909542 0.551397 0.177324
H13   H     H_    0.594253 0.990648 0.958572 0.132569
H14   H     H_    0.025329 0.754597 0.065771 0.102875
H15   H     H_    0.013402 0.733351 0.950780 0.104214
H16   H     H_    0.525329 0.254597 0.065771 0.102875
H17   H     H_    0.513401 0.233351 0.950780 0.104214
H18   H     H_    0.324344 0.778221 0.561704 0.146220
H19   H     H_    0.670249 0.800103 0.437163 0.153261
H20   H     H_    0.824346 0.278225 0.561704 0.146223
H21   H     H_    0.170261 0.300087 0.437170 0.153261
H22   H     H_    0.195621 0.916180 0.445388 0.109339
H23   H     H_    0.856398 0.369777 0.440852 0.171980
H24   H     H_    0.790726 0.977555 0.543259 0.117437
H25   H     H_    0.695621 0.416178 0.445388 0.109339
H26   H     H_    0.290717 0.477615 0.543251 0.117428
H27   H     H_    0.223491 0.998613 0.556690 0.115747
H28   H     H_    0.769295 0.023307 0.429215 0.107930
H29   H     H_    0.723491 0.498614 0.556690 0.115749
H30   H     H_    0.269286 0.523317 0.429208 0.107923
H31   H     H_    0.962576 0.081315 0.446777 0.106078
H32   H     H_    0.930849 0.061503 0.574861 0.106888
H33   H     H_    0.462574 0.581314 0.446777 0.106077
H34   H     H_    0.133177 0.409504 0.551404 0.177323
H35   H     H_    0.430847 0.561503 0.574862 0.106887
H36   H     H_    0.006410 0.906832 0.380404 0.133912
H37   H     H_    0.946970 0.869021 0.636628 0.131125
H38   H     H_    0.506406 0.406831 0.380406 0.133917
H39   H     H_    0.446969 0.369021 0.636630 0.131125
H40   H     H_    0.057814 0.449266 0.379377 0.134073
H41   H     H_    0.949364 0.428066 0.619109 0.136942
H42   H     H_    0.557809 0.949260 0.379381 0.134075
H43   H     H_    0.449358 0.928070 0.619113 0.136941
H44   H     H_    0.980915 0.242147 0.555548 0.107470
H45   H     H_    0.174158 0.062852 0.924098 0.152642
H46   H     H_    0.038113 0.252369 0.436630 0.105146
H47   H     H_    0.480909 0.742148 0.555554 0.107470
H48   H     H_    0.538107 0.752366 0.436636 0.105145
H49   H     H_    0.211162 0.142117 0.041647 0.141020
H50   H     H_    0.856852 0.959652 0.926117 0.156384
H51   H     H_    0.711162 0.642116 0.041647 0.141020
H52   H     H_    0.356852 0.459652 0.926117 0.156384
H53   H     H_    0.869564 0.871195 0.046607 0.153686
H54   H     H_    0.674158 0.562852 0.924098 0.152642
H55   H     H_    0.369564 0.371195 0.046607 0.153686
H56   H     H_    0.297425 0.904879 0.049102 0.109917
O1    O     O_R   0.043230 0.549300 0.667990 -0.526596
O2    O     O_R   0.832470 0.905110 0.169660 -0.509590
O3    O     O_R   0.667530 0.405110 0.830340 -0.519305
O4    O     O_R   0.332470 0.405110 0.169660 -0.509591
O5    O     O_R   0.054010 0.748440 0.822860 -0.499134
O6    O     O_R   0.945990 0.748440 0.177140 -0.506543
O7    O     O_R   0.554010 0.248440 0.822860 -0.499134
O8    O     O_R   0.445990 0.248440 0.177140 -0.506543
O9    O     O_3   0.165160 0.665150 0.749190 -0.279141
O10   O     O_3   0.834840 0.665150 0.250810 -0.264039
O11   O     O_3   0.665160 0.165150 0.749190 -0.279135
O12   O     O_R   0.956770 0.549300 0.332010 -0.517697
O13   O     O_3   0.334840 0.165150 0.250810 -0.264039
O14   O     O_R   0.178620 0.457600 0.674100 -0.487882
O15   O     O_R   0.821380 0.457600 0.325900 -0.488740
O16   O     O_R   0.678620 0.957600 0.674100 -0.487878
O17   O     O_R   0.321380 0.957600 0.325900 -0.488740
O18   O     O_R   0.284680 0.542100 0.669460 -0.525578
O19   O     O_R   0.715320 0.542100 0.330540 -0.516324
O20   O     O_R   0.784680 0.042100 0.669460 -0.525578
O21   O     O_R   0.215320 0.042100 0.330540 -0.516325
O22   O     O_R   0.262860 0.790390 0.676650 -0.514209
O23   O     O_R   0.543230 0.049300 0.667990 -0.526595
O24   O     O_R   0.737140 0.790390 0.323350 -0.499595
O25   O     O_R   0.762860 0.290390 0.676650 -0.514204
O26   O     O_R   0.237140 0.290390 0.323350 -0.499597
O27   O     O_R   0.167460 0.907030 0.670940 -0.505271
O28   O     O_R   0.832540 0.907030 0.329060 -0.509435
O29   O     O_R   0.667460 0.407030 0.670940 -0.505271
O30   O     O_R   0.332540 0.407030 0.329060 -0.509435
O31   O     O_R   0.053950 0.750220 0.675100 -0.493439
O32   O     O_R   0.946050 0.750220 0.324900 -0.502740
O33   O     O_R   0.553950 0.250220 0.675100 -0.493439
O34   O     O_R   0.456770 0.049300 0.332010 -0.517695
O35   O     O_R   0.446050 0.250220 0.324900 -0.502741
O36   O     O_R   0.043300 0.547370 0.827390 -0.505449
O37   O     O_R   0.956700 0.547370 0.172610 -0.520351
O38   O     O_R   0.543300 0.047370 0.827390 -0.505449
O39   O     O_R   0.456700 0.047370 0.172610 -0.520351
O40   O     O_R   0.178690 0.455820 0.821860 -0.515472
O41   O     O_R   0.821310 0.455820 0.178140 -0.495428
O42   O     O_R   0.678690 0.955820 0.821860 -0.515473
O43   O     O_R   0.321310 0.955820 0.178140 -0.495428
O44   O     O_R   0.284750 0.540170 0.828860 -0.506634
O45   O     O_R   0.262920 0.788600 0.824420 -0.497804
O46   O     O_R   0.715250 0.540170 0.171140 -0.505285
O47   O     O_R   0.784750 0.040170 0.828860 -0.506634
O48   O     O_R   0.215250 0.040170 0.171140 -0.505285
O49   O     O_R   0.737080 0.788600 0.175580 -0.520714
O50   O     O_R   0.762920 0.288600 0.824420 -0.497804
O51   O     O_R   0.237080 0.288600 0.175580 -0.520714
O52   O     O_R   0.167530 0.905110 0.830340 -0.519304

loop_
_geom_bond_atom_site_label_1
_geom_bond_atom_site_label_2
_ccdc_geom_bond_type
C44   C49   S    
C1    C87   S    
C21   C26   A    
C55   H17   S    
C35   C74   S    
C28   H46   S    
C8    C13   A    
Cr5   O15   S    
C37   C69   S    
C2    C18   A    
C43   C83   S    
C57   C79   S    
C42   C82   S    
C92   H34   S    
C67   H20   S    
Cr2   O6    S    
C53   C59   D    
C56   C81   D    
C32   C72   S    
C40   O27   A    
C53   C75   S    
C7    C11   A    
Cr7   O34   S    
Cr1   O9    S    
Cr5   O12   S    
C32   H6    S    
Cr9   O19   S    
C44   H49   S    
C13   H35   S    
C87   H26   S    
C10   H32   S    
Cr7   O17   S    
C48   C52   S    
C86   C91   D    
C54   C58   D    
C55   C77   S    
C62   O1    A    
C15   C89   A    
C20   C25   A    
C70   O48   A    
C63   O32   A    
Cr1   O14   S    
Cr11  O13   S    
Cr10  O20   S    
C34   O21   A    
C18   C19   A    
C8    C16   A    
Cr4   O30   S    
Cr6   O23   S    
C26   H42   S    
C83   H30   S    
Cr12  O5    S    
C64   O23   A    
C78   C83   D    
Cr4   O35   S    
C43   O30   A    
C27   H44   S    
C7    C17   A    
C58   H9    S    
Cr4   O8    S    
C41   O24   A    
C76   O6    A    
C33   H7    S    
C90   H12   S    
C79   O8    A    
C45   C80   D    
Cr8   O22   S    
Cr10  O47   S    
Cr2   O2    S    
C66   O44   A    
C75   O36   A    
C52   H55   S    
C56   C90   S    
C48   H52   S    
Cr8   O18   S    
C69   O42   A    
Cr3   O33   S    
C80   H27   S    
Cr11  O21   S    
C87   C92   D    
C25   C29   A    
C68   O41   A    
C3    C65   S    
Cr11  O26   S    
C34   C84   S    
C31   C49   D    
Cr8   O44   S    
C67   C91   S    
C36   C70   S    
C40   O22   A    
C50   H53   S    
C84   H22   S    
C39   H4    S    
C46   H50   S    
C1    O14   A    
C69   O47   A    
Cr10  O25   S    
C79   O39   A    
Cr4   O13   S    
Cr6   O38   S    
C61   H13   S    
C56   H19   S    
Cr5   O37   S    
C73   O50   A    
C45   C88   S    
Cr11  O48   S    
C75   O5    A    
Cr9   O46   S    
Cr11  O51   S    
C36   H56   S    
C16   C17   A    
C57   C60   D    
C47   C51   S    
C23   O16   A    
C43   O26   A    
Cr9   O49   S    
C58   C59   S    
Cr12  O31   S    
Cr5   O10   S    
Cr4   O4    S    
C41   O28   A    
C24   C28   A    
C60   C61   S    
C4    C16   A    
C5    C9    A    
C29   C30   A    
C19   C89   A    
Cr3   O3    S    
C38   H3    S    
C29   H47   S    
Cr6   O16   S    
C1    O18   A    
C85   H24   S    
C30   H48   S    
C72   O49   A    
Cr7   O13   S    
C22   H41   S    
Cr1   O1    S    
C85   C90   D    
C41   C81   S    
C64   O33   A    
C63   C89   S    
C40   C80   S    
C31   H5    S    
Cr9   O10   S    
C25   H43   S    
Cr10  O11   S    
C6    H37   S    
C32   C50   D    
C38   C47   D    
Cr9   O24   S    
C91   H23   S    
C49   H45   S    
C57   H16   S    
C54   C76   S    
Cr6   O11   S    
C9    H31   S    
C42   O25   A    
C33   C73   S    
C38   C68   S    
C26   C30   A    
C22   C27   A    
C12   O15   A    
C68   O46   A    
C39   C66   S    
C36   C44   D    
Cr1   O36   S    
C77   O7    A    
Cr12  O52   S    
Cr1   O40   S    
C35   C52   D    
C5    H36   S    
C65   O34   A    
C9    C10   A    
C70   O43   A    
Cr12  O27   S    
C46   C50   S    
Cr7   O43   S    
Cr8   O9    S    
C18   C22   A    
Cr6   O42   S    
Cr10  O50   S    
C84   C88   D    
C77   O38   A    
Cr2   O28   S    
C81   H28   S    
Cr3   O7    S    
C34   O17   A    
Cr8   O45   S    
C53   H15   S    
C86   H25   S    
C62   O31   A    
Cr5   O41   S    
C45   H18   S    
C33   C51   D    
C23   O20   A    
C4    C64   S    
C51   H54   S    
C12   C86   S    
C74   O51   A    
C76   O37   A    
C78   C92   S    
C82   H29   S    
C54   H14   S    
C19   C24   A    
C11   H33   S    
C37   H2    S    
C6    C14   A    
Cr2   O10   S    
C74   O4    A    
C88   H1    S    
C11   C13   A    
C42   O29   A    
C63   O12   A    
C47   H51   S    
C24   H40   S    
C59   H10   S    
C55   C61   D    
C31   C71   S    
C3    C17   A    
C8    H39   S    
C2    C14   A    
Cr2   O32   S    
C5    C15   A    
C3    C21   A    
C6    C10   A    
Cr3   O29   S    
C4    C20   A    
C71   O45   A    
C12   O19   A    
C20   C21   A    
C67   C82   D    
C73   O3    A    
C71   O52   A    
C23   C85   S    
Cr7   O39   S    
C27   C28   A    
C72   O2    A    
C14   C15   A    
C39   C48   D    
C60   H11   S    
C37   C46   D    
C78   H21   S    
Cr3   O11   S    
C7    H38   S    
C66   O40   A    
C35   H8    S    
C2    C62   S    
Cr12  O9    S    
C65   O35   A    
