data_mof_unit_48859.cif
_audit_creation_date              2012-12-10T18:49:59-0500
_audit_creation_method            fapswitch 2.2
_symmetry_space_group_name_H-M    P1
_symmetry_Int_Tables_number       1
_space_group_crystal_system       triclinic
_cell_length_a                    10.707571
_cell_length_b                    9.833909
_cell_length_c                    10.647777
_cell_angle_alpha                 90.204474
_cell_angle_beta                  90.116934
_cell_angle_gamma                 89.995808
_cell_volume                      1121.1724666

loop_
_atom_site_label
_atom_site_type_symbol
_atom_type_description
_atom_site_fract_x
_atom_site_fract_y
_atom_site_fract_z
_atom_type_partial_charge
C1    C     C_R   0.259846 0.500006 0.499791 0.866576
C2    C     C_3   0.629217 0.448791 0.923539 -0.416576
C3    C     C_R   0.063858 0.380324 0.469110 -0.188410
C4    C     C_R   0.063981 0.619755 0.530134 -0.193720
C5    C     C_R   0.935913 0.380262 0.469411 -0.129503
C6    C     C_R   0.936049 0.619708 0.530381 -0.193344
C7    C     C_R   0.872498 0.499951 0.500089 0.012408
C8    C     C_R   0.127412 0.500035 0.499621 -0.021038
C9    C     C_R   0.570777 0.072293 0.584451 -0.067928
C10   C     C_R   0.570774 0.928339 0.584454 -0.071555
C11   C     C_R   0.429273 0.927713 0.415391 -0.066902
C12   C     C_R   0.429289 0.071671 0.415377 -0.067374
C13   C     C_R   0.501058 0.499807 0.257532 0.840590
C14   C     C_R   0.740083 0.499986 0.500136 0.894231
C15   C     C_R   0.498549 0.500459 0.742267 0.839494
C16   C     C_3   0.482390 0.646765 0.071661 -0.420682
C17   C     C_3   0.392559 0.412177 0.071702 -0.389632
C18   C     C_3   0.480802 0.647747 0.929103 -0.399971
C19   C     C_3   0.394685 0.408243 0.927918 -0.363903
C20   C     C_3   0.631984 0.439578 0.069842 0.003964
C21   C     C_3   0.503895 0.499035 0.120751 0.045916
C22   C     C_3   0.500442 0.501244 0.878306 0.127421
H1    H     H_    0.555367 0.718042 0.106387 0.183769
H2    H     H_    0.395816 0.306621 0.108723 0.202482
H3    H     H_    0.372747 0.872861 0.347824 0.127096
H4    H     H_    0.372785 0.126037 0.347803 0.126314
H5    H     H_    0.391430 0.686802 0.106585 0.188597
H6    H     H_    0.302553 0.456808 0.104120 0.166090
H7    H     H_    0.389870 0.689093 0.895462 0.185748
H8    H     H_    0.302676 0.442326 0.890616 0.153065
H9    H     H_    0.556039 0.716607 0.895113 0.184097
H10   H     H_    0.409457 0.301516 0.896030 0.212128
H11   H     H_    0.886994 0.287466 0.444637 0.153118
H12   H     H_    0.887263 0.712547 0.555112 0.151602
N1    N     N_R   0.499970 0.857200 0.499970 -0.082793
N2    N     N_R   0.499970 0.142800 0.499970 -0.085883
O1    O     O_R   0.316750 0.614620 0.499990 -0.625650
O2    O     O_R   0.316750 0.385380 0.499990 -0.625122
O3    O     O_R   0.499970 0.614670 0.314790 -0.619015
O4    O     O_R   0.499970 0.385330 0.314790 -0.640087
O5    O     O_R   0.683220 0.614710 0.500010 -0.622004
O6    O     O_R   0.683220 0.385290 0.500010 -0.634043
O7    O     O_R   0.500010 0.614660 0.685200 -0.631892
O8    O     O_R   0.500010 0.385340 0.685200 -0.625748
Zn1   Zn    Zn3+2 0.499980 0.653120 0.500000 0.945600
Zn2   Zn    Zn3+2 0.499980 0.346880 0.500000 0.942669
C23   C     C_2   0.741955 0.524665 0.117728 0.276326
H13   H     H_    0.750866 0.629985 0.089210 0.098012
O9    O     O_2   0.822596 0.477320 0.186178 -0.599297
C24   C     C_2   0.649534 0.291510 0.111731 0.452056
H14   H     H_    0.688655 0.269587 0.203635 0.120582
O10   O     O_2   0.615842 0.195645 0.046659 -0.619498
H15   H     H_    0.702784 0.518977 0.887961 0.122772
H16   H     H_    0.650818 0.349639 0.877932 0.210288
H17   H     H_    0.112659 0.287532 0.444261 0.151620
H18   H     H_    0.112869 0.712622 0.554725 0.157188
H19   H     H_    0.627381 0.127149 0.651954 0.135690
H20   H     H_    0.627377 0.873985 0.651950 0.124064

loop_
_geom_bond_atom_site_label_1
_geom_bond_atom_site_label_2
_ccdc_geom_bond_type
C2    C22   S    
C9    N2    A    
C24   O10   D    
C11   C12   A    
N2    Zn2   S    
C16   C21   S    
O1    Zn1   S    
C1    O1    A    
C12   N2    A    
C1    C8    S    
C9    C10   A    
C23   H13   S    
C14   O6    A    
O3    Zn1   S    
C17   H6    S    
C16   H5    S    
C11   N1    A    
C24   H14   S    
C13   C21   S    
C23   O9    D    
C18   H7    S    
C4    H18   S    
O4    Zn2   S    
O7    Zn1   S    
C6    C7    A    
C1    O2    A    
C14   O5    A    
C19   H10   S    
C4    C6    A    
C17   C19   S    
O8    Zn2   S    
C15   O8    A    
C16   H1    S    
C9    H19   S    
C5    H11   S    
C15   C22   S    
C2    H16   S    
C10   N1    A    
O2    Zn2   S    
C17   H2    S    
C13   O3    A    
C11   H3    S    
C15   O7    A    
C20   C23   S    
C19   C22   S    
C20   C21   S    
C16   C18   S    
C3    C8    A    
O6    Zn2   S    
C4    C8    A    
C5    C7    A    
C2    C20   S    
O5    Zn1   S    
C13   O4    A    
C20   C24   S    
C18   H9    S    
C10   H20   S    
C18   C22   S    
C19   H8    S    
C3    H17   S    
C7    C14   S    
C17   C21   S    
C6    H12   S    
C12   H4    S    
C3    C5    A    
C2    H15   S    
N1    Zn1   S    
