data_mof_unit_5411.cif
_audit_creation_date              2013-03-05T15:50:41-0500
_audit_creation_method            fapswitch 2.2
_symmetry_space_group_name_H-M    P1
_symmetry_Int_Tables_number       1
_space_group_crystal_system       triclinic
_cell_length_a                    15.067839
_cell_length_b                    10.8243
_cell_length_c                    9.605002
_cell_angle_alpha                 89.985905
_cell_angle_beta                  89.791948
_cell_angle_gamma                 94.422767
_cell_volume                      1561.88894516

loop_
_atom_site_label
_atom_site_type_symbol
_atom_site_description
_atom_site_fract_x
_atom_site_fract_y
_atom_site_fract_z
_atom_type_partial_charge
O1    O     O_R   0.499990 0.319640 0.618810 -0.596297
O2    O     O_R   0.500000 0.319660 0.381240 -0.582844
C1    C     C_R   0.505873 0.262794 0.500588 0.792360
O3    O     O_R   0.370250 0.499960 0.618800 -0.563857
O4    O     O_R   0.370260 0.499980 0.381230 -0.583824
C2    C     C_R   0.328737 0.499003 0.500275 0.825279
Cu1   Cu    Cu3+1 0.499990 0.499990 0.640660 0.964551
Cu2   Cu    Cu3+1 0.500010 0.500010 0.359340 0.945723
O5    O     O_R   0.500000 0.680340 0.618760 -0.571023
O6    O     O_R   0.500010 0.680360 0.381190 -0.608208
O7    O     O_R   0.629740 0.500020 0.618770 -0.593981
O8    O     O_R   0.629750 0.500040 0.381200 -0.606482
C3    C     C_R   0.490775 0.736174 0.500724 0.834490
C4    C     C_R   0.670939 0.496183 0.499637 0.822637
C5    C     C_R   0.816574 0.526061 0.379551 -0.210197
C6    C     C_R   0.767670 0.494320 0.499854 -0.071825
C7    C     C_R   0.811088 0.462483 0.621864 -0.197016
C8    C     C_R   0.903913 0.462014 0.626003 0.050450
C9    C     C_R   0.953039 0.495021 0.504008 0.032595
C10   C     C_R   0.908937 0.527231 0.380804 0.120927
C11   C     C_R   0.948474 0.429820 0.748597 0.095334
C12   C     C_R   0.042028 0.432177 0.749091 -0.067744
C13   C     C_R   0.091091 0.464955 0.626894 0.018660
C14   C     C_R   0.046187 0.496089 0.504346 0.052262
C15   C     C_R   0.094514 0.528599 0.381326 0.119185
C16   C     C_R   0.049965 0.560966 0.260615 -0.169005
C17   C     C_R   0.957738 0.560778 0.260564 -0.169299
C18   C     C_R   0.184292 0.467047 0.623549 -0.187809
C19   C     C_R   0.231821 0.498241 0.501338 -0.068406
C20   C     C_R   0.186843 0.528742 0.380644 -0.217250
H1    H     H_    0.782911 0.551442 0.285320 0.162355
H2    H     H_    0.771303 0.437934 0.712825 0.185260
H3    H     H_    0.220574 0.443145 0.715565 0.168991
H4    H     H_    0.223726 0.553779 0.286292 0.166035
H5    H     H_    0.086514 0.586774 0.166287 0.165886
H6    H     H_    0.924503 0.586968 0.166418 0.172000
H7    H     H_    0.498564 0.110715 0.278467 0.161699
C21   C     C_R   0.545628 0.115080 0.756316 -0.152079
H8    H     H_    0.585530 0.202416 0.758565 0.171825
C22   C     C_R   0.529067 0.054241 0.882667 -0.199530
H9    H     H_    0.552479 0.097041 0.978978 0.153385
C23   C     C_R   0.476263 0.943186 0.885534 -0.153665
H10   H     H_    0.454649 0.903631 0.984680 0.158389
C24   C     C_R   0.449219 0.885137 0.761112 0.170958
C25   C     C_R   0.479930 0.936356 0.631641 0.052339
C26   C     C_R   0.512993 0.061573 0.630254 0.074018
C27   C     C_R   0.510465 0.127994 0.503034 -0.101273
C28   C     C_R   0.498710 0.062918 0.377575 -0.195607
H11   H     H_    0.487092 0.886989 0.278755 0.168905
C29   C     C_R   0.488678 0.934897 0.377855 -0.201199
C30   C     C_R   0.480814 0.869824 0.503969 -0.094217
H12   H     H_    0.404656 0.348945 0.129068 0.140945
C31   C     C_R   0.610911 0.673475 0.152561 -0.139595
H13   H     H_    0.622205 0.669981 0.260563 0.214865
C32   C     C_R   0.656491 0.773683 0.092460 -0.256447
H14   H     H_    0.694572 0.841429 0.155784 0.173604
C33   C     C_R   0.657622 0.784235 0.951673 -0.208145
H15   H     H_    0.697932 0.863177 0.908913 0.168446
C34   C     C_R   0.616061 0.691816 0.866970 -0.008596
C35   C     C_R   0.556274 0.590630 0.926146 0.166368
C36   C     C_R   0.555164 0.587106 0.076721 0.204650
N1    N     N_R   0.500860 0.501210 0.147910 -0.201315
C37   C     C_R   0.447735 0.417093 0.073854 -0.049981
H16   H     H_    0.405089 0.348521 0.871401 0.143322
C38   C     C_R   0.447931 0.416827 0.926283 -0.037588
N2    N     N_R   0.500890 0.501290 0.852040 -0.194640
I1    I     I_    0.337348 0.754005 0.779185 -0.375724
C39   C     C_1   0.651367 0.714866 0.729445 0.354374
N3    N     N_1   0.683090 0.742343 0.622632 -0.326821
I2    I     I_    0.876404 0.375466 0.935186 -0.428933
C40   C     C_1   0.087079 0.400573 0.875811 0.296220
N4    N     N_1   0.123202 0.375363 0.976894 -0.278866

loop_
_geom_bond_atom_site_label_1
_geom_bond_atom_site_label_2
_geom_bond_distance
_ccdc_geom_bond_type
C32   H14   1.083873 S    
C37   C38   1.417420 A    
C8    C11   1.414375 A    
C9    C10   1.415898 A    
Cu1   Cu2   2.702078 S    
C31   H13   1.052978 S    
Cu1   O7    1.965540 S    
C16   C17   1.389511 A    
C19   C20   1.397212 A    
C18   C19   1.400422 A    
C21   H8    1.080779 S    
O7    C4    1.302034 A    
C33   C34   1.400813 A    
C25   C30   1.422813 A    
C5    C6    1.396718 A    
C8    C9    1.414673 A    
C1    C27   1.466266 S    
O5    C3    1.297570 A    
C3    C30   1.466231 S    
C31   C36   1.412049 A    
C6    C7    1.400091 A    
C13   C14   1.413371 A    
C22   C23   1.389656 A    
C35   N2    1.420709 A    
C34   C35   1.475818 A    
C11   C12   1.407948 A    
C23   C24   1.397673 A    
O3    Cu1   1.966879 S    
C7    C8    1.399772 A    
C31   C32   1.365060 A    
C5    C10   1.390891 A    
C20   H4    1.084705 S    
C14   C15   1.415735 A    
O3    C2    1.300610 A    
C39   N3    1.159252 T    
C15   C16   1.399764 A    
C25   C26   1.407566 A    
H12   C37   1.081757 S    
C35   C36   1.446770 A    
O1    C1    1.297654 A    
N1    C37   1.366670 A    
C34   C39   1.436785 S    
C27   C28   1.400849 A    
Cu2   O8    1.966878 S    
C29   C30   1.401123 A    
C13   C18   1.403038 A    
H7    C28   1.083426 S    
C22   H9    1.082686 S    
O8    C4    1.300054 A    
C18   H3    1.082656 S    
H11   C29   1.083518 S    
C32   C33   1.356979 A    
C4    C6    1.459225 S    
C23   H10   1.082725 S    
C12   C40   1.449436 S    
C24   C25   1.422635 A    
C15   C20   1.391070 A    
Cu1   O5    1.963399 S    
C26   C27   1.419732 A    
O1    Cu1   1.963463 S    
O2    Cu2   1.963401 S    
O6    C3    1.309462 A    
O4    Cu2   1.965540 S    
C5    H1    1.084741 S    
C10   C17   1.399569 A    
C17   H6    1.083475 S    
C11   I2    2.150382 S    
H16   C38   1.081802 S    
C9    C14   1.402712 A    
C40   N4    1.157577 T    
Cu1   N2    2.030444 S    
C21   C22   1.393142 A    
C33   H15   1.088909 S    
O4    C2    1.301063 A    
C28   C29   1.382321 A    
O2    C1    1.307513 A    
C36   N1    1.371065 A    
C21   C26   1.415666 A    
C16   H5    1.083849 S    
C2    C19   1.459707 S    
Cu2   O6    1.963462 S    
C38   N2    1.365346 A    
C7    H2    1.079269 S    
C12   C13   1.415279 A    
C24   I1    2.124864 S    
Cu2   N1    2.030812 S    
