data_mof_unit_62764.cif
_audit_creation_date              2012-12-10T16:49:21-0500
_audit_creation_method            fapswitch 2.2
_symmetry_space_group_name_H-M    P1
_symmetry_Int_Tables_number       1
_space_group_crystal_system       triclinic
_cell_length_a                    18.688324
_cell_length_b                    18.999855
_cell_length_c                    18.830255
_cell_angle_alpha                 109.970666
_cell_angle_beta                  109.089064
_cell_angle_gamma                 109.20866
_cell_volume                      5155.94632353

loop_
_atom_site_label
_atom_site_type_symbol
_atom_type_description
_atom_site_fract_x
_atom_site_fract_y
_atom_site_fract_z
_atom_type_partial_charge
C1    C     C_R   0.381354 0.378640 0.497498 0.952180
C2    C     C_2   0.318003 0.308395 0.495274 -0.060731
C3    C     C_2   0.486002 0.247210 0.166278 0.276210
C4    C     C_R   0.496324 0.616013 0.619446 0.881138
C5    C     C_2   0.484790 0.178127 0.173011 0.101193
C6    C     C_2   0.475994 0.308408 0.230203 0.494320
C7    C     C_2   0.529354 0.344347 0.316837 -0.047835
C8    C     C_2   0.822514 0.744698 0.498360 -0.135920
C9    C     C_2   0.823959 0.819182 0.512287 -0.320097
C10   C     C_2   0.761541 0.683940 0.509914 -0.161030
C11   C     C_2   0.683141 0.677032 0.490341 -0.319656
C12   C     C_R   0.412192 0.677970 0.670552 0.053708
C13   C     C_R   0.380284 0.992638 0.874089 0.825985
C14   C     C_R   0.499026 0.878041 0.876160 0.856444
C15   C     C_R   0.619878 0.998932 0.117251 0.854684
C16   C     C_R   0.619153 0.617034 0.497948 0.925333
C17   C     C_R   0.496904 0.115848 0.114334 0.831437
C18   C     C_R   0.874659 0.994030 0.381610 0.853657
C19   C     C_R   0.111323 0.117590 0.493052 0.823322
C20   C     C_R   0.123705 0.004265 0.618859 0.854499
C21   C     C_R   0.883235 0.881669 0.502855 0.919265
C22   C     C_2   0.255363 0.991331 0.668689 0.326718
C23   C     C_R   0.491973 0.678788 0.684583 -0.096036
C24   C     C_2   0.203619 0.020991 0.687406 0.270004
C25   C     C_2   0.328544 0.001434 0.741319 0.335171
C26   C     C_2   0.310845 0.975617 0.794953 0.261777
C27   C     C_2   0.753268 0.022223 0.332427 0.331945
C28   C     C_R   0.506849 0.387286 0.380368 0.943625
C29   C     C_2   0.791085 0.973942 0.315047 0.271093
C30   C     C_2   0.679088 0.008567 0.258113 0.326513
C31   C     C_2   0.689898 0.011027 0.191522 0.279281
C32   C     C_R   0.330267 0.608903 0.598953 -0.147877
C33   C     C_R   0.253421 0.612782 0.583895 0.221886
C34   C     C_R   0.570906 0.745068 0.759091 -0.190322
C35   C     C_R   0.257784 0.685738 0.641678 -0.169209
C36   C     C_R   0.337234 0.752610 0.714558 -0.195160
C37   C     C_R   0.414720 0.748290 0.731124 0.091316
C38   C     C_3   0.330950 0.230238 0.485842 -0.466903
C39   C     C_3   0.403543 0.227877 0.465638 -0.767749
C40   C     C_3   0.617387 0.347537 0.353328 -0.420522
C41   C     C_3   0.693273 0.439889 0.403215 -0.869430
C42   C     C_3   0.166930 0.538769 0.506611 -0.423380
C43   C     C_3   0.162916 0.528937 0.421254 -0.829607
C44   C     C_R   0.572443 0.811751 0.820057 -0.198600
C45   C     C_R   0.495213 0.812938 0.806643 -0.074704
C46   C     C_2   0.207620 0.260834 0.534741 -0.176035
C47   C     C_2   0.151783 0.179539 0.471160 0.206374
C48   C     C_2   0.259604 0.321324 0.517832 0.459686
H1    H     H_    0.631863 0.745969 0.769499 0.167973
H2    H     H_    0.220187 0.282157 0.601145 0.134863
H3    H     H_    0.397326 0.238333 0.409850 0.260643
H4    H     H_    0.468828 0.276669 0.523454 0.271955
H5    H     H_    0.398353 0.163629 0.447991 0.248079
H6    H     H_    0.344044 0.227054 0.546338 0.210486
H7    H     H_    0.270935 0.170090 0.431274 0.273759
H8    H     H_    0.465132 0.204736 0.047234 0.345892
H9    H     H_    0.474193 0.115020 0.235436 0.365252
H10   H     H_    0.372705 0.287246 0.136397 0.358598
H11   H     H_    0.688387 0.469210 0.361128 0.267173
H12   H     H_    0.868219 0.729793 0.481786 0.172221
H13   H     H_    0.694067 0.480218 0.462424 0.270954
H14   H     H_    0.755928 0.439443 0.423732 0.257862
H15   H     H_    0.620896 0.320137 0.397099 0.244833
H16   H     H_    0.628293 0.309870 0.302515 0.224194
H17   H     H_    0.281431 0.929573 0.584361 0.338176
H18   H     H_    0.182623 0.081853 0.779237 0.359021
H19   H     H_    0.411846 0.056584 0.711373 0.339795
H20   H     H_    0.220344 0.920887 0.819781 0.357854
H21   H     H_    0.752685 0.117800 0.413309 0.338380
H22   H     H_    0.779864 0.870368 0.228789 0.358122
H23   H     H_    0.785554 0.838549 0.538749 0.160784
H24   H     H_    0.606483 0.994058 0.311121 0.340100
H25   H     H_    0.767148 0.028299 0.142425 0.346310
H26   H     H_    0.173962 0.589558 0.420043 0.266629
H27   H     H_    0.212771 0.513012 0.412882 0.254005
H28   H     H_    0.097565 0.475889 0.365971 0.260248
H29   H     H_    0.156583 0.478121 0.507455 0.245428
H30   H     H_    0.112408 0.548807 0.509653 0.208893
H31   H     H_    0.083836 0.095194 0.347280 0.353873
H32   H     H_    0.245728 0.402861 0.484973 0.335549
H33   H     H_    0.779512 0.642607 0.530642 0.168154
H34   H     H_    0.661882 0.711610 0.460570 0.165190
H35   H     H_    0.324598 0.550924 0.554732 0.174396
H36   H     H_    0.199523 0.690783 0.630888 0.153450
H37   H     H_    0.337306 0.807909 0.757099 0.157053
H38   H     H_    0.633825 0.861927 0.878640 0.157040
O1    O     O_R   0.460610 0.409240 0.550770 -0.616988
O2    O     O_R   0.909530 0.949160 0.358700 -0.648762
O3    O     O_R   0.090460 0.141840 0.551380 -0.622238
O4    O     O_R   0.358470 0.409870 0.449260 -0.643538
O5    O     O_R   0.090460 0.039050 0.448590 -0.614446
O6    O     O_R   0.090470 0.050840 0.641300 -0.641688
O7    O     O_R   0.090460 0.948050 0.538510 -0.558475
O8    O     O_R   0.909540 0.960950 0.551410 -0.618598
O9    O     O_R   0.909540 0.858160 0.448620 -0.617764
O10   O     O_R   0.551070 0.590720 0.641790 -0.615166
O11   O     O_R   0.448930 0.591350 0.540280 -0.635645
O12   O     O_R   0.358520 0.946380 0.906940 -0.652391
O13   O     O_R   0.641530 0.590130 0.550740 -0.627314
O14   O     O_R   0.539390 0.590760 0.449230 -0.612612
O15   O     O_R   0.551070 0.408650 0.459720 -0.642666
O16   O     O_R   0.448930 0.409280 0.358210 -0.554957
O17   O     O_R   0.460650 0.048500 0.906910 -0.556697
O18   O     O_3   0.489313 0.260710 0.099375 -0.752201
O19   O     O_3   0.465781 0.163391 0.233665 -0.792988
O20   O     O_3   0.406078 0.321677 0.200844 -0.739866
O21   O     O_3   0.239307 0.950491 0.584274 -0.776553
O22   O     O_3   0.230597 0.073352 0.774165 -0.775182
O23   O     O_R   0.551120 0.956920 0.905770 -0.611147
O24   O     O_3   0.412490 0.038135 0.754776 -0.771626
O25   O     O_3   0.224145 0.926416 0.770548 -0.790337
O26   O     O_3   0.786438 0.087059 0.415952 -0.768774
O27   O     O_3   0.747649 0.902447 0.232241 -0.775787
O28   O     O_3   0.602112 0.996806 0.258317 -0.787777
O29   O     O_3   0.771847 0.036021 0.198874 -0.767619
O30   O     O_3   0.129887 0.156681 0.385655 -0.759165
O31   O     O_3   0.253916 0.395305 0.535983 -0.793101
O32   O     O_R   0.449000 0.854790 0.905800 -0.622026
O33   O     O_R   0.641600 0.047410 0.086710 -0.638448
O34   O     O_R   0.539480 0.945290 0.086740 -0.562405
O35   O     O_R   0.551130 0.138990 0.087850 -0.614192
O36   O     O_R   0.449000 0.036870 0.087880 -0.595662
O37   O     O_R   0.909540 0.051950 0.461490 -0.554866
Zn1   Zn    Zn3+2 0.568200 0.499580 0.567780 0.960762
Zn2   Zn    Zn3+2 0.431800 0.500420 0.432220 1.005687
Zn3   Zn    Zn3+2 0.568250 0.065080 0.996810 1.032620
Zn4   Zn    Zn3+2 0.431870 0.928710 0.996840 1.020200
Zn5   Zn    Zn3+2 0.000000 0.068630 0.568630 1.025155
Zn6   Zn    Zn3+2 0.000000 0.931370 0.431370 1.014097

loop_
_geom_bond_atom_site_label_1
_geom_bond_atom_site_label_2
_ccdc_geom_bond_type
C3    O18   S    
C1    O1    A    
C14   O23   A    
H9    O19   S    
C20   O7    A    
C1    O4    A    
C27   C29   D    
C39   H3    S    
C35   C36   A    
C41   H13   S    
C3    C6    S    
O34   Zn4   S    
C5    O19   S    
C20   O6    A    
C12   C23   A    
C40   H15   S    
C33   C42   S    
C41   H14   S    
C36   C37   A    
C39   H5    S    
O1    Zn1   S    
H21   O26   S    
C44   H38   S    
C5    C17   S    
C21   O8    A    
C22   O21   S    
H24   O28   S    
O36   Zn4   S    
C15   O34   A    
C1    C2    S    
C12   C37   A    
O17   Zn3   S    
C4    O10   A    
C28   O15   A    
C38   H7    S    
C20   C24   S    
C8    C9    D    
C14   O32   A    
C22   C25   S    
C7    C40   S    
C24   O22   S    
C13   O17   A    
C18   O37   A    
O16   Zn2   S    
C43   H26   S    
C39   H4    S    
H22   O27   S    
H31   O30   S    
C12   C32   A    
C27   C30   S    
O2    Zn6   S    
C17   O36   A    
O7    Zn6   S    
O6    Zn5   S    
C31   O29   S    
H32   O31   S    
C14   C45   S    
C11   H34   S    
C43   H27   S    
C47   O30   S    
C46   C48   S    
O15   Zn1   S    
O10   Zn1   S    
O14   Zn2   S    
C34   C44   A    
C41   H11   S    
O11   Zn2   S    
C4    C23   S    
C16   O14   A    
C21   O9    A    
C2    C48   D    
C25   C26   D    
C18   O2    A    
C7    C28   S    
H10   O20   S    
H20   O25   S    
C38   C39   S    
C19   O3    A    
C11   C16   S    
C2    C38   S    
H19   O24   S    
C38   H6    S    
C23   C34   A    
C13   O12   A    
C6    O20   S    
C18   C29   S    
H8    O18   S    
C6    C7    D    
C25   O24   S    
C17   O35   A    
O12   Zn4   S    
C27   O26   S    
C42   H30   S    
C22   C24   D    
C13   C26   S    
C42   C43   S    
C37   C45   A    
C44   C45   A    
C30   O28   S    
C43   H28   S    
C32   H35   S    
C29   O27   S    
C46   C47   D    
C40   C41   S    
C34   H1    S    
C9    H23   S    
H18   O22   S    
C3    C5    D    
C40   H16   S    
C35   H36   S    
C16   O13   A    
C15   C31   S    
C48   O31   S    
O5    Zn6   S    
O8    Zn5   S    
C36   H37   S    
C46   H2    S    
C10   H33   S    
H25   O29   S    
C32   C33   A    
O35   Zn3   S    
C8    H12   S    
C9    C21   S    
O37   Zn5   S    
C30   C31   D    
C33   C35   A    
O4    Zn2   S    
C15   O33   A    
C19   C47   S    
C19   O5    A    
C10   C11   D    
O33   Zn3   S    
C28   O16   A    
O23   Zn3   S    
C42   H29   S    
C8    C10   S    
O32   Zn4   S    
O9    Zn6   S    
C4    O11   A    
C26   O25   S    
H17   O21   S    
O13   Zn1   S    
O3    Zn5   S    
