data_mof_unit_64681.cif
_audit_creation_date              2012-12-10T19:10:30-0500
_audit_creation_method            fapswitch 2.2
_symmetry_space_group_name_H-M    P1
_symmetry_Int_Tables_number       1
_space_group_crystal_system       triclinic
_cell_length_a                    30.260039
_cell_length_b                    30.260038
_cell_length_c                    35.496302
_cell_angle_alpha                 90.000162
_cell_angle_beta                  90.000111
_cell_angle_gamma                 89.999985
_cell_volume                      32502.8963682

loop_
_atom_site_label
_atom_site_type_symbol
_atom_type_description
_atom_site_fract_x
_atom_site_fract_y
_atom_site_fract_z
_atom_type_partial_charge
C1    C     C_R   0.086161 0.500000 0.500000 0.933554
C2    C     C_R   0.500000 0.913839 0.500000 0.933555
C3    C     C_R   0.913839 0.500000 0.500000 0.933556
C4    C     C_R   0.500000 0.086161 0.500000 0.933555
C5    C     C_R   0.586161 0.000000 1.000000 0.933554
C6    C     C_R   0.000000 0.413839 0.000000 0.933555
C7    C     C_R   0.413839 0.000000 0.000000 0.933556
C8    C     C_R   0.000000 0.586161 1.000000 0.933555
C9    C     C_R   0.134086 0.500000 0.500000 -0.283159
C10   C     C_R   0.500000 0.865914 0.500000 -0.283159
C11   C     C_R   0.865914 0.500000 0.500000 -0.283158
C12   C     C_R   0.500000 0.134086 0.500000 -0.283158
C13   C     C_R   0.634087 1.000000 1.000000 -0.283159
C14   C     C_R   0.000000 0.365914 0.000000 -0.283158
C15   C     C_R   0.365914 0.000000 0.000000 -0.283158
C16   C     C_R   0.000000 0.634086 1.000000 -0.283158
C17   C     C_R   0.225800 0.500000 0.500000 0.021640
C18   C     C_R   0.500000 0.774200 0.500000 0.021640
C19   C     C_R   0.774200 0.500000 0.500000 0.021640
C20   C     C_R   0.500000 0.225800 0.500000 0.021640
C21   C     C_R   0.725800 1.000000 1.000000 0.021640
C22   C     C_R   0.000000 0.274199 0.000000 0.021639
C23   C     C_R   0.274200 0.000000 0.000000 0.021640
C24   C     C_R   1.000000 0.725800 1.000000 0.021640
C25   C     C_R   0.296649 0.488670 0.466979 0.267758
C26   C     C_R   0.488671 0.703351 0.466979 0.267758
C27   C     C_R   0.703351 0.511329 0.466979 0.267758
C28   C     C_R   0.511329 0.296649 0.466979 0.267758
C29   C     C_R   0.296649 0.511329 0.533021 0.267758
C30   C     C_R   0.488670 0.296649 0.533021 0.267758
C31   C     C_R   0.703351 0.488671 0.533021 0.267758
C32   C     C_R   0.511329 0.703351 0.533021 0.267758
C33   C     C_R   0.796649 0.988670 0.966979 0.267758
C34   C     C_R   0.988670 0.203351 0.966979 0.267758
C35   C     C_R   0.203351 0.011329 0.966979 0.267758
C36   C     C_R   0.011329 0.796649 0.966979 0.267758
C37   C     C_R   0.796649 0.011329 0.033021 0.267758
C38   C     C_R   0.988671 0.796649 0.033021 0.267758
C39   C     C_R   0.203351 0.988671 0.033021 0.267758
C40   C     C_R   0.011329 0.203351 0.033021 0.267758
C41   C     C_R   0.342481 0.488959 0.467110 -0.208767
C42   C     C_R   0.488959 0.657519 0.467110 -0.208767
C43   C     C_R   0.657519 0.511041 0.467110 -0.208767
C44   C     C_R   0.511040 0.342481 0.467110 -0.208767
C45   C     C_R   0.342481 0.511041 0.532890 -0.208767
C46   C     C_R   0.488959 0.342481 0.532890 -0.208766
C47   C     C_R   0.657519 0.488960 0.532890 -0.208767
C48   C     C_R   0.511041 0.657519 0.532890 -0.208767
C49   C     C_R   0.842481 0.988959 0.967110 -0.208767
C50   C     C_R   0.988959 0.157519 0.967110 -0.208767
C51   C     C_R   0.157519 0.011041 0.967110 -0.208766
C52   C     C_R   0.011040 0.842481 0.967110 -0.208767
C53   C     C_R   0.842481 0.011041 0.032890 -0.208767
C54   C     C_R   0.988959 0.842481 0.032890 -0.208766
C55   C     C_R   0.157519 0.988960 0.032890 -0.208767
C56   C     C_R   0.011041 0.157519 0.032890 -0.208767
C57   C     C_R   0.365490 0.500000 0.500000 -0.148987
C58   C     C_R   0.500000 0.634510 0.500000 -0.148988
C59   C     C_R   0.634510 0.500000 0.500000 -0.148988
C60   C     C_R   0.500000 0.365490 0.500000 -0.148987
C61   C     C_R   0.865490 0.000000 1.000000 -0.148987
C62   C     C_R   1.000000 0.134510 0.000000 -0.148987
C63   C     C_R   0.134510 0.000000 0.000000 -0.148988
C64   C     C_R   1.000000 0.865490 1.000000 -0.148988
C65   C     C_R   0.273653 0.500000 0.500000 -0.004961
C66   C     C_R   0.500000 0.726347 0.500000 -0.004962
C67   C     C_R   0.726347 0.500000 0.500000 -0.004961
C68   C     C_R   0.500000 0.273653 0.500000 -0.004961
C69   C     C_R   0.773653 1.000000 1.000000 -0.004961
C70   C     C_R   1.000000 0.226347 0.000000 -0.004962
C71   C     C_R   0.226347 0.000000 0.000000 -0.004961
C72   C     C_R   1.000000 0.773653 1.000000 -0.004961
C73   C     C_R   0.500000 0.586519 0.500000 0.916367
C74   C     C_R   0.586519 0.500000 0.500000 0.916367
C75   C     C_R   0.500000 0.413481 0.500000 0.916367
C76   C     C_R   0.413481 0.500000 0.500000 0.916367
C77   C     C_R   0.000000 0.086519 0.000000 0.916366
C78   C     C_R   0.086519 0.000000 0.000000 0.916367
C79   C     C_R   1.000000 0.913481 1.000000 0.916368
C80   C     C_R   0.913481 0.000000 1.000000 0.916367
C81   C     C_R   0.000000 0.500000 0.426673 0.835590
C82   C     C_R   0.500000 0.000000 0.426673 0.835588
C83   C     C_R   1.000000 0.500000 0.573327 0.835588
C84   C     C_R   0.500000 1.000000 0.573327 0.835590
C85   C     C_R   0.500000 1.000000 0.926673 0.835590
C86   C     C_R   1.000000 0.500000 0.926673 0.835588
C87   C     C_R   0.500000 0.000000 0.073327 0.835588
C88   C     C_R   0.000000 0.500000 0.073327 0.835590
C89   C     C_R   0.039733 0.505355 0.173643 -0.151283
C90   C     C_R   0.505355 0.960268 0.173642 -0.151283
C91   C     C_R   0.960268 0.494645 0.173642 -0.151284
C92   C     C_R   0.494644 0.039733 0.173642 -0.151283
C93   C     C_R   0.039732 0.494645 0.826357 -0.151284
C94   C     C_R   0.505355 0.039732 0.826358 -0.151285
C95   C     C_R   0.960267 0.505355 0.826358 -0.151282
C96   C     C_R   0.494645 0.960267 0.826357 -0.151283
C97   C     C_R   0.539733 0.005355 0.673643 -0.151283
C98   C     C_R   0.005355 0.460268 0.673642 -0.151283
C99   C     C_R   0.460268 0.994645 0.673642 -0.151284
C100  C     C_R   0.994645 0.539733 0.673642 -0.151283
C101  C     C_R   0.539732 0.994645 0.326357 -0.151284
C102  C     C_R   0.005355 0.539732 0.326358 -0.151284
C103  C     C_R   0.460267 0.005356 0.326358 -0.151283
C104  C     C_R   0.994645 0.460267 0.326357 -0.151283
C105  C     C_R   0.039790 0.505333 0.134444 -0.197491
C106  C     C_R   0.505333 0.960210 0.134444 -0.197492
C107  C     C_R   0.960210 0.494666 0.134444 -0.197492
C108  C     C_R   0.494666 0.039790 0.134444 -0.197492
C109  C     C_R   0.039790 0.494667 0.865556 -0.197491
C110  C     C_R   0.505333 0.039790 0.865556 -0.197492
C111  C     C_R   0.960210 0.505334 0.865556 -0.197493
C112  C     C_R   0.494667 0.960210 0.865556 -0.197491
C113  C     C_R   0.539790 0.005333 0.634444 -0.197490
C114  C     C_R   0.005333 0.460210 0.634444 -0.197492
C115  C     C_R   0.460210 0.994666 0.634444 -0.197492
C116  C     C_R   0.994666 0.539790 0.634444 -0.197492
C117  C     C_R   0.539790 0.994667 0.365556 -0.197491
C118  C     C_R   0.005334 0.539790 0.365556 -0.197492
C119  C     C_R   0.460210 0.005334 0.365556 -0.197493
C120  C     C_R   0.994667 0.460210 0.365556 -0.197491
C121  C     C_R   0.000000 0.500000 0.114566 -0.045206
C122  C     C_R   0.500000 0.000000 0.114566 -0.045207
C123  C     C_R   1.000000 0.500000 0.885433 -0.045206
C124  C     C_R   0.500000 1.000000 0.885433 -0.045207
C125  C     C_R   0.500000 1.000000 0.614566 -0.045207
C126  C     C_R   1.000000 0.500000 0.614566 -0.045207
C127  C     C_R   0.500000 0.000000 0.385434 -0.045207
C128  C     C_R   0.000000 0.500000 0.385434 -0.045206
C129  C     C_R   0.000000 0.500000 0.193110 0.153776
C130  C     C_R   0.500000 0.000000 0.193110 0.153776
C131  C     C_R   1.000000 0.500000 0.806890 0.153776
C132  C     C_R   0.500000 1.000000 0.806890 0.153776
C133  C     C_R   0.500000 1.000000 0.693110 0.153776
C134  C     C_R   1.000000 0.500000 0.693110 0.153776
C135  C     C_R   0.500000 0.000000 0.306889 0.153776
C136  C     C_R   0.000000 0.500000 0.306889 0.153776
C137  C     C_1   0.000000 0.499999 0.233165 -0.051417
C138  C     C_1   0.500000 0.000000 0.233165 -0.051417
C139  C     C_1   1.000000 0.500000 0.766835 -0.051417
C140  C     C_1   0.500000 1.000000 0.766835 -0.051417
C141  C     C_1   0.500000 1.000000 0.733165 -0.051417
C142  C     C_1   1.000000 0.500000 0.733165 -0.051417
C143  C     C_1   0.500000 0.000000 0.266835 -0.051417
C144  C     C_1   0.000000 0.499999 0.266835 -0.051417
C145  C     C_R   0.203107 0.467495 0.520061 -0.176104
C146  C     C_R   0.467495 0.796893 0.520061 -0.176104
C147  C     C_R   0.796893 0.532505 0.520061 -0.176103
C148  C     C_R   0.532504 0.203107 0.520061 -0.176107
C149  C     C_R   0.203107 0.532505 0.479939 -0.176105
C150  C     C_R   0.467495 0.203107 0.479938 -0.176102
C151  C     C_R   0.796893 0.467495 0.479939 -0.176107
C152  C     C_R   0.532505 0.796893 0.479939 -0.176105
C153  C     C_R   0.703107 0.967495 0.020061 -0.176104
C154  C     C_R   0.967495 0.296893 0.020061 -0.176104
C155  C     C_R   0.296893 0.032505 0.020061 -0.176103
C156  C     C_R   0.032505 0.703107 0.020061 -0.176107
C157  C     C_R   0.703107 0.032505 0.979939 -0.176105
C158  C     C_R   0.967495 0.703107 0.979939 -0.176103
C159  C     C_R   0.296893 0.967495 0.979939 -0.176107
C160  C     C_R   0.032505 0.296893 0.979939 -0.176105
C161  C     C_R   0.157195 0.467892 0.520993 0.463413
C162  C     C_R   0.467892 0.842805 0.520993 0.463412
C163  C     C_R   0.842805 0.532108 0.520993 0.463411
C164  C     C_R   0.532108 0.157196 0.520993 0.463412
C165  C     C_R   0.157195 0.532108 0.479007 0.463413
C166  C     C_R   0.467892 0.157195 0.479006 0.463411
C167  C     C_R   0.842804 0.467892 0.479007 0.463412
C168  C     C_R   0.532108 0.842804 0.479007 0.463412
C169  C     C_R   0.657196 0.967892 0.020993 0.463412
C170  C     C_R   0.967892 0.342805 0.020993 0.463412
C171  C     C_R   0.342805 0.032108 0.020993 0.463411
C172  C     C_R   0.032108 0.657196 0.020993 0.463412
C173  C     C_R   0.657195 0.032108 0.979007 0.463412
C174  C     C_R   0.967892 0.657195 0.979007 0.463411
C175  C     C_R   0.342804 0.967892 0.979007 0.463412
C176  C     C_R   0.032108 0.342804 0.979007 0.463412
H1    H     H_    0.070574 0.509550 0.188745 0.145967
H2    H     H_    0.509551 0.929427 0.188745 0.145967
H3    H     H_    0.929427 0.490449 0.188744 0.145968
H4    H     H_    0.490449 0.070574 0.188745 0.145967
H5    H     H_    0.070573 0.490449 0.811255 0.145968
H6    H     H_    0.509551 0.070573 0.811256 0.145968
H7    H     H_    0.929426 0.509551 0.811255 0.145967
H8    H     H_    0.490450 0.929426 0.811255 0.145967
H9    H     H_    0.570574 0.009550 0.688745 0.145967
H10   H     H_    0.009551 0.429427 0.688745 0.145967
H11   H     H_    0.429427 0.990449 0.688744 0.145968
H12   H     H_    0.990449 0.570574 0.688745 0.145967
H13   H     H_    0.570573 0.990449 0.311255 0.145968
H14   H     H_    0.009551 0.570573 0.311256 0.145968
H15   H     H_    0.429426 0.009551 0.311255 0.145967
H16   H     H_    0.990450 0.429426 0.311255 0.145967
H17   H     H_    0.070863 0.509656 0.119760 0.167722
H18   H     H_    0.509656 0.929137 0.119760 0.167723
H19   H     H_    0.929137 0.490343 0.119760 0.167723
H20   H     H_    0.490343 0.070863 0.119760 0.167723
H21   H     H_    0.070863 0.490343 0.880240 0.167723
H22   H     H_    0.509656 0.070862 0.880240 0.167723
H23   H     H_    0.929137 0.509657 0.880240 0.167723
H24   H     H_    0.490344 0.929137 0.880240 0.167723
H25   H     H_    0.570863 0.009656 0.619760 0.167723
H26   H     H_    0.009657 0.429137 0.619760 0.167723
H27   H     H_    0.429137 0.990343 0.619760 0.167723
H28   H     H_    0.990343 0.570863 0.619760 0.167723
H29   H     H_    0.570863 0.990343 0.380240 0.167723
H30   H     H_    0.009657 0.570863 0.380240 0.167723
H31   H     H_    0.429137 0.009657 0.380240 0.167723
H32   H     H_    0.990344 0.429137 0.380240 0.167723
H33   H     H_    0.221069 0.442318 0.535467 0.183929
H34   H     H_    0.442318 0.778931 0.535468 0.183929
H35   H     H_    0.778931 0.557682 0.535468 0.183930
H36   H     H_    0.557681 0.221069 0.535467 0.183929
H37   H     H_    0.221069 0.557681 0.464532 0.183929
H38   H     H_    0.442318 0.221068 0.464532 0.183930
H39   H     H_    0.778931 0.442319 0.464532 0.183929
H40   H     H_    0.557682 0.778931 0.464533 0.183929
H41   H     H_    0.721069 0.942318 0.035467 0.183929
H42   H     H_    0.942319 0.278931 0.035468 0.183929
H43   H     H_    0.278931 0.057682 0.035468 0.183930
H44   H     H_    0.057681 0.721069 0.035467 0.183928
H45   H     H_    0.721069 0.057681 0.964532 0.183929
H46   H     H_    0.942318 0.721068 0.964532 0.183930
H47   H     H_    0.278931 0.942319 0.964532 0.183929
H48   H     H_    0.057681 0.278931 0.964533 0.183929
H49   H     H_    0.360042 0.479993 0.441637 0.199930
H50   H     H_    0.479993 0.639958 0.441637 0.199930
H51   H     H_    0.639958 0.520007 0.441637 0.199930
H52   H     H_    0.520007 0.360042 0.441637 0.199930
H53   H     H_    0.360042 0.520007 0.558363 0.199930
H54   H     H_    0.479993 0.360042 0.558363 0.199930
H55   H     H_    0.639958 0.479993 0.558363 0.199930
H56   H     H_    0.520007 0.639958 0.558363 0.199930
H57   H     H_    0.860042 0.979992 0.941637 0.199930
H58   H     H_    0.979992 0.139958 0.941637 0.199930
H59   H     H_    0.139958 0.020007 0.941637 0.199930
H60   H     H_    0.020007 0.860042 0.941637 0.199930
H61   H     H_    0.860042 0.020008 0.058363 0.199930
H62   H     H_    0.979993 0.860042 0.058363 0.199930
H63   H     H_    0.139958 0.979993 0.058363 0.199930
H64   H     H_    0.020008 0.139958 0.058363 0.199930
O1    O     O_R   0.065400 0.463120 0.500070 -0.577657
O2    O     O_R   0.463120 0.934600 0.500070 -0.577657
O3    O     O_R   0.934600 0.536880 0.500070 -0.577658
O4    O     O_R   0.536880 0.065400 0.500070 -0.577657
O5    O     O_R   0.065400 0.536880 0.499930 -0.577657
O6    O     O_R   0.463120 0.065400 0.499930 -0.577657
O7    O     O_R   0.934600 0.463120 0.499930 -0.577656
O8    O     O_R   0.536880 0.934600 0.499930 -0.577657
O9    O     O_R   0.565400 0.963120 0.000070 -0.577657
O10   O     O_R   0.963120 0.434600 0.000070 -0.577657
O11   O     O_R   0.434600 0.036880 0.000070 -0.577658
O12   O     O_R   0.036880 0.565400 0.000070 -0.577657
O13   O     O_R   0.565400 0.036880 0.999930 -0.577657
O14   O     O_R   0.963120 0.565400 0.999930 -0.577657
O15   O     O_R   0.434600 0.963120 0.999930 -0.577656
O16   O     O_R   0.036880 0.434600 0.999930 -0.577658
O17   O     O_R   0.999940 0.463120 0.444630 -0.620737
O18   O     O_R   0.463120 0.000060 0.444630 -0.620737
O19   O     O_R   0.000060 0.536880 0.444630 -0.620737
O20   O     O_R   0.536880 0.999940 0.444630 -0.620737
O21   O     O_R   0.999940 0.536880 0.555370 -0.620737
O22   O     O_R   0.463120 0.999940 0.555370 -0.620737
O23   O     O_R   0.000060 0.463120 0.555370 -0.620738
O24   O     O_R   0.536880 0.000060 0.555370 -0.620737
O25   O     O_R   0.499940 0.963120 0.944630 -0.620737
O26   O     O_R   0.963120 0.500060 0.944630 -0.620738
O27   O     O_R   0.500060 0.036880 0.944630 -0.620737
O28   O     O_R   0.036880 0.499940 0.944630 -0.620737
O29   O     O_R   0.499940 0.036880 0.055370 -0.620737
O30   O     O_R   0.963120 0.499940 0.055370 -0.620737
O31   O     O_R   0.500060 0.963120 0.055370 -0.620738
O32   O     O_R   0.036880 0.500060 0.055370 -0.620738
O33   O     O_R   0.499910 0.565560 0.468780 -0.620834
O34   O     O_R   0.565560 0.500090 0.468780 -0.620834
O35   O     O_R   0.500090 0.434440 0.468780 -0.620834
O36   O     O_R   0.434440 0.499910 0.468780 -0.620834
O37   O     O_R   0.499910 0.434440 0.531220 -0.620834
O38   O     O_R   0.565560 0.499910 0.531220 -0.620834
O39   O     O_R   0.500090 0.565560 0.531220 -0.620834
O40   O     O_R   0.434440 0.500090 0.531220 -0.620834
O41   O     O_R   0.999910 0.065560 0.968780 -0.620834
O42   O     O_R   0.065560 0.000090 0.968780 -0.620834
O43   O     O_R   0.000090 0.934440 0.968780 -0.620834
O44   O     O_R   0.934440 0.999910 0.968780 -0.620834
O45   O     O_R   0.999910 0.934440 0.031220 -0.620834
O46   O     O_R   0.065560 0.999910 0.031220 -0.620834
O47   O     O_R   0.000090 0.065560 0.031220 -0.620834
O48   O     O_R   0.934440 0.000090 0.031220 -0.620834
Zn1   Zn    Zn3+2 0.000000 0.450720 0.500000 1.032359
Zn2   Zn    Zn3+2 0.450720 1.000000 0.500000 1.032359
Zn3   Zn    Zn3+2 0.000000 0.549280 0.500000 1.032359
Zn4   Zn    Zn3+2 0.549280 1.000000 0.500000 1.032359
Zn5   Zn    Zn3+2 0.500000 0.950720 0.000000 1.032359
Zn6   Zn    Zn3+2 0.950720 0.500000 0.000000 1.032359
Zn7   Zn    Zn3+2 0.500000 0.049280 0.000000 1.032359
Zn8   Zn    Zn3+2 0.049280 0.500000 0.000000 1.032359
Zn9   Zn    Zn3+2 0.500000 0.500000 0.458280 1.006814
Zn10  Zn    Zn3+2 0.500000 0.500000 0.541720 1.006814
Zn11  Zn    Zn3+2 0.000000 0.000000 0.958280 1.006814
Zn12  Zn    Zn3+2 0.000000 0.000000 0.041720 1.006814
O49   O     O_3   0.135101 0.435979 0.541537 -0.579966
C177  C     C_3   0.129472 0.451715 0.578623 -0.236792
H65   H     H_    0.109544 0.482648 0.579184 0.140422
H66   H     H_    0.161891 0.457041 0.592743 0.181241
H67   H     H_    0.111156 0.426472 0.595050 0.190684
O50   O     O_3   0.435980 0.864899 0.541537 -0.579967
C178  C     C_3   0.451714 0.870529 0.578624 -0.236790
H68   H     H_    0.426472 0.888845 0.595050 0.190684
H69   H     H_    0.482648 0.890456 0.579185 0.140421
H70   H     H_    0.457040 0.838110 0.592743 0.181241
O51   O     O_3   0.864899 0.564020 0.541538 -0.579966
C179  C     C_3   0.870529 0.548285 0.578624 -0.236792
H71   H     H_    0.888845 0.573527 0.595051 0.190685
H72   H     H_    0.890457 0.517352 0.579184 0.140421
H73   H     H_    0.838111 0.542958 0.592743 0.181242
O52   O     O_3   0.564020 0.135101 0.541537 -0.579967
C180  C     C_3   0.548286 0.129473 0.578624 -0.236795
H74   H     H_    0.517352 0.109547 0.579186 0.140424
H75   H     H_    0.542961 0.161893 0.592742 0.181242
H76   H     H_    0.573528 0.111157 0.595051 0.190685
O53   O     O_3   0.135101 0.564020 0.458463 -0.579967
C181  C     C_3   0.129472 0.548285 0.421376 -0.236796
H77   H     H_    0.111155 0.573528 0.404950 0.190685
H78   H     H_    0.109544 0.517352 0.420815 0.140423
H79   H     H_    0.161891 0.542960 0.407257 0.181242
O54   O     O_3   0.435980 0.135101 0.458462 -0.579966
C182  C     C_3   0.451715 0.129470 0.421376 -0.236791
H80   H     H_    0.426473 0.111154 0.404949 0.190684
H81   H     H_    0.482649 0.109542 0.420816 0.140420
H82   H     H_    0.457042 0.161889 0.407257 0.181241
O55   O     O_3   0.864899 0.435980 0.458463 -0.579966
C183  C     C_3   0.870527 0.451714 0.421376 -0.236795
H83   H     H_    0.890454 0.482648 0.420814 0.140424
H84   H     H_    0.838107 0.457039 0.407257 0.181242
H85   H     H_    0.888843 0.426472 0.404949 0.190685
O56   O     O_3   0.564021 0.864899 0.458463 -0.579967
C184  C     C_3   0.548285 0.870528 0.421376 -0.236793
H86   H     H_    0.517352 0.890455 0.420815 0.140423
H87   H     H_    0.542960 0.838109 0.407257 0.181241
H88   H     H_    0.573528 0.888844 0.404950 0.190684
O57   O     O_3   0.635101 0.935979 0.041537 -0.579966
C185  C     C_3   0.629472 0.951715 0.078623 -0.236792
H89   H     H_    0.609544 0.982648 0.079184 0.140422
H90   H     H_    0.661891 0.957041 0.092743 0.181241
H91   H     H_    0.611156 0.926472 0.095050 0.190684
O58   O     O_3   0.935980 0.364899 0.041537 -0.579967
C186  C     C_3   0.951715 0.370529 0.078624 -0.236793
H92   H     H_    0.926473 0.388845 0.095051 0.190684
H93   H     H_    0.982648 0.390456 0.079185 0.140422
H94   H     H_    0.957041 0.338110 0.092743 0.181241
O59   O     O_3   0.364899 0.064020 0.041538 -0.579966
C187  C     C_3   0.370529 0.048285 0.078624 -0.236792
H95   H     H_    0.388845 0.073527 0.095051 0.190685
H96   H     H_    0.390457 0.017352 0.079184 0.140421
H97   H     H_    0.338111 0.042958 0.092743 0.181242
O60   O     O_3   0.064021 0.635101 0.041537 -0.579966
C188  C     C_3   0.048287 0.629474 0.078624 -0.236795
H98   H     H_    0.017353 0.609547 0.079186 0.140424
H99   H     H_    0.042962 0.661893 0.092742 0.181242
H100  H     H_    0.073529 0.611157 0.095050 0.190685
O61   O     O_3   0.635101 0.064020 0.958463 -0.579966
C189  C     C_3   0.629472 0.048286 0.921376 -0.236792
H101  H     H_    0.611155 0.073528 0.904950 0.190684
H102  H     H_    0.609544 0.017352 0.920815 0.140422
H103  H     H_    0.661891 0.042960 0.907257 0.181241
O62   O     O_3   0.935979 0.635101 0.958462 -0.579966
C190  C     C_3   0.951715 0.629470 0.921376 -0.236793
H104  H     H_    0.926473 0.611154 0.904950 0.190685
H105  H     H_    0.982648 0.609542 0.920816 0.140421
H106  H     H_    0.957042 0.661889 0.907257 0.181242
O63   O     O_3   0.364899 0.935979 0.958463 -0.579966
C191  C     C_3   0.370527 0.951714 0.921376 -0.236795
H107  H     H_    0.390454 0.982648 0.920814 0.140424
H108  H     H_    0.338107 0.957039 0.907257 0.181242
H109  H     H_    0.388843 0.926472 0.904949 0.190685
O64   O     O_3   0.064020 0.364899 0.958463 -0.579966
C192  C     C_3   0.048285 0.370528 0.921376 -0.236794
H110  H     H_    0.017352 0.390456 0.920815 0.140422
H111  H     H_    0.042959 0.338109 0.907257 0.181242
H112  H     H_    0.073527 0.388844 0.904950 0.190685
Br1   Br    Br    0.266939 0.471322 0.421478 -0.502913
Br2   Br    Br    0.471322 0.733061 0.421478 -0.502913
Br3   Br    Br    0.733061 0.528678 0.421478 -0.502914
Br4   Br    Br    0.528678 0.266939 0.421478 -0.502913
Br5   Br    Br    0.266939 0.528678 0.578522 -0.502913
Br6   Br    Br    0.471322 0.266939 0.578522 -0.502914
Br7   Br    Br    0.733061 0.471323 0.578522 -0.502914
Br8   Br    Br    0.528678 0.733061 0.578522 -0.502913
Br9   Br    Br    0.766939 0.971322 0.921478 -0.502913
Br10  Br    Br    0.971321 0.233061 0.921478 -0.502913
Br11  Br    Br    0.233061 0.028678 0.921478 -0.502914
Br12  Br    Br    0.028677 0.766939 0.921478 -0.502913
Br13  Br    Br    0.766939 0.028678 0.078522 -0.502913
Br14  Br    Br    0.971322 0.766939 0.078522 -0.502914
Br15  Br    Br    0.233061 0.971323 0.078522 -0.502914
Br16  Br    Br    0.028679 0.233061 0.078522 -0.502913

loop_
_geom_bond_atom_site_label_1
_geom_bond_atom_site_label_2
_ccdc_geom_bond_type
C181  H78   S    
C188  H98   S    
C23   C155  A    
C169  O57   S    
C85   O27   A    
C62   C77   S    
C109  H21   S    
C86   O28   A    
C14   C170  A    
C42   C58   A    
C99   H11   S    
O36   Zn9   S    
O49   C177  S    
C13   C173  A    
C45   C57   A    
O39   Zn10  S    
C45   H53   S    
C75   O37   A    
C57   C76   S    
C100  H12   S    
C112  C124  A    
C101  H13   S    
C138  C143  T    
C148  H36   S    
C139  C142  T    
C98   C114  A    
C181  H79   S    
C61   C80   S    
C79   O43   A    
C104  H16   S    
C89   C129  A    
C191  H107  S    
C154  C170  A    
C51   H59   S    
O24   Zn4   S    
C192  H112  S    
C92   H4    S    
C93   H5    S    
C158  C174  A    
C115  H27   S    
O54   C182  S    
C113  H25   S    
C4    C12   S    
C161  O49   S    
C5    C13   S    
C33   C69   A    
C75   O35   A    
C101  C135  A    
C35   C71   A    
C8    C16   S    
C151  H39   S    
C11   C167  A    
C84   O22   A    
C18   C152  A    
C116  H28   S    
C56   H64   S    
C184  H86   S    
C177  H66   S    
O3    Zn3   S    
C81   O19   A    
O47   Zn12  S    
O8    Zn4   S    
C82   O20   A    
C120  H32   S    
C91   C107  A    
C140  C141  T    
C54   H62   S    
C149  H37   S    
C25   C41   A    
C185  H89   S    
C28   C44   A    
C94   C132  A    
C28   Br4   S    
C29   C45   A    
O52   C180  S    
C26   C66   A    
C180  H76   S    
C97   H9    S    
C187  H95   S    
O50   C178  S    
O48   Zn12  S    
C156  H44   S    
C160  H48   S    
C173  O61   S    
C188  H100  S    
C81   C128  S    
C35   C51   A    
C17   C145  A    
C64   C79   S    
C56   C62   A    
C86   O26   A    
C83   C126  S    
C130  C138  S    
C184  H88   S    
C52   H60   S    
C19   C147  A    
C46   C60   A    
C20   C68   S    
O56   C184  S    
C185  H91   S    
C87   C122  S    
C91   C129  A    
O44   Zn11  S    
C191  H109  S    
O11   Zn7   S    
C1    O5    A    
C118  H30   S    
C95   H7    S    
O38   Zn10  S    
C145  C161  A    
C151  C167  A    
C190  H106  S    
C39   Br15  S    
O29   Zn7   S    
C3    C11   S    
O1    Zn1   S    
O43   Zn11  S    
C129  C137  S    
C98   H10   S    
O53   C181  S    
C21   C69   S    
C21   C153  A    
C84   O24   A    
C30   Br6   S    
C112  H24   S    
C24   C156  A    
O20   Zn4   S    
C82   O18   A    
C83   O23   A    
O59   C187  S    
C97   C133  A    
O17   Zn1   S    
C106  H18   S    
C73   O39   A    
C152  H40   S    
C40   C70   A    
C28   C68   A    
C114  C126  A    
C6    C14   S    
C189  H101  S    
C27   Br3   S    
C150  C166  A    
C187  H97   S    
C179  H71   S    
C50   H58   S    
C5    O13   A    
C53   C61   A    
C92   C108  A    
C55   C63   A    
C19   C151  A    
C20   C148  A    
C153  H41   S    
C36   C52   A    
C43   C59   A    
C37   C53   A    
C13   C169  A    
C157  H45   S    
O23   Zn1   S    
C8    O12   A    
C77   O47   A    
O25   Zn5   S    
C100  C134  A    
O42   Zn11  S    
C145  H33   S    
C42   H50   S    
C38   C72   A    
C80   O48   A    
C148  C164  A    
C33   Br9   S    
C149  C165  A    
C183  H83   S    
O34   Zn9   S    
C53   H61   S    
C182  H81   S    
C109  C123  A    
C47   C59   A    
C156  C172  A    
C7    O11   A    
O28   Zn8   S    
O27   Zn7   S    
C167  O55   S    
O30   Zn6   S    
C37   C69   A    
C106  C122  A    
C11   C163  A    
C55   H63   S    
C9    C161  A    
C2    O2    A    
C29   C65   A    
C10   C168  A    
C137  C144  T    
O45   Zn12  S    
C83   O21   A    
C103  H15   S    
C153  C169  A    
C24   C72   S    
C26   Br2   S    
C16   C174  A    
O6    Zn2   S    
C39   C71   A    
C104  C136  A    
C17   C149  A    
C30   C46   A    
C170  O58   S    
C18   C66   S    
O9    Zn5   S    
C179  H73   S    
C178  H70   S    
C147  C163  A    
C186  H94   S    
C22   C160  A    
C7    C15   S    
C20   C150  A    
O40   Zn10  S    
O33   Zn9   S    
C192  H111  S    
C131  C139  S    
O37   Zn10  S    
O35   Zn9   S    
C159  C175  A    
C10   C162  A    
C89   C105  A    
C104  C120  A    
C22   C70   S    
C36   C72   A    
C93   C109  A    
C63   C78   S    
C119  C127  A    
C79   O45   A    
C175  O63   S    
C90   H2    S    
C110  H22   S    
C46   H54   S    
C100  C116  A    
C183  H85   S    
C146  C162  A    
C26   C42   A    
C29   Br5   S    
C117  H29   S    
C99   C115  A    
C185  H90   S    
O2    Zn2   S    
C33   C49   A    
O63   C191  S    
C32   Br8   S    
C180  H75   S    
C2    O8    A    
O62   C190  S    
O31   Zn5   S    
C14   C176  A    
C152  C168  A    
C39   C55   A    
C40   C56   A    
C187  H96   S    
C114  H26   S    
C155  H43   S    
C108  H20   S    
C191  H108  S    
C34   C70   A    
O18   Zn2   S    
C181  H77   S    
C188  H99   S    
C31   C47   A    
C95   C131  A    
C32   C48   A    
C3    O7    A    
C147  H35   S    
C184  H87   S    
C41   H49   S    
C49   C61   A    
C111  C123  A    
C178  H68   S    
C5    O9    A    
C51   C63   A    
C90   C106  A    
C52   C64   A    
C186  H92   S    
O16   Zn8   S    
C76   O40   A    
C18   C146  A    
C94   C110  A    
O5    Zn3   S    
C74   O34   A    
O55   C183  S    
C23   C71   S    
C134  C142  S    
C172  O60   S    
C38   C54   A    
O7    Zn1   S    
C1    C9    S    
C190  H105  S    
C27   C67   A    
C117  C127  A    
C59   C74   S    
C4    O6    A    
O32   Zn8   S    
C88   O30   A    
C80   O44   A    
C107  C121  A    
C163  O51   S    
C32   C66   A    
C84   C125  S    
C7    O15   A    
C81   O17   A    
C88   C121  S    
C120  C128  A    
C48   C58   A    
C132  C140  S    
C60   C75   S    
C133  C141  S    
O26   Zn6   S    
C101  C117  A    
C9    C165  A    
C41   C57   A    
C182  H80   S    
C136  C144  S    
C189  H102  S    
C12   C164  A    
C44   C60   A    
O21   Zn3   S    
C102  H14   S    
C179  H72   S    
C102  C136  A    
C31   C67   A    
C90   C130  A    
C27   C43   A    
C47   H55   S    
C35   Br11  S    
C37   Br13  S    
C94   H6    S    
C93   C131  A    
C30   C68   A    
C157  C173  A    
C164  O52   S    
C189  H103  S    
O51   C179  S    
O10   Zn6   S    
C92   C130  A    
C190  H104  S    
O15   Zn5   S    
O41   Zn11  S    
C107  H19   S    
C38   Br14  S    
O57   C185  S    
C105  H17   S    
C96   C112  A    
C177  H67   S    
C76   O36   A    
C54   C64   A    
O13   Zn7   S    
C183  H84   S    
C12   C166  A    
C24   C158  A    
C113  C125  A    
C4    O4    A    
C99   C133  A    
C85   C124  S    
C103  C135  A    
C78   O42   A    
C49   H57   S    
C111  H23   S    
O4    Zn4   S    
C73   O33   A    
C19   C67   S    
C91   H3    S    
C89   H1    S    
C154  H42   S    
C102  C118  A    
C96   C132  A    
C87   O31   A    
C174  O62   S    
C158  H46   S    
C116  C126  A    
C160  C176  A    
O46   Zn12  S    
C118  C128  A    
C96   H8    S    
C40   Br16  S    
C146  H34   S    
C43   H51   S    
C171  O59   S    
C34   C50   A    
C15   C171  A    
C85   O25   A    
C25   C65   A    
C135  C143  S    
O22   Zn2   S    
C23   C159  A    
C178  H69   S    
C168  O56   S    
C6    O10   A    
C186  H93   S    
C44   H52   S    
C16   C172  A    
O19   Zn3   S    
C166  O54   S    
C105  C121  A    
C3    O3    A    
C74   O38   A    
C192  H110  S    
C1    O1    A    
C50   C62   A    
C162  O50   S    
C119  H31   S    
C97   C113  A    
C2    C10   S    
O64   C192  S    
C22   C154  A    
C25   Br1   S    
C177  H65   S    
C31   Br7   S    
O12   Zn8   S    
C21   C157  A    
C103  C119  A    
C108  C122  A    
O14   Zn6   S    
C182  H82   S    
O61   C189  S    
C98   C134  A    
C17   C65   S    
C115  C125  A    
C15   C175  A    
C77   O41   A    
C176  O64   S    
C95   C111  A    
C87   O29   A    
C165  O53   S    
O58   C186  S    
C159  H47   S    
C36   Br12  S    
C8    O14   A    
O60   C188  S    
C78   O46   A    
C150  H38   S    
C180  H74   S    
C6    O16   A    
C82   C127  S    
C48   H56   S    
C155  C171  A    
C86   C123  S    
C34   Br10  S    
C110  C124  A    
C88   O32   A    
C58   C73   S    
