data_mof_unit_63106.cif
_audit_creation_date              2012-12-10T17:50:14-0500
_audit_creation_method            fapswitch 2.2
_symmetry_space_group_name_H-M    P1
_symmetry_Int_Tables_number       1
_space_group_crystal_system       triclinic
_cell_length_a                    27.792826
_cell_length_b                    36.199953
_cell_length_c                    27.776768
_cell_angle_alpha                 90.016008
_cell_angle_beta                  89.999467
_cell_angle_gamma                 90.005543
_cell_volume                      27946.1771447

loop_
_atom_site_label
_atom_site_type_symbol
_atom_type_description
_atom_site_fract_x
_atom_site_fract_y
_atom_site_fract_z
_atom_type_partial_charge
C1    C     C_R   0.499975 0.650334 0.250029 0.827530
C2    C     C_R   0.999997 0.650333 0.249966 0.820561
C3    C     C_1   0.499964 0.250027 0.431106 -0.149152
C4    C     C_1   0.499956 0.249989 0.931105 -0.148260
C5    C     C_1   0.499966 0.249977 0.068895 -0.149193
C6    C     C_1   0.499953 0.750016 0.068894 -0.148214
C7    C     C_1   0.499964 0.750027 0.931106 -0.149153
C8    C     C_1   0.999956 0.749989 0.931105 -0.148264
C9    C     C_1   0.999966 0.749977 0.068895 -0.149192
C10   C     C_1   0.999953 0.250016 0.068894 -0.148218
C11   C     C_1   0.999964 0.250027 0.931106 -0.149152
C12   C     C_1   0.999956 0.249989 0.431105 -0.148267
C13   C     C_R   0.999954 0.349665 0.249938 0.828843
C14   C     C_1   0.999966 0.249977 0.568895 -0.149193
C15   C     C_1   0.999953 0.750016 0.568894 -0.148218
C16   C     C_1   0.999964 0.750027 0.431106 -0.149151
C17   C     C_1   0.499950 0.749979 0.474551 -0.000991
C18   C     C_1   0.499955 0.749973 0.525449 -0.001464
C19   C     C_1   0.499947 0.250029 0.525449 -0.000694
C20   C     C_1   0.499953 0.250035 0.474551 -0.001138
C21   C     C_1   0.499950 0.249979 0.974551 -0.000987
C22   C     C_1   0.499955 0.249973 0.025449 -0.001460
C23   C     C_1   0.499947 0.750029 0.025449 -0.000691
C24   C     C_R   0.999985 0.349668 0.750060 0.821439
C25   C     C_1   0.499953 0.750034 0.974551 -0.001135
C26   C     C_1   0.999950 0.749979 0.974551 -0.000990
C27   C     C_1   0.999955 0.749973 0.025449 -0.001462
C28   C     C_1   0.999947 0.250029 0.025449 -0.000694
C29   C     C_1   0.999953 0.250034 0.974551 -0.001137
C30   C     C_1   0.999950 0.249979 0.474551 -0.000992
C31   C     C_1   0.999955 0.249973 0.525449 -0.001464
C32   C     C_1   0.999947 0.750029 0.525449 -0.000695
C33   C     C_1   0.999953 0.750035 0.474551 -0.001138
C34   C     C_R   0.499977 0.750007 0.120630 0.822418
C35   C     C_R   0.999975 0.150334 0.250029 0.827539
C36   C     C_R   0.499982 0.750011 0.879370 0.820949
C37   C     C_R   0.499979 0.249995 0.879369 0.822626
C38   C     C_R   0.499982 0.249989 0.120631 0.820283
C39   C     C_R   0.499977 0.250007 0.620630 0.822410
C40   C     C_R   0.499982 0.250011 0.379370 0.820938
C41   C     C_R   0.499979 0.749995 0.379369 0.822621
C42   C     C_R   0.499982 0.749989 0.620631 0.820274
C43   C     C_R   0.999977 0.750007 0.620630 0.822413
C44   C     C_R   0.999982 0.750011 0.379370 0.820941
C45   C     C_R   0.999979 0.249995 0.379369 0.822623
C46   C     C_R   0.999996 0.150333 0.749965 0.820561
C47   C     C_R   0.999982 0.249989 0.620631 0.820279
C48   C     C_R   0.999977 0.250007 0.120630 0.822415
C49   C     C_R   0.999982 0.250011 0.879370 0.820943
C50   C     C_R   0.999978 0.749995 0.879369 0.822623
C51   C     C_R   0.999982 0.749989 0.120631 0.820280
C52   C     C_R   0.370617 0.749999 0.249999 0.822979
C53   C     C_R   0.370620 0.749999 0.750000 0.819992
C54   C     C_R   0.370617 0.249999 0.749999 0.822976
C55   C     C_R   0.370620 0.249999 0.250000 0.819989
C56   C     C_R   0.870617 0.749999 0.749999 0.822980
C57   C     C_R   0.999953 0.849665 0.749937 0.828845
C58   C     C_R   0.870620 0.749999 0.250000 0.819982
C59   C     C_R   0.870617 0.249999 0.249999 0.822982
C60   C     C_R   0.870620 0.249999 0.750000 0.819985
C61   C     C_R   0.629373 0.750000 0.249999 0.821302
C62   C     C_R   0.629376 0.750001 0.750001 0.823070
C63   C     C_R   0.629373 0.250000 0.749999 0.821299
C64   C     C_R   0.629376 0.250001 0.250001 0.823070
C65   C     C_R   0.129373 0.750000 0.749999 0.821305
C66   C     C_R   0.129376 0.750001 0.250001 0.823070
C67   C     C_R   0.129373 0.250000 0.249999 0.821307
C68   C     C_R   0.999985 0.849668 0.250060 0.821433
C69   C     C_R   0.129376 0.250001 0.750001 0.823070
C70   C     C_1   0.681109 0.750000 0.249997 -0.149724
C71   C     C_1   0.681111 0.750002 0.750002 -0.149220
C72   C     C_1   0.681109 0.250000 0.749997 -0.149724
C73   C     C_1   0.681111 0.250002 0.250002 -0.149217
C74   C     C_1   0.181109 0.750000 0.749997 -0.149721
C75   C     C_1   0.181111 0.750002 0.250002 -0.149217
C76   C     C_1   0.181109 0.250000 0.249997 -0.149720
C77   C     C_1   0.181111 0.250002 0.750002 -0.149220
C78   C     C_1   0.724547 0.749998 0.249998 -0.001313
C79   C     C_3   0.549582 0.978738 0.252315 -0.479789
C80   C     C_1   0.724548 0.750001 0.750001 -0.000441
C81   C     C_1   0.724547 0.249998 0.749997 -0.001313
C82   C     C_1   0.724548 0.250001 0.250001 -0.000439
C83   C     C_1   0.224547 0.749998 0.749997 -0.001309
C84   C     C_1   0.224548 0.750001 0.250001 -0.000440
C85   C     C_1   0.224547 0.249998 0.249998 -0.001308
C86   C     C_1   0.224548 0.250001 0.750001 -0.000442
C87   C     C_1   0.775446 0.749996 0.250000 -0.000668
C88   C     C_1   0.775445 0.749999 0.749999 -0.000180
C89   C     C_1   0.775446 0.249996 0.750000 -0.000667
C90   C     C_3   0.546568 0.978567 0.734075 -0.437601
C91   C     C_1   0.775445 0.249999 0.249999 -0.000178
C92   C     C_1   0.275446 0.749996 0.750000 -0.000664
C93   C     C_1   0.275445 0.749999 0.249999 -0.000181
C94   C     C_1   0.275446 0.249996 0.250000 -0.000664
C95   C     C_1   0.275445 0.249999 0.749999 -0.000182
C96   C     C_1   0.818884 0.749996 0.250001 -0.147509
C97   C     C_1   0.818882 0.749999 0.749998 -0.148231
C98   C     C_1   0.818884 0.249996 0.750001 -0.147508
C99   C     C_1   0.818882 0.249999 0.249998 -0.148229
C100  C     C_1   0.318884 0.749996 0.750001 -0.147504
C101  C     C_3   0.546966 0.021201 0.735133 -0.480710
C102  C     C_1   0.318882 0.749999 0.249998 -0.148234
C103  C     C_1   0.318884 0.249996 0.250001 -0.147504
C104  C     C_1   0.318882 0.249999 0.749998 -0.148235
C105  C     C_3   0.470969 0.979134 0.203972 0.278196
C106  C     C_3   0.488732 0.977894 0.803726 0.269003
C107  C     C_3   0.483169 0.020960 0.801860 0.278354
C108  C     C_3   0.476012 0.022194 0.200859 0.268757
C109  C     C_3   0.470830 0.479135 0.704054 0.278198
C110  C     C_3   0.488511 0.477894 0.303681 0.268997
C111  C     C_3   0.482948 0.520958 0.301790 0.278346
C112  C     C_R   0.499997 0.650333 0.749966 0.820561
C113  C     C_3   0.549535 0.021379 0.253646 -0.437051
C114  C     C_3   0.475867 0.522195 0.700926 0.268752
C115  C     C_3   0.970812 0.979135 0.704058 0.278202
C116  C     C_3   0.988445 0.977894 0.303670 0.269008
C117  C     C_3   0.982879 0.020959 0.301770 0.278349
C118  C     C_3   0.975852 0.022195 0.700928 0.268753
C119  C     C_3   0.970835 0.479135 0.204053 0.278196
C120  C     C_3   0.988536 0.477894 0.803687 0.268992
C121  C     C_3   0.982977 0.520959 0.801799 0.278346
C122  C     C_3   0.975869 0.522195 0.200926 0.268747
C123  C     C_3   0.985945 0.560484 0.132700 0.099865
C124  C     C_3   0.549590 0.478738 0.752156 -0.479773
C125  C     C_3   0.954623 0.543476 0.093109 -0.332922
C126  C     C_3   0.933244 0.573208 0.060609 -0.968699
C127  C     C_3   0.049468 0.547370 0.845813 0.157828
C128  C     C_3   0.061883 0.560721 0.896512 -0.339638
C129  C     C_3   0.115357 0.569609 0.901235 -0.969024
C130  C     C_3   0.015113 0.440007 0.867752 0.102115
C131  C     C_3   0.994963 0.457592 0.913701 -0.332012
C132  C     C_3   0.982092 0.428319 0.951055 -0.973788
C133  C     C_3   0.023900 0.452820 0.144410 0.158632
C134  C     C_3   0.022977 0.440067 0.091945 -0.342470
C135  C     C_3   0.546644 0.478567 0.234278 -0.437559
C136  C     C_3   0.073471 0.431497 0.073471 -0.968761
C137  C     C_3   0.985920 0.060482 0.632697 0.099858
C138  C     C_3   0.954594 0.043475 0.593108 -0.332921
C139  C     C_3   0.933220 0.073208 0.560605 -0.968733
C140  C     C_3   0.049272 0.047384 0.345920 0.157771
C141  C     C_3   0.061573 0.060755 0.396638 -0.339680
C142  C     C_3   0.115035 0.069649 0.401474 -0.969018
C143  C     C_3   0.014923 0.940016 0.367785 0.102086
C144  C     C_3   0.994709 0.957605 0.413703 -0.331986
C145  C     C_3   0.981803 0.928337 0.451051 -0.973815
C146  C     C_3   0.547038 0.521202 0.235347 -0.480682
C147  C     C_3   0.023842 0.952812 0.644390 0.158581
C148  C     C_3   0.022887 0.940048 0.591929 -0.342459
C149  C     C_3   0.073369 0.931473 0.573427 -0.968769
C150  C     C_3   0.485945 0.560484 0.632700 0.099861
C151  C     C_3   0.454627 0.543477 0.593105 -0.332923
C152  C     C_3   0.433255 0.573210 0.560602 -0.968707
C153  C     C_3   0.549409 0.547375 0.345844 0.157808
C154  C     C_3   0.561790 0.560733 0.396548 -0.339653
C155  C     C_3   0.615259 0.569624 0.401305 -0.969021
C156  C     C_3   0.515061 0.440009 0.367759 0.102104
C157  C     C_3   0.549547 0.521379 0.753493 -0.437031
C158  C     C_3   0.494894 0.457594 0.413700 -0.332007
C159  C     C_3   0.482014 0.428322 0.451052 -0.973791
C160  C     C_3   0.523885 0.452816 0.644405 0.158612
C161  C     C_3   0.522952 0.440059 0.591942 -0.342469
C162  C     C_3   0.573443 0.431488 0.573460 -0.968762
C163  C     C_3   0.486283 0.060479 0.132658 0.099891
C164  C     C_3   0.455073 0.043466 0.092982 -0.332962
C165  C     C_3   0.433783 0.073195 0.060417 -0.968618
C166  C     C_3   0.549833 0.047368 0.845617 0.157848
C167  C     C_3   0.562445 0.060721 0.896266 -0.339607
C168  C     C_3   0.049588 0.978737 0.752133 -0.479762
C169  C     C_3   0.615936 0.069612 0.900782 -0.969029
C170  C     C_3   0.515538 0.940013 0.867700 0.102132
C171  C     C_3   0.495532 0.957604 0.913709 -0.332033
C172  C     C_3   0.482804 0.928339 0.951121 -0.973722
C173  C     C_3   0.524211 0.952818 0.144488 0.158653
C174  C     C_3   0.523442 0.940064 0.092020 -0.342497
C175  C     C_3   0.573987 0.931478 0.073700 -0.968707
C176  C     C_3   0.046667 0.978567 0.234342 -0.437532
C177  C     C_3   0.047062 0.021202 0.235418 -0.480661
C178  C     C_3   0.049545 0.021378 0.753476 -0.437022
C179  C     C_3   0.049591 0.478738 0.252163 -0.479781
C180  C     C_R   0.499954 0.349665 0.749938 0.828845
C181  C     C_3   0.046634 0.478567 0.734254 -0.437576
C182  C     C_3   0.047028 0.521202 0.735318 -0.480693
C183  C     C_3   0.049547 0.521379 0.253497 -0.437042
C184  C     C_1   0.999581 0.610763 0.249610 -0.159455
C185  C     C_1   0.999380 0.610769 0.750445 -0.157135
C186  C     C_1   0.999429 0.389236 0.750637 -0.159489
C187  C     C_1   0.999440 0.389229 0.249563 -0.157016
C188  C     C_1   0.999579 0.110763 0.749607 -0.159453
C189  C     C_1   0.999380 0.110769 0.250445 -0.157143
C190  C     C_1   0.999429 0.889236 0.250639 -0.159473
C191  C     C_R   0.499986 0.349668 0.250060 0.821438
C192  C     C_1   0.999437 0.889229 0.749560 -0.157022
C193  C     C_1   0.499580 0.610763 0.749609 -0.159455
C194  C     C_1   0.499380 0.610769 0.250445 -0.157138
C195  C     C_1   0.499429 0.389236 0.250637 -0.159485
C196  C     C_1   0.499439 0.389229 0.749562 -0.157018
C197  C     C_1   0.499581 0.110763 0.249610 -0.159459
C198  C     C_1   0.499379 0.110769 0.750445 -0.157131
C199  C     C_1   0.499428 0.889236 0.750638 -0.159498
C200  C     C_1   0.499440 0.889229 0.249564 -0.157019
C201  C     C_3   0.497198 0.963294 0.250153 0.123633
C202  C     C_R   0.499975 0.150334 0.750028 0.827501
C203  C     C_3   0.497032 0.963288 0.751076 0.140565
C204  C     C_3   0.496856 0.036701 0.750478 0.123931
C205  C     C_3   0.497332 0.036708 0.249750 0.139938
C206  C     C_3   0.497200 0.463294 0.750154 0.123630
C207  C     C_3   0.497035 0.463288 0.251067 0.140557
C208  C     C_3   0.496860 0.536701 0.250470 0.123933
C209  C     C_3   0.497333 0.536708 0.749753 0.139935
C210  C     C_3   0.997196 0.963294 0.750149 0.123632
C211  C     C_3   0.997037 0.963288 0.251067 0.140553
C212  C     C_3   0.996863 0.036701 0.250469 0.123932
C213  C     C_R   0.499997 0.150332 0.249966 0.820565
C214  C     C_3   0.997330 0.036708 0.749749 0.139937
C215  C     C_3   0.997200 0.463294 0.250156 0.123630
C216  C     C_3   0.997035 0.463288 0.751068 0.140558
C217  C     C_3   0.996859 0.536701 0.750471 0.123932
C218  C     C_3   0.997333 0.536708 0.249754 0.139936
C219  C     C_3   0.965985 0.522431 0.293946 0.145000
C220  C     C_3   0.957795 0.522283 0.712782 0.120868
C221  C     C_3   0.955592 0.477520 0.716139 0.144717
C222  C     C_3   0.968949 0.477668 0.296544 0.120377
C223  C     C_3   0.965996 0.022430 0.793951 0.144987
C224  C     C_R   0.499954 0.849665 0.249938 0.828835
C225  C     C_3   0.957874 0.022281 0.212703 0.120877
C226  C     C_3   0.955658 0.977519 0.216063 0.144696
C227  C     C_3   0.968965 0.977669 0.796550 0.120383
C228  C     C_3   0.465987 0.522431 0.793946 0.144995
C229  C     C_3   0.457818 0.522282 0.212758 0.120872
C230  C     C_3   0.455610 0.477520 0.216117 0.144708
C231  C     C_3   0.468953 0.477668 0.796546 0.120380
C232  C     C_3   0.465855 0.022431 0.293850 0.145000
C233  C     C_3   0.457647 0.022283 0.712939 0.120878
C234  C     C_3   0.455458 0.977520 0.716303 0.144720
C235  C     C_R   0.499986 0.849668 0.750059 0.821451
C236  C     C_3   0.468809 0.977669 0.296457 0.120382
C237  C     C_1   0.998820 0.577490 0.249446 0.011420
C238  C     C_1   0.998444 0.577495 0.750647 -0.012841
C239  C     C_1   0.998588 0.422506 0.751062 0.011358
C240  C     C_1   0.998609 0.422503 0.249519 -0.012340
C241  C     C_1   0.998817 0.077491 0.749442 0.011398
C242  C     C_1   0.998446 0.077495 0.250646 -0.012849
C243  C     C_1   0.998590 0.922506 0.251064 0.011340
C244  C     C_1   0.998604 0.922503 0.749514 -0.012342
C245  C     C_1   0.498819 0.577490 0.749445 0.011409
C246  C     C_R   0.999975 0.650334 0.750029 0.827525
C247  C     C_1   0.498445 0.577495 0.250646 -0.012845
C248  C     C_1   0.498589 0.422506 0.251062 0.011349
C249  C     C_1   0.498608 0.422503 0.749518 -0.012341
C250  C     C_1   0.498820 0.077490 0.249445 0.011418
C251  C     C_1   0.498443 0.077495 0.750649 -0.012839
C252  C     C_1   0.498587 0.922507 0.751066 0.011366
C253  C     C_1   0.498608 0.922503 0.249520 -0.012350
C254  C     C_1   0.499956 0.749989 0.431105 -0.148264
C255  C     C_1   0.499966 0.749977 0.568895 -0.149195
C256  C     C_1   0.499953 0.250016 0.568894 -0.148217
H1    H     H_    0.569476 0.967724 0.283795 0.191227
H2    H     H_    0.056508 0.968617 0.197907 0.169188
H3    H     H_    0.000255 0.914836 0.588762 0.233033
H4    H     H_    0.006737 0.961960 0.569104 0.222470
H5    H     H_    0.096374 0.956528 0.575313 0.265341
H6    H     H_    0.071327 0.922273 0.535350 0.271488
H7    H     H_    0.089973 0.909088 0.595148 0.270690
H8    H     H_    0.516066 0.575685 0.615427 0.164872
H9    H     H_    0.465354 0.581348 0.653818 0.123156
H10   H     H_    0.476881 0.524530 0.570908 0.227286
H11   H     H_    0.424893 0.527264 0.609482 0.228048
H12   H     H_    0.410113 0.592179 0.581870 0.264973
H13   H     H_    0.058522 0.032118 0.199932 0.191078
H14   H     H_    0.410970 0.560030 0.532209 0.270808
H15   H     H_    0.462368 0.589335 0.543011 0.267374
H16   H     H_    0.558875 0.569991 0.320682 0.134719
H17   H     H_    0.571584 0.522654 0.338219 0.190120
H18   H     H_    0.540531 0.585950 0.404904 0.233713
H19   H     H_    0.552165 0.539069 0.423161 0.222423
H20   H     H_    0.637218 0.544595 0.394039 0.264692
H21   H     H_    0.622956 0.579284 0.438460 0.272534
H22   H     H_    0.625562 0.591779 0.375630 0.270768
H23   H     H_    0.548400 0.424704 0.377156 0.165698
H24   H     H_    0.068172 0.031220 0.786350 0.169242
H25   H     H_    0.489637 0.419132 0.352832 0.125176
H26   H     H_    0.522238 0.476502 0.429275 0.228214
H27   H     H_    0.462197 0.473957 0.405066 0.228606
H28   H     H_    0.453890 0.409506 0.436688 0.267515
H29   H     H_    0.467943 0.441937 0.483996 0.267161
H30   H     H_    0.514350 0.411945 0.460867 0.267441
H31   H     H_    0.539316 0.429955 0.665997 0.134175
H32   H     H_    0.547385 0.477445 0.646589 0.190603
H33   H     H_    0.500322 0.414848 0.588759 0.233036
H34   H     H_    0.506812 0.461975 0.569115 0.222454
H35   H     H_    0.069578 0.467724 0.283583 0.191231
H36   H     H_    0.596447 0.456542 0.575361 0.265341
H37   H     H_    0.571418 0.422293 0.535380 0.271506
H38   H     H_    0.590037 0.409099 0.595183 0.270689
H39   H     H_    0.516451 0.075678 0.115464 0.164885
H40   H     H_    0.465635 0.081346 0.153716 0.123180
H41   H     H_    0.477389 0.024520 0.070846 0.227291
H42   H     H_    0.425298 0.027251 0.109280 0.228049
H43   H     H_    0.410583 0.092164 0.081621 0.264962
H44   H     H_    0.411575 0.060011 0.031968 0.270815
H45   H     H_    0.462940 0.089320 0.042901 0.267390
H46   H     H_    0.056414 0.468611 0.697806 0.169210
H47   H     H_    0.559190 0.069985 0.820415 0.134707
H48   H     H_    0.571969 0.022645 0.837889 0.190095
H49   H     H_    0.541224 0.085937 0.904724 0.233745
H50   H     H_    0.552943 0.039055 0.922919 0.222407
H51   H     H_    0.637862 0.044584 0.893413 0.264683
H52   H     H_    0.623801 0.079269 0.937902 0.272541
H53   H     H_    0.626121 0.091769 0.875063 0.270756
H54   H     H_    0.548915 0.924715 0.876982 0.165716
H55   H     H_    0.490065 0.919128 0.852874 0.125227
H56   H     H_    0.522923 0.976524 0.929174 0.228236
H57   H     H_    0.058412 0.532112 0.699804 0.191085
H58   H     H_    0.462795 0.973955 0.905190 0.228561
H59   H     H_    0.454652 0.909500 0.936863 0.267522
H60   H     H_    0.468828 0.941957 0.984103 0.267126
H61   H     H_    0.515190 0.911984 0.960840 0.267460
H62   H     H_    0.539574 0.929955 0.166125 0.134193
H63   H     H_    0.547704 0.977447 0.146748 0.190576
H64   H     H_    0.500809 0.914860 0.088761 0.233085
H65   H     H_    0.507388 0.961987 0.069145 0.222399
H66   H     H_    0.596999 0.956525 0.075681 0.265325
H67   H     H_    0.572080 0.922288 0.035612 0.271526
H68   H     H_    0.068167 0.531226 0.286372 0.169257
H69   H     H_    0.590500 0.909083 0.095474 0.270690
H70   H     H_    0.421899 0.932831 0.299819 0.214274
H71   H     H_    0.401393 0.970372 0.327261 0.178445
H72   H     H_    0.397790 0.979747 0.765881 0.164573
H73   H     H_    0.381798 0.966694 0.710209 0.194625
H74   H     H_    0.411442 0.067132 0.721560 0.212957
H75   H     H_    0.384624 0.029581 0.700264 0.178373
H76   H     H_    0.397560 0.020251 0.260406 0.164667
H77   H     H_    0.396109 0.033247 0.318339 0.195124
H78   H     H_    0.422056 0.432829 0.800056 0.214285
H79   H     H_    0.571736 0.969254 0.221744 0.167734
H80   H     H_    0.401632 0.470372 0.827557 0.178442
H81   H     H_    0.397734 0.479753 0.265449 0.164565
H82   H     H_    0.381977 0.466696 0.209711 0.194641
H83   H     H_    0.411577 0.567133 0.221167 0.212990
H84   H     H_    0.384853 0.529581 0.199759 0.178375
H85   H     H_    0.397594 0.520247 0.760706 0.164665
H86   H     H_    0.396314 0.533245 0.818642 0.195130
H87   H     H_    0.922072 0.932828 0.800080 0.214287
H88   H     H_    0.901656 0.970371 0.827586 0.178439
H89   H     H_    0.897719 0.979759 0.265321 0.164557
H90   H     H_    0.575789 0.968081 0.757808 0.222964
H91   H     H_    0.882032 0.966698 0.209564 0.194648
H92   H     H_    0.911624 0.067134 0.221037 0.213000
H93   H     H_    0.884928 0.029581 0.199597 0.178372
H94   H     H_    0.897595 0.020244 0.760727 0.164660
H95   H     H_    0.896328 0.033243 0.818662 0.195134
H96   H     H_    0.922050 0.432830 0.300046 0.214284
H97   H     H_    0.901624 0.470372 0.327548 0.178443
H98   H     H_    0.897739 0.479749 0.765500 0.164569
H99   H     H_    0.881955 0.466695 0.709768 0.194636
H100  H     H_    0.911558 0.567132 0.721224 0.212985
H101  H     H_    0.576189 0.030723 0.759000 0.167225
H102  H     H_    0.884821 0.529581 0.699827 0.178375
H103  H     H_    0.897594 0.520250 0.260703 0.164669
H104  H     H_    0.896312 0.533246 0.318640 0.195128
H105  H     H_    0.471918 0.968843 0.370778 0.176048
H106  H     H_    0.526294 0.976864 0.346548 0.177191
H107  H     H_    0.433620 0.968704 0.645251 0.175498
H108  H     H_    0.493763 0.964236 0.652492 0.170244
H109  H     H_    0.441778 0.031015 0.640251 0.176461
H110  H     H_    0.500527 0.023037 0.649870 0.176988
H111  H     H_    0.462624 0.031141 0.368136 0.175317
H112  H     H_    0.556211 0.968609 0.697590 0.169217
H113  H     H_    0.571861 0.031932 0.223368 0.223202
H114  H     H_    0.518999 0.035666 0.345965 0.169918
H115  H     H_    0.472293 0.468844 0.870856 0.176039
H116  H     H_    0.526593 0.476867 0.846457 0.177198
H117  H     H_    0.434074 0.468703 0.144972 0.175493
H118  H     H_    0.494186 0.464229 0.152471 0.170233
H119  H     H_    0.442274 0.531012 0.139999 0.176453
H120  H     H_    0.500979 0.523030 0.149883 0.176994
H121  H     H_    0.462977 0.531140 0.868242 0.175310
H122  H     H_    0.519285 0.535669 0.845903 0.169914
H123  H     H_    0.972332 0.968846 0.870860 0.176037
H124  H     H_    0.571648 0.469257 0.721513 0.167750
H125  H     H_    0.026623 0.976871 0.846441 0.177202
H126  H     H_    0.934211 0.968701 0.144892 0.175491
H127  H     H_    0.994312 0.964222 0.152467 0.170226
H128  H     H_    0.942437 0.031008 0.139920 0.176449
H129  H     H_    0.001126 0.023022 0.149891 0.176999
H130  H     H_    0.963003 0.031141 0.868247 0.175308
H131  H     H_    0.019305 0.035672 0.845894 0.169911
H132  H     H_    0.972278 0.468843 0.370855 0.176040
H133  H     H_    0.026583 0.476864 0.346463 0.177195
H134  H     H_    0.934021 0.468704 0.645005 0.175494
H135  H     H_    0.575764 0.468078 0.258133 0.222979
H136  H     H_    0.994136 0.464234 0.652474 0.170236
H137  H     H_    0.942205 0.531014 0.640034 0.176455
H138  H     H_    0.000916 0.523035 0.649879 0.176990
H139  H     H_    0.962973 0.531140 0.368242 0.175310
H140  H     H_    0.019282 0.535666 0.345904 0.169917
H141  H     H_    0.576153 0.530720 0.259348 0.167249
H142  H     H_    0.571783 0.531934 0.723151 0.223207
H143  H     H_    0.071633 0.969260 0.721480 0.167760
H144  H     H_    0.075757 0.968075 0.258230 0.222982
H145  H     H_    0.076141 0.030716 0.259466 0.167267
H146  H     H_    0.071775 0.031936 0.723131 0.223206
H147  H     H_    0.071654 0.469255 0.221526 0.167742
H148  H     H_    0.558213 0.032110 0.699575 0.191086
H149  H     H_    0.075766 0.468080 0.758097 0.222976
H150  H     H_    0.076159 0.530722 0.759298 0.167239
H151  H     H_    0.071784 0.531933 0.223154 0.223206
H152  H     H_    0.432127 0.974624 0.211101 0.096694
H153  H     H_    0.454119 0.966562 0.817730 0.034910
H154  H     H_    0.443801 0.025529 0.804836 0.096200
H155  H     H_    0.439023 0.033589 0.196009 0.036078
H156  H     H_    0.432009 0.474627 0.711304 0.096699
H157  H     H_    0.453840 0.466558 0.317542 0.034940
H158  H     H_    0.443567 0.525524 0.304590 0.096211
H159  H     H_    0.568057 0.031226 0.286576 0.169256
H160  H     H_    0.438864 0.533591 0.696185 0.036100
H161  H     H_    0.931994 0.974629 0.711322 0.096698
H162  H     H_    0.953759 0.966557 0.317488 0.034949
H163  H     H_    0.943494 0.025521 0.304513 0.096207
H164  H     H_    0.938849 0.033593 0.696194 0.036108
H165  H     H_    0.932014 0.474625 0.211298 0.096700
H166  H     H_    0.953872 0.466560 0.817563 0.034933
H167  H     H_    0.943597 0.525526 0.804624 0.096212
H168  H     H_    0.938867 0.533590 0.196185 0.036095
H169  H     H_    0.016065 0.575685 0.115423 0.164870
H170  H     H_    0.569582 0.467722 0.783571 0.191229
H171  H     H_    0.965356 0.581349 0.153820 0.123160
H172  H     H_    0.976875 0.524530 0.070909 0.227285
H173  H     H_    0.924892 0.527261 0.109490 0.228044
H174  H     H_    0.910105 0.592177 0.081880 0.264970
H175  H     H_    0.910956 0.560028 0.032220 0.270807
H176  H     H_    0.962354 0.589333 0.043014 0.267377
H177  H     H_    0.058920 0.569989 0.820648 0.134716
H178  H     H_    0.071635 0.522649 0.838168 0.190112
H179  H     H_    0.040631 0.585937 0.904888 0.233713
H180  H     H_    0.052276 0.539054 0.923126 0.222422
H181  H     H_    0.556440 0.468614 0.197833 0.169203
H182  H     H_    0.137310 0.544581 0.893947 0.264692
H183  H     H_    0.123079 0.579264 0.938386 0.272534
H184  H     H_    0.125643 0.591769 0.875558 0.270765
H185  H     H_    0.048455 0.424701 0.877136 0.165697
H186  H     H_    0.989682 0.419129 0.852835 0.125184
H187  H     H_    0.022314 0.476497 0.929267 0.228211
H188  H     H_    0.962265 0.473957 0.905079 0.228603
H189  H     H_    0.953961 0.409505 0.936700 0.267516
H190  H     H_    0.968034 0.441934 0.984005 0.267159
H191  H     H_    0.014430 0.411940 0.960858 0.267441
H192  H     H_    0.558445 0.532115 0.199842 0.191083
H193  H     H_    0.039328 0.429956 0.166001 0.134175
H194  H     H_    0.047399 0.477449 0.146602 0.190597
H195  H     H_    0.000347 0.414857 0.088754 0.233038
H196  H     H_    0.006841 0.461986 0.069119 0.222448
H197  H     H_    0.096475 0.456551 0.075381 0.265341
H198  H     H_    0.071452 0.422306 0.035389 0.271512
H199  H     H_    0.090061 0.409106 0.095193 0.270687
H200  H     H_    0.016038 0.075682 0.615419 0.164870
H201  H     H_    0.965333 0.081346 0.653819 0.123154
H202  H     H_    0.976843 0.024526 0.570909 0.227284
H203  H     H_    0.568167 0.531223 0.786369 0.169251
H204  H     H_    0.924861 0.027264 0.609490 0.228051
H205  H     H_    0.910084 0.092180 0.581875 0.264980
H206  H     H_    0.910930 0.060028 0.532217 0.270808
H207  H     H_    0.962332 0.089330 0.543009 0.267368
H208  H     H_    0.058773 0.069996 0.320764 0.134726
H209  H     H_    0.071463 0.022664 0.338338 0.190132
H210  H     H_    0.040299 0.085973 0.404949 0.233707
H211  H     H_    0.051909 0.039098 0.423245 0.222419
H212  H     H_    0.137006 0.044619 0.394254 0.264691
H213  H     H_    0.122673 0.079319 0.438636 0.272530
H214  H     H_    0.069591 0.967719 0.783540 0.191225
H215  H     H_    0.125376 0.091798 0.375805 0.270774
H216  H     H_    0.048252 0.924711 0.377218 0.165700
H217  H     H_    0.989513 0.919138 0.352834 0.125152
H218  H     H_    0.022034 0.976519 0.429297 0.228224
H219  H     H_    0.962017 0.973962 0.405034 0.228607
H220  H     H_    0.953697 0.909514 0.436667 0.267516
H221  H     H_    0.967699 0.941956 0.483979 0.267163
H222  H     H_    0.014134 0.911967 0.460901 0.267442
H223  H     H_    0.039281 0.929952 0.665980 0.134176
H224  H     H_    0.047345 0.977440 0.646559 0.190609
N1    N     N_3   0.419897 0.961560 0.296557 -0.498994
N2    N     N_3   0.909075 0.964469 0.235581 -0.456963
N3    N     N_3   0.910476 0.038409 0.224731 -0.499838
N4    N     N_3   0.916023 0.035498 0.786716 -0.455453
N5    N     N_3   0.920038 0.461559 0.296789 -0.498983
N6    N     N_3   0.909044 0.464464 0.735737 -0.456971
N7    N     N_3   0.910420 0.538405 0.724912 -0.499866
N8    N     N_3   0.916015 0.535502 0.286699 -0.455452
N9    N     N_3   0.493282 0.964133 0.340417 -0.453946
N10   N     N_3   0.460550 0.959620 0.668695 -0.433583
N11   N     N_3   0.470148 0.035768 0.664173 -0.452228
N12   N     N_3   0.408985 0.964463 0.736075 -0.456995
N13   N     N_3   0.482772 0.040274 0.338677 -0.434885
N14   N     N_3   0.493563 0.464135 0.840430 -0.453968
N15   N     N_3   0.460902 0.459618 0.168532 -0.433602
N16   N     N_3   0.470538 0.535763 0.164048 -0.452259
N17   N     N_3   0.483036 0.540275 0.838723 -0.434905
N18   N     N_3   0.993592 0.964137 0.840426 -0.453972
N19   N     N_3   0.961008 0.959614 0.168486 -0.433608
N20   N     N_3   0.970666 0.035759 0.164009 -0.452271
N21   N     N_3   0.983054 0.040276 0.838722 -0.434906
N22   N     N_3   0.993552 0.464133 0.340431 -0.453965
N23   N     N_3   0.410319 0.038405 0.725251 -0.499879
N24   N     N_3   0.960861 0.459619 0.668551 -0.433600
N25   N     N_3   0.970483 0.535766 0.664064 -0.452253
N26   N     N_3   0.983034 0.540273 0.338723 -0.434905
N27   N     N_3   0.415906 0.035503 0.286456 -0.455467
N28   N     N_3   0.420043 0.461558 0.796797 -0.498977
N29   N     N_3   0.409053 0.464466 0.235693 -0.456970
N30   N     N_3   0.410436 0.538407 0.224857 -0.499855
N31   N     N_3   0.416016 0.535500 0.786701 -0.455452
N32   N     N_3   0.920056 0.961556 0.796820 -0.498968
O1    O     O_3   0.499990 0.750000 0.250000 -0.478705
O2    O     O_R   0.527870 0.668020 0.722120 -0.641364
O3    O     O_R   0.972140 0.331980 0.722150 -0.627404
O4    O     O_R   0.972140 0.168020 0.222150 -0.635174
O5    O     O_R   0.972140 0.168020 0.777850 -0.627945
O6    O     O_R   0.972140 0.831980 0.777850 -0.635505
O7    O     O_R   0.972140 0.831980 0.222150 -0.627407
O8    O     O_3   0.006248 0.532453 0.161883 -0.641897
O9    O     O_3   0.999616 0.539844 0.843853 -0.631025
O10   O     O_3   0.027701 0.467626 0.833900 -0.642312
O11   O     O_3   0.976205 0.460289 0.159114 -0.631506
O12   O     O_3   0.006223 0.032449 0.661877 -0.641909
O13   O     O_R   0.527870 0.331980 0.722120 -0.639523
O14   O     O_3   0.999427 0.039847 0.343857 -0.631043
O15   O     O_3   0.027562 0.967633 0.333949 -0.642326
O16   O     O_3   0.976156 0.960288 0.659118 -0.631515
O17   O     O_3   0.506245 0.532451 0.661882 -0.641903
O18   O     O_3   0.499559 0.539845 0.343854 -0.631031
O19   O     O_3   0.527663 0.467629 0.333913 -0.642317
O20   O     O_3   0.476192 0.460288 0.659115 -0.631509
O21   O     O_3   0.506504 0.032452 0.161904 -0.641894
O22   O     O_3   0.499973 0.039844 0.843849 -0.631009
O23   O     O_3   0.528007 0.967625 0.833795 -0.642311
O24   O     O_R   0.527870 0.331980 0.277880 -0.642795
O25   O     O_3   0.476472 0.960288 0.159049 -0.631504
O26   O     O_R   0.527870 0.168020 0.777880 -0.638804
O27   O     O_R   0.527870 0.168020 0.222120 -0.641380
O28   O     O_R   0.527870 0.831980 0.222120 -0.639518
O29   O     O_R   0.527870 0.831980 0.777880 -0.642816
O30   O     O_R   0.027870 0.668020 0.777880 -0.638821
O31   O     O_R   0.027870 0.668020 0.222120 -0.641363
O32   O     O_R   0.027870 0.331980 0.222120 -0.639523
O33   O     O_3   0.499990 0.750000 0.750000 -0.479103
O34   O     O_R   0.027870 0.331980 0.777880 -0.642796
O35   O     O_R   0.027870 0.168020 0.277880 -0.638832
O36   O     O_R   0.027870 0.168020 0.722120 -0.641365
O37   O     O_R   0.027870 0.831980 0.722120 -0.639526
O38   O     O_R   0.027870 0.831980 0.277880 -0.642788
O39   O     O_R   0.472130 0.728510 0.143730 -0.633775
O40   O     O_R   0.472130 0.728510 0.856270 -0.632408
O41   O     O_R   0.472130 0.271490 0.856270 -0.634078
O42   O     O_R   0.472130 0.271490 0.143730 -0.632914
O43   O     O_R   0.472130 0.228510 0.643730 -0.633771
O44   O     O_3   0.499990 0.250000 0.750000 -0.478707
O45   O     O_R   0.472130 0.228510 0.356270 -0.632413
O46   O     O_R   0.472130 0.771490 0.356270 -0.634073
O47   O     O_R   0.472130 0.771490 0.643730 -0.632921
O48   O     O_R   0.972130 0.728510 0.643730 -0.633772
O49   O     O_R   0.972130 0.728510 0.356270 -0.632410
O50   O     O_R   0.972130 0.271490 0.356270 -0.634075
O51   O     O_R   0.972130 0.271490 0.643730 -0.632915
O52   O     O_R   0.972130 0.228510 0.143730 -0.633775
O53   O     O_R   0.972130 0.228510 0.856270 -0.632410
O54   O     O_R   0.972130 0.771490 0.856270 -0.634077
O55   O     O_3   0.499990 0.250000 0.250000 -0.479105
O56   O     O_R   0.972130 0.771490 0.143730 -0.632913
O57   O     O_R   0.393720 0.728520 0.222140 -0.634452
O58   O     O_R   0.393720 0.728520 0.777860 -0.634204
O59   O     O_R   0.393720 0.271480 0.777860 -0.634197
O60   O     O_R   0.393720 0.271480 0.222140 -0.633813
O61   O     O_R   0.393720 0.228520 0.722140 -0.634454
O62   O     O_R   0.393720 0.228520 0.277860 -0.634199
O63   O     O_R   0.393720 0.771480 0.277860 -0.634201
O64   O     O_R   0.393720 0.771480 0.722140 -0.633807
O65   O     O_R   0.893720 0.728520 0.722140 -0.634454
O66   O     O_3   0.999990 0.750000 0.750000 -0.478705
O67   O     O_R   0.893720 0.728520 0.277860 -0.634204
O68   O     O_R   0.893720 0.271480 0.277860 -0.634198
O69   O     O_R   0.893720 0.271480 0.722140 -0.633811
O70   O     O_R   0.893720 0.228520 0.222140 -0.634453
O71   O     O_R   0.893720 0.228520 0.777860 -0.634204
O72   O     O_R   0.893720 0.771480 0.777860 -0.634198
O73   O     O_R   0.893720 0.771480 0.222140 -0.633814
O74   O     O_R   0.606280 0.728500 0.277860 -0.635243
O75   O     O_R   0.606280 0.728500 0.722140 -0.633826
O76   O     O_R   0.606280 0.271500 0.722140 -0.634974
O77   O     O_3   0.999990 0.750000 0.250000 -0.479107
O78   O     O_R   0.606280 0.271500 0.277860 -0.634079
O79   O     O_R   0.606280 0.228500 0.777860 -0.635248
O80   O     O_R   0.606280 0.228500 0.222140 -0.633830
O81   O     O_R   0.606280 0.771500 0.222140 -0.634980
O82   O     O_R   0.606280 0.771500 0.777860 -0.634087
O83   O     O_R   0.106280 0.728500 0.777860 -0.635244
O84   O     O_R   0.106280 0.728500 0.222140 -0.633826
O85   O     O_R   0.106280 0.271500 0.222140 -0.634975
O86   O     O_R   0.106280 0.271500 0.777860 -0.634079
O87   O     O_R   0.106280 0.228500 0.277860 -0.635244
O88   O     O_3   0.999990 0.250000 0.250000 -0.478704
O89   O     O_R   0.106280 0.228500 0.722140 -0.633828
O90   O     O_R   0.106280 0.771500 0.722140 -0.634974
O91   O     O_R   0.106280 0.771500 0.277860 -0.634079
O92   O     O_R   0.527850 0.771500 0.143710 -0.634774
O93   O     O_R   0.527850 0.771500 0.856290 -0.636704
O94   O     O_R   0.527850 0.228500 0.856290 -0.634353
O95   O     O_R   0.527850 0.228500 0.143710 -0.636422
O96   O     O_R   0.527850 0.271500 0.643710 -0.634781
O97   O     O_R   0.527850 0.271500 0.356290 -0.636702
O98   O     O_R   0.527850 0.728500 0.356290 -0.634360
O99   O     O_3   0.999990 0.250000 0.750000 -0.479105
O100  O     O_R   0.527850 0.728500 0.643710 -0.636417
O101  O     O_R   0.027850 0.771500 0.643710 -0.634782
O102  O     O_R   0.027850 0.771500 0.356290 -0.636702
O103  O     O_R   0.027850 0.228500 0.356290 -0.634363
O104  O     O_R   0.027850 0.228500 0.643710 -0.636419
O105  O     O_R   0.027850 0.271500 0.143710 -0.634779
O106  O     O_R   0.027850 0.271500 0.856290 -0.636702
O107  O     O_R   0.027850 0.728500 0.856290 -0.634358
O108  O     O_R   0.027850 0.728500 0.143710 -0.636418
O109  O     O_R   0.472140 0.668020 0.222150 -0.635171
O110  O     O_R   0.527870 0.668020 0.277880 -0.638824
O111  O     O_R   0.472140 0.668020 0.777850 -0.627945
O112  O     O_R   0.472140 0.331980 0.777850 -0.635504
O113  O     O_R   0.472140 0.331980 0.222150 -0.627405
O114  O     O_R   0.472140 0.168020 0.722150 -0.635165
O115  O     O_R   0.472140 0.168020 0.277850 -0.627934
O116  O     O_R   0.472140 0.831980 0.277850 -0.635503
O117  O     O_R   0.472140 0.831980 0.722150 -0.627400
O118  O     O_R   0.972140 0.668020 0.722150 -0.635171
O119  O     O_R   0.972140 0.668020 0.277850 -0.627945
O120  O     O_R   0.972140 0.331980 0.277850 -0.635505
Zn1   Zn    Zn3+2 0.539790 0.780710 0.210180 0.978143
Zn2   Zn    Zn3+2 0.039790 0.780710 0.289820 0.975359
Zn3   Zn    Zn3+2 0.039790 0.219290 0.289820 0.978396
Zn4   Zn    Zn3+2 0.039790 0.219290 0.710180 0.976088
Zn5   Zn    Zn3+2 0.039790 0.280710 0.210180 0.978144
Zn6   Zn    Zn3+2 0.039790 0.280710 0.789820 0.975354
Zn7   Zn    Zn3+2 0.039790 0.719290 0.789820 0.978403
Zn8   Zn    Zn3+2 0.039790 0.719290 0.210180 0.976092
Zn9   Zn    Zn3+2 0.460190 0.719300 0.210200 0.982008
Zn10  Zn    Zn3+2 0.460190 0.719300 0.789800 0.984057
Zn11  Zn    Zn3+2 0.460190 0.280700 0.789800 0.982081
Zn12  Zn    Zn3+2 0.539790 0.780710 0.789820 0.975340
Zn13  Zn    Zn3+2 0.460190 0.280700 0.210200 0.984066
Zn14  Zn    Zn3+2 0.460190 0.219300 0.710200 0.982006
Zn15  Zn    Zn3+2 0.460190 0.219300 0.289800 0.984058
Zn16  Zn    Zn3+2 0.460190 0.780700 0.289800 0.982080
Zn17  Zn    Zn3+2 0.460190 0.780700 0.710200 0.984067
Zn18  Zn    Zn3+2 0.960190 0.719300 0.710200 0.982007
Zn19  Zn    Zn3+2 0.960190 0.719300 0.289800 0.984049
Zn20  Zn    Zn3+2 0.960190 0.280700 0.289800 0.982083
Zn21  Zn    Zn3+2 0.960190 0.280700 0.710200 0.984063
Zn22  Zn    Zn3+2 0.960190 0.219300 0.210200 0.982006
Zn23  Zn    Zn3+2 0.539790 0.219290 0.789820 0.978407
Zn24  Zn    Zn3+2 0.960190 0.219300 0.789800 0.984050
Zn25  Zn    Zn3+2 0.960190 0.780700 0.789800 0.982081
Zn26  Zn    Zn3+2 0.960190 0.780700 0.210200 0.984060
Zn27  Zn    Zn3+2 0.539790 0.219290 0.210180 0.976079
Zn28  Zn    Zn3+2 0.539790 0.280710 0.710180 0.978139
Zn29  Zn    Zn3+2 0.539790 0.280710 0.289820 0.975354
Zn30  Zn    Zn3+2 0.539790 0.719290 0.289820 0.978398
Zn31  Zn    Zn3+2 0.539790 0.719290 0.710180 0.976088
Zn32  Zn    Zn3+2 0.039790 0.780710 0.710180 0.978139

loop_
_geom_bond_atom_site_label_1
_geom_bond_atom_site_label_2
_ccdc_geom_bond_type
C44   O49   A    
C115  H161  S    
C8    C26   T    
C73   C82   T    
C19   C20   S    
C74   C83   T    
O103  Zn3   S    
C178  H146  S    
C165  H44   S    
C163  H40   S    
C15   C32   T    
H88   N32   S    
C128  H179  S    
C63   O79   A    
C113  H159  S    
C34   O92   A    
C114  H160  S    
C159  H29   S    
H89   N2    S    
C79   H79   S    
C38   O42   A    
C155  H22   S    
O1    Zn9   S    
O4    Zn22  S    
C156  H25   S    
H104  N8    S    
O29   Zn12  S    
C106  C107  S    
C135  H181  S    
C56   O65   A    
H116  N14   S    
C171  H56   S    
C167  H50   S    
C147  H223  S    
C51   O56   A    
C213  O27   A    
C110  C111  S    
C220  N7    S    
C36   O93   A    
H97   N5    S    
O33   Zn17  S    
C51   O108  A    
C79   C201  S    
C246  O118  A    
C227  N32   S    
O1    Zn16  S    
C16   C44   S    
C88   C97   T    
C180  C196  S    
H94   N4    S    
C125  C126  S    
C137  C138  S    
C190  C243  T    
O113  Zn13  S    
C21   C22   S    
C222  N22   S    
C188  C241  T    
C65   O90   A    
C145  H220  S    
C137  H201  S    
C148  H4    S    
C149  H5    S    
C140  O14   S    
O61   Zn14  S    
O64   Zn17  S    
O96   Zn28  S    
C191  O24   A    
O70   Zn22  S    
C172  H59   S    
C34   O39   A    
C173  H62   S    
C140  C141  S    
C57   C192  S    
O90   Zn32  S    
C232  N27   S    
C144  C145  S    
O5    Zn24  S    
C106  O23   S    
C171  H58   S    
C141  H210  S    
C82   C91   S    
O81   Zn1   S    
C229  N16   S    
O43   Zn14  S    
C129  H182  S    
C229  C230  S    
C11   C49   S    
C199  C235  S    
C166  H48   S    
O34   Zn6   S    
C115  C118  S    
O59   Zn11  S    
C227  N18   S    
C159  H28   S    
H140  N26   S    
O1    Zn30  S    
C123  H169  S    
C150  H9    S    
C154  C155  S    
H120  N16   S    
H114  N13   S    
C160  O20   S    
C212  C225  S    
C158  C159  S    
C137  O12   S    
C118  O12   S    
H139  N26   S    
C173  O25   S    
O82   Zn12  S    
C8    C50   S    
H99   N6    S    
H75   N23   S    
C177  C212  S    
C168  H143  S    
O2    Zn31  S    
C125  H172  S    
C141  H211  S    
C28   C29   S    
C156  O19   S    
C115  C210  S    
C206  C231  S    
H105  N9    S    
O99   Zn21  S    
C117  C212  S    
C35   O35   A    
C228  N17   S    
O77   Zn19  S    
C155  H20   S    
O110  Zn30  S    
C68   O38   A    
H115  N14   S    
C105  O25   S    
O116  Zn16  S    
C64   O78   A    
C170  H55   S    
C67   O87   A    
C131  H188  S    
C156  C158  S    
C130  C131  S    
C80   C88   S    
C61   O81   A    
C220  N25   S    
H74   N23   S    
C231  N28   S    
C181  C216  S    
C84   C93   S    
C37   O41   A    
C121  H167  S    
C24   O34   A    
C57   O6    A    
C65   O83   A    
C86   C95   S    
C186  C239  T    
C202  O114  A    
C158  H26   S    
O76   Zn28  S    
C121  O9    S    
H126  N19   S    
C223  N4    S    
C153  H17   S    
C145  H222  S    
O102  Zn2   S    
H76   N27   S    
C76   C85   T    
C149  H7    S    
C228  C231  S    
C69   O86   A    
C108  O21   S    
C58   O73   A    
O71   Zn24  S    
C78   C87   S    
C157  C209  S    
C13   C187  S    
H106  N9    S    
C172  H61   S    
C143  H217  S    
C228  N31   S    
C69   C77   S    
C147  C148  S    
O3    Zn21  S    
H70   N1    S    
C14   C31   T    
C176  H144  S    
C128  C129  S    
C187  C240  T    
C166  H47   S    
C167  C169  S    
C152  H12   S    
C233  N11   S    
C132  H191  S    
C136  H197  S    
C50   O54   A    
C197  C250  T    
O57   Zn9   S    
C134  H195  S    
C129  H184  S    
C116  C211  S    
C53   O64   A    
C223  C227  S    
C75   C84   T    
C63   O76   A    
O72   Zn25  S    
C232  C236  S    
C126  H176  S    
O66   Zn7   S    
C202  O26   A    
C105  H152  S    
H95   N4    S    
O88   Zn20  S    
O66   Zn25  S    
C101  H101  S    
C205  C250  S    
H131  N21   S    
C106  C203  S    
O55   Zn27  S    
C35   O4    A    
C169  H51   S    
O80   Zn27  S    
O79   Zn23  S    
C185  C238  T    
C56   O72   A    
C182  H57   S    
C198  C202  S    
C64   C73   S    
C130  H186  S    
C110  C207  S    
H77   N27   S    
C209  C228  S    
C142  H212  S    
O67   Zn19  S    
C233  C234  S    
C179  H147  S    
C42   O47   A    
C111  C208  S    
C183  H68   S    
C62   O82   A    
C177  H145  S    
O95   Zn27  S    
C55   O60   A    
C144  H218  S    
H71   N1    S    
C226  N19   S    
C56   C97   S    
C198  C251  T    
H134  N24   S    
C220  C221  S    
O99   Zn6   S    
O51   Zn21  S    
O100  Zn31  S    
O44   Zn14  S    
C17   C254  T    
C67   O85   A    
C246  O30   A    
C110  O19   S    
C79   H1    S    
C122  H168  S    
C203  C234  S    
O33   Zn31  S    
C111  O18   S    
C175  H69   S    
C201  C236  S    
C191  C195  S    
H86   N31   S    
O91   Zn2   S    
C68   O7    A    
O52   Zn22  S    
C65   C74   S    
H72   N12   S    
C114  O17   S    
C143  H216  S    
C113  C205  S    
O32   Zn5   S    
C161  H33   S    
C101  H148  S    
C183  H151  S    
O88   Zn5   S    
C1    O110  A    
C151  H10   S    
C105  C201  S    
C90   H112  S    
C41   O46   A    
C17   C18   S    
C120  H166  S    
C117  H163  S    
C118  H164  S    
C164  H41   S    
O77   Zn8   S    
C109  C114  S    
C143  O15   S    
O33   Zn12  S    
C116  H162  S    
H87   N32   S    
C79   C113  S    
H84   N30   S    
O26   Zn23  S    
C120  C121  S    
C135  C207  S    
H103  N8    S    
C224  O116  A    
C136  H199  S    
C47   O104  A    
C112  O2    A    
C138  H204  S    
C235  O117  A    
C222  N5    S    
O83   Zn7   S    
C133  H194  S    
C177  H13   S    
C165  H43   S    
C163  H39   S    
C53   O58   A    
C49   O106  A    
O104  Zn4   S    
C54   O61   A    
C116  O15   S    
H133  N22   S    
C126  H174  S    
C89   C98   T    
C160  H31   S    
O63   Zn16  S    
O35   Zn3   S    
C15   C43   S    
C182  H150  S    
C219  C222  S    
C169  H53   S    
C50   O107  A    
O115  Zn15  S    
C42   C255  S    
O44   Zn23  S    
O55   Zn15  S    
C63   C72   S    
C167  H49   S    
C62   C71   S    
H123  N18   S    
O1    Zn1   S    
C52   O57   A    
C59   O70   A    
O46   Zn16  S    
C58   O67   A    
C140  H208  S    
C182  C217  S    
O27   Zn27  S    
C179  C215  S    
O97   Zn29  S    
C115  O16   S    
C91   C99   T    
O106  Zn6   S    
O73   Zn26  S    
O78   Zn29  S    
C150  H8    S    
C185  C246  S    
C61   C70   S    
O33   Zn10  S    
C147  O16   S    
C139  H206  S    
H78   N28   S    
C7    C36   S    
C13   O32   A    
C9    C51   S    
C137  H200  S    
C123  O8    S    
H138  N25   S    
C161  C162  S    
C181  C182  S    
C217  C220  S    
H121  N17   S    
C52   C102  S    
C26   C27   S    
H111  N13   S    
C110  H157  S    
C172  H60   S    
C114  C209  S    
C54   C104  S    
C164  C165  S    
O36   Zn4   S    
C162  H36   S    
C204  C251  S    
C30   C31   S    
O50   Zn20  S    
H119  N16   S    
C123  C125  S    
O86   Zn6   S    
C152  H15   S    
O69   Zn21  S    
C132  H190  S    
C24   C186  S    
C154  H18   S    
C216  C221  S    
H73   N12   S    
O77   Zn2   S    
C45   O103  A    
H98   N6    S    
C127  H178  S    
C211  C226  S    
C38   O95   A    
C151  C152  S    
H82   N29   S    
C135  H135  S    
C162  H37   S    
C139  H205  S    
C43   O48   A    
C72   C81   T    
C208  C229  S    
O7    Zn26  S    
C81   C89   S    
C119  O11   S    
C35   C189  S    
C5    C38   S    
C138  H202  S    
C122  O8    S    
C224  O28   A    
C121  C217  S    
C69   O89   A    
C235  O29   A    
H122  N17   S    
C54   O59   A    
C53   C100  S    
C101  C204  S    
H108  N10   S    
H85   N31   S    
C107  H154  S    
C178  C214  S    
H83   N30   S    
C159  H30   S    
C211  C243  S    
O99   Zn24  S    
C36   O40   A    
C57   O37   A    
C146  C208  S    
O41   Zn11  S    
O6    Zn25  S    
C236  N9    S    
C39   O43   A    
C39   C256  S    
C234  N10   S    
O55   Zn13  S    
C107  O22   S    
C52   O63   A    
C147  H224  S    
C6    C34   S    
C2    O31   A    
C130  O10   S    
C43   O101  A    
C204  C233  S    
C170  O23   S    
C168  C210  S    
C59   O68   A    
C175  H66   S    
C68   C190  S    
C219  N8    S    
C230  N29   S    
C124  C157  S    
C117  O14   S    
C124  H170  S    
C3    C20   T    
C118  C214  S    
C2    C184  S    
H96   N5    S    
C46   O5    A    
C24   O3    A    
O38   Zn2   S    
C156  H23   S    
C128  H180  S    
O65   Zn18  S    
C151  H11   S    
C158  H27   S    
C111  H158  S    
C3    C40   S    
C194  C247  T    
O42   Zn13  S    
H91   N2    S    
C10   C48   S    
C133  C134  S    
H128  N20   S    
O68   Zn20  S    
C153  H16   S    
C145  H221  S    
C148  H3    S    
C131  C132  S    
C215  C222  S    
C209  C245  S    
C149  H6    S    
C13   O120  A    
C197  C213  S    
H110  N11   S    
C9    C27   T    
C90   C203  S    
O98   Zn30  S    
C10   C28   T    
O105  Zn5   S    
C176  H2    S    
C109  H156  S    
O40   Zn10  S    
O30   Zn7   S    
C12   C30   T    
C173  H63   S    
C174  H64   S    
C108  C205  S    
C226  N2    S    
C93   C102  T    
C2    O119  A    
C207  C230  S    
C66   O91   A    
H129  N20   S    
C18   C255  T    
C123  H171  S    
C195  C248  T    
C119  H165  S    
O101  Zn32  S    
C136  H198  S    
C7    C25   T    
C176  C211  S    
O48   Zn18  S    
O119  Zn19  S    
C32   C33   S    
O53   Zn24  S    
C134  H196  S    
C1    C194  S    
C129  H183  S    
O107  Zn7   S    
C230  N15   S    
C60   O69   A    
O58   Zn10  S    
C201  C253  S    
C66   C75   S    
C132  H189  S    
C37   O94   A    
C133  O11   S    
C113  H113  S    
O112  Zn11  S    
O56   Zn26  S    
C39   O96   A    
C120  O10   S    
C138  C139  S    
C66   O84   A    
C19   C256  T    
C4    C37   S    
H117  N15   S    
C155  H21   S    
C170  C171  S    
C60   C98   S    
C189  C242  T    
C193  C245  T    
C41   O98   A    
C233  N23   S    
C215  C240  S    
C163  O21   S    
C218  C237  S    
O118  Zn18  S    
O60   Zn13  S    
C131  H187  S    
O84   Zn8   S    
C171  C172  S    
C119  C215  S    
C192  C244  T    
C70   C78   T    
C59   C99   S    
C210  C227  S    
O85   Zn5   S    
C163  C164  S    
C106  H153  S    
C146  H192  S    
C207  C248  S    
C236  N1    S    
C46   O36   A    
C173  C174  S    
C170  H54   S    
O44   Zn11  S    
C181  H149  S    
C83   C92   S    
C139  H207  S    
H80   N28   S    
C214  C241  S    
O94   Zn23  S    
C143  C144  S    
C42   O100  A    
C232  N13   S    
O99   Zn4   S    
C49   O53   A    
C55   O62   A    
C55   C103  S    
C213  O115  A    
C116  C117  S    
H136  N24   S    
C206  C249  S    
C58   C96   S    
C47   O51   A    
C212  C242  S    
O111  Zn10  S    
C1    O109  A    
C174  C175  S    
C141  C142  S    
C153  O18   S    
C5    C22   T    
H92   N3    S    
C152  H14   S    
C196  C249  T    
C181  H46   S    
C234  N12   S    
C179  H35   S    
C229  N30   S    
O120  Zn20  S    
O93   Zn12  S    
C164  H42   S    
C200  C253  T    
C112  O111  A    
C135  C146  S    
C64   O80   A    
C125  H173  S    
C127  O9    S    
C154  H19   S    
C108  H155  S    
O31   Zn8   S    
O88   Zn3   S    
O88   Zn22  S    
C71   C80   T    
C225  N3    S    
H130  N21   S    
O55   Zn29  S    
C179  C183  S    
C40   O45   A    
C105  C108  S    
O45   Zn15  S    
C109  O20   S    
C200  C224  S    
H127  N19   S    
C148  C149  S    
C142  H213  S    
C133  H193  S    
C214  C223  S    
O75   Zn31  S    
C40   O97   A    
C44   O102  A    
O28   Zn1   S    
C134  C136  S    
O39   Zn9   S    
C60   O71   A    
C41   C254  S    
C166  O22   S    
C146  H141  S    
C126  H175  S    
C160  H32   S    
C184  C237  T    
O62   Zn15  S    
C90   C101  S    
O66   Zn32  S    
C16   C33   T    
C85   C94   S    
H93   N3    S    
C169  H52   S    
C48   O105  A    
O66   Zn18  S    
C150  O17   S    
C225  N20   S    
C87   C96   T    
O47   Zn17  S    
C225  C226  S    
O114  Zn14  S    
C130  H185  S    
H125  N18   S    
C124  H124  S    
C223  N21   S    
C199  C252  T    
C144  H219  S    
C231  N14   S    
H109  N11   S    
C175  H67   S    
C176  C177  S    
C221  N24   S    
H107  N10   S    
C77   C86   T    
C183  C218  S    
O54   Zn25  S    
O109  Zn9   S    
C166  C167  S    
C62   O75   A    
C90   H90   S    
C157  H142  S    
O37   Zn32  S    
C191  O113  A    
C95   C104  T    
C92   C100  T    
C174  H65   S    
C119  C122  S    
C168  H214  S    
C140  H209  S    
H118  N15   S    
C122  C218  S    
C124  C206  S    
C150  C151  S    
C216  C239  S    
O108  Zn8   S    
H100  N7    S    
O117  Zn17  S    
C12   C45   S    
C219  N26   S    
C221  N6    S    
C142  H215  S    
H137  N25   S    
C14   C47   S    
C157  H203  S    
O89   Zn4   S    
C61   O74   A    
C120  C216  S    
C94   C103  T    
C180  O13   A    
H81   N29   S    
C160  C161  S    
C161  H34   S    
C208  C247  S    
C210  C244  S    
C107  C204  S    
O92   Zn1   S    
O87   Zn3   S    
C4    C21   T    
H132  N22   S    
C218  C219  S    
H102  N7    S    
C45   O50   A    
C168  C178  S    
C6    C23   T    
C217  C238  S    
O44   Zn28  S    
C23   C25   S    
C109  C206  S    
C112  C193  S    
O24   Zn29  S    
C180  O112  A    
C165  H45   S    
C203  C252  S    
C127  H177  S    
C178  H24   S    
C48   O52   A    
C11   C29   T    
O74   Zn30  S    
C205  C232  S    
C67   C76   S    
O13   Zn28  S    
C46   C188  S    
C153  C154  S    
C162  H38   S    
O77   Zn26  S    
O49   Zn19  S    
C127  C128  S    
