data_mof_unit_54109.cif
_audit_creation_date              2012-12-11T14:45:55-0500
_audit_creation_method            fapswitch 2.2
_symmetry_space_group_name_H-M    P1
_symmetry_Int_Tables_number       1
_space_group_crystal_system       triclinic
_cell_length_a                    10.926984
_cell_length_b                    10.99833
_cell_length_c                    18.839154
_cell_angle_alpha                 89.653633
_cell_angle_beta                  89.881085
_cell_angle_gamma                 119.820865
_cell_volume                      1964.19592828

loop_
_atom_site_label
_atom_site_type_symbol
_atom_type_description
_atom_site_fract_x
_atom_site_fract_y
_atom_site_fract_z
_atom_type_partial_charge
C1    C     C_R   0.868568 0.633860 0.605711 0.541647
C2    C     C_R   0.463716 0.706079 0.773714 0.128660
C3    C     C_R   0.434895 0.686390 0.701470 0.081722
C4    C     C_R   0.303046 0.659223 0.678136 0.038524
C5    C     C_R   0.795254 0.091773 0.810433 -0.022667
C6    C     C_R   0.056463 0.202646 0.816504 -0.106478
C7    C     C_R   0.184377 0.236725 0.784237 -0.138179
C8    C     C_R   0.187735 0.204139 0.713497 -0.044509
C9    C     C_R   0.065505 0.148760 0.672531 0.134062
C10   C     C_R   0.938377 0.132798 0.702946 0.018108
C11   C     C_R   0.929111 0.139446 0.777616 -0.022378
C12   C     C_R   0.264374 0.628612 0.604861 0.539848
C13   C     C_R   0.690385 0.067873 0.692252 -0.013817
C14   C     C_R   0.675305 0.062992 0.766764 -0.023671
C15   C     C_R   0.571586 0.030449 0.648678 -0.101734
C16   C     C_R   0.448400 0.019866 0.676143 0.137505
C17   C     C_R   0.431914 0.020552 0.749223 0.138632
C18   C     C_R   0.541272 0.035457 0.793732 -0.104987
C19   C     C_R   0.825498 0.122053 0.661550 -0.033364
C20   C     C_R   0.753366 0.520459 0.720773 -0.135544
C21   C     C_R   0.748480 0.529486 0.794678 -0.161840
C22   C     C_R   0.827260 0.660503 0.826766 0.020786
C23   C     C_R   0.857754 0.216413 0.598904 0.529594
C24   C     C_R   0.916255 0.778879 0.784938 -0.148777
C25   C     C_R   0.917481 0.770439 0.712782 -0.147068
C26   C     C_R   0.836949 0.642328 0.679699 0.032638
C27   C     C_R   0.222182 0.550466 0.275721 -0.154240
C28   C     C_R   0.243316 0.568821 0.203061 0.056472
C29   C     C_R   0.351183 0.696199 0.176853 0.038165
C30   C     C_R   0.433780 0.807035 0.223201 -0.161125
C31   C     C_R   0.412259 0.788827 0.296590 0.055933
C32   C     C_R   0.307522 0.658781 0.322331 0.041729
C33   C     C_R   0.776089 0.241768 0.274066 0.061308
C34   C     C_R   0.868322 0.639997 0.396943 0.582494
C35   C     C_R   0.777391 0.224346 0.201999 -0.153748
C36   C     C_R   0.846436 0.158937 0.173472 -0.002774
C37   C     C_R   0.925433 0.119806 0.217187 -0.159603
C38   C     C_R   0.930821 0.143293 0.289933 -0.184195
C39   C     C_R   0.853164 0.200940 0.319062 0.051053
C40   C     C_R   0.961155 0.726787 0.276920 0.054128
C41   C     C_R   0.941042 0.718704 0.204923 -0.148674
C42   C     C_R   0.806508 0.660817 0.177607 -0.018348
C43   C     C_R   0.688075 0.605459 0.222908 -0.144082
C44   C     C_R   0.705412 0.605077 0.296539 0.038291
C45   C     C_R   0.270817 0.633288 0.396512 0.569405
C46   C     C_R   0.842895 0.661374 0.323439 0.088867
C47   C     C_R   0.773430 0.051540 0.887105 0.567259
C48   C     C_R   0.393321 0.700864 0.897265 0.563389
C49   C     C_R   0.800680 0.689724 0.898811 0.553523
C50   C     C_R   0.807558 0.104950 0.102545 0.560129
C51   C     C_R   0.398200 0.706174 0.104224 0.580951
C52   C     C_R   0.795414 0.695330 0.105084 0.547932
C53   C     C_R   0.864446 0.235838 0.393918 0.555020
C54   C     C_R   0.200580 0.650923 0.726395 -0.140979
C55   C     C_R   0.228696 0.666938 0.798787 -0.197961
C56   C     C_R   0.360060 0.693032 0.822403 0.047494
Cr1   Cr    Cr6+3 0.791660 0.390250 0.499930 1.040951
Cr2   Cr    Cr6+3 0.098520 0.708290 0.500540 1.040734
Cr3   Cr    Cr6+3 0.109770 0.401430 0.499480 0.998638
Cr4   Cr    Cr6+3 0.874790 0.925890 0.000070 1.014337
Cr5   Cr    Cr6+3 0.574120 0.948670 0.999300 1.001379
Cr6   Cr    Cr6+3 0.551420 0.625320 0.000920 1.028076
H1    H     H_    0.678842 0.437496 0.825855 0.127827
H2    H     H_    0.979055 0.882607 0.807026 0.163397
H3    H     H_    0.986135 0.864531 0.683043 0.186429
H4    H     H_    0.137287 0.451801 0.295847 0.146096
H5    H     H_    0.148289 0.656800 0.835941 0.119415
H6    H     H_    0.583488 0.567260 0.201325 0.145763
H7    H     H_    0.516516 0.031455 0.848631 0.172312
O1    O     O_R   0.766500 0.250040 0.579790 -0.526966
O2    O     O_R   0.218690 0.701900 0.425960 -0.457242
O3    O     O_R   0.249490 0.516440 0.419420 -0.534023
O4    O     O_R   0.982880 0.281910 0.424890 -0.524231
O5    O     O_3   0.999980 0.499990 0.499980 -0.263175
O6    O     O_R   0.895110 0.806860 0.920430 -0.531966
O7    O     O_R   0.872260 0.046970 0.925000 -0.505069
O8    O     O_R   0.691430 0.085060 0.918550 -0.536628
O9    O     O_R   0.451490 0.822460 0.925250 -0.526884
O10   O     O_R   0.413330 0.603360 0.920440 -0.497011
O11   O     O_R   0.676110 0.626250 0.926750 -0.485596
O12   O     O_R   0.798570 0.516780 0.574780 -0.510935
O13   O     O_R   0.895350 0.809870 0.080950 -0.524433
O14   O     O_R   0.872490 0.049760 0.073800 -0.499398
O15   O     O_R   0.691680 0.088070 0.079070 -0.524952
O16   O     O_R   0.451720 0.825250 0.074050 -0.520069
O17   O     O_R   0.413580 0.606370 0.080960 -0.491425
O18   O     O_R   0.676340 0.629040 0.075550 -0.510981
O19   O     O_3   0.666780 0.833290 0.000090 -0.258993
O20   O     O_R   0.984000 0.732950 0.581090 -0.513449
O21   O     O_R   0.218600 0.700890 0.574760 -0.520962
O22   O     O_R   0.249390 0.515350 0.579940 -0.521820
O23   O     O_R   0.982790 0.280900 0.573700 -0.502721
O24   O     O_R   0.766600 0.251130 0.419260 -0.470046
O25   O     O_R   0.798660 0.517790 0.425980 -0.461938
O26   O     O_R   0.984100 0.734040 0.420570 -0.486607
H8    H     H_    0.097358 0.627627 0.708053 0.141969
N1    N     N_3   0.344662 0.019891 0.629810 -0.590740
H9    H     H_    0.323716 0.947825 0.589548 0.253351
H10   H     H_    0.390091 0.118398 0.605214 0.216445
H11   H     H_    0.577598 0.019524 0.591844 0.124045
N2    N     N_3   0.304850 0.009848 0.777911 -0.622027
H12   H     H_    0.306534 0.010717 0.833380 0.208806
H13   H     H_    0.220617 0.912942 0.763170 0.253829
H14   H     H_    0.694056 0.418791 0.696087 0.147812
N3    N     N_3   0.155759 0.458580 0.155637 -0.610534
H15   H     H_    0.161940 0.369646 0.169485 0.240825
H16   H     H_    0.052114 0.436918 0.163145 0.233400
H17   H     H_    0.519316 0.904778 0.202548 0.140506
N4    N     N_3   0.495568 0.899769 0.344913 -0.607500
H18   H     H_    0.564157 0.873553 0.370559 0.216177
H19   H     H_    0.558036 0.992488 0.316785 0.243841
N5    N     N_3   0.695748 0.301994 0.300627 -0.557384
H20   H     H_    0.589881 0.235541 0.287742 0.228915
H21   H     H_    0.729874 0.394845 0.272466 0.236464
H22   H     H_    0.716800 0.255647 0.168644 0.136078
H23   H     H_    0.978055 0.066583 0.195729 0.146006
H24   H     H_    0.992351 0.113733 0.323469 0.130323
N6    N     N_3   0.103225 0.805086 0.301977 -0.563293
H25   H     H_    0.140984 0.910580 0.289301 0.224471
H26   H     H_    0.163945 0.773689 0.273194 0.235103
H27   H     H_    0.032758 0.767138 0.170187 0.137942
N7    N     N_3   0.585597 0.546214 0.343629 -0.602410
H28   H     H_    0.590425 0.628438 0.373360 0.222300
H29   H     H_    0.491934 0.504176 0.314667 0.235280
N8    N     N_3   0.595593 0.728535 0.798889 -0.587619
H30   H     H_    0.595740 0.637404 0.785251 0.258660
H31   H     H_    0.676148 0.811654 0.770435 0.243367
N9    N     N_3   0.540066 0.693045 0.653202 -0.651999
H32   H     H_    0.557779 0.766844 0.613474 0.223336
H33   H     H_    0.501812 0.595060 0.629623 0.248894
H34   H     H_    0.280675 0.284591 0.814861 0.131906
H35   H     H_    0.286023 0.221763 0.690369 0.155023
H36   H     H_    0.060813 0.233809 0.871053 0.154674
N10   N     N_3   0.069975 0.094623 0.603799 -0.618691
H37   H     H_    0.970000 0.041166 0.580902 0.231091
H38   H     H_    0.137531 0.177794 0.570594 0.249010

loop_
_geom_bond_atom_site_label_1
_geom_bond_atom_site_label_2
_ccdc_geom_bond_type
C40   N6    S    
C55   C56   A    
N2    H12   S    
C45   O2    A    
C41   C42   A    
C14   C18   A    
C12   O22   A    
C41   H27   S    
C35   C36   A    
C15   H11   S    
Cr2   O26   S    
N9    H32   S    
C51   O16   A    
N5    H21   S    
N1    H9    S    
Cr4   O19   S    
C50   O15   A    
C7    C8    A    
C37   H23   S    
C40   C46   A    
N3    H16   S    
Cr2   O5    S    
C33   C39   A    
N3    H15   S    
C48   O10   A    
Cr6   O11   S    
C28   C29   A    
C37   C38   A    
C47   O7    A    
C5    C11   A    
C6    H36   S    
N4    H19   S    
C38   C39   A    
Cr4   O14   S    
Cr2   O2    S    
C1    O12   A    
C15   C16   A    
C32   C45   S    
C48   O9    A    
C17   N2    S    
N6    H25   S    
C38   H24   S    
Cr4   O13   S    
Cr5   O8    S    
C16   C17   A    
C8    H35   S    
C49   O6    A    
C35   H22   S    
C34   C46   S    
Cr1   O1    S    
C4    C12   S    
C9    C10   A    
Cr5   O9    S    
C7    H34   S    
Cr3   O3    S    
C4    C54   A    
C9    N10   S    
C18   H7    S    
N8    H30   S    
N2    H13   S    
Cr1   O24   S    
C21   C22   A    
C45   O3    A    
C23   O1    A    
C51   O17   A    
N5    H20   S    
N1    H10   S    
C44   C46   A    
C50   O14   A    
C13   C19   A    
C53   O24   A    
Cr6   O10   S    
C25   H3    S    
C24   C25   A    
C6    C11   A    
C3    N9    S    
C8    C9    A    
N10   H38   S    
C25   C26   A    
Cr6   O19   S    
Cr4   O7    S    
Cr1   O5    S    
C19   C23   S    
C43   C44   A    
C29   C30   A    
Cr5   O19   S    
C5    C47   S    
C31   C32   A    
C28   N3    S    
C17   C18   A    
C31   N4    S    
C33   N5    S    
Cr3   O22   S    
C34   O26   A    
C52   O13   A    
Cr2   O21   S    
Cr3   O5    S    
C5    C14   A    
N10   H37   S    
Cr5   O16   S    
C22   C49   S    
C40   C41   A    
Cr1   O25   S    
C13   C15   A    
C1    C26   S    
C22   C24   A    
C42   C43   A    
C47   O8    A    
N7    H29   S    
C3    C4    A    
C36   C50   S    
Cr6   O17   S    
C29   C51   S    
C10   C19   A    
C12   O21   A    
C48   C56   S    
Cr3   O4    S    
C54   C55   A    
C36   C37   A    
C1    O20   A    
C30   H17   S    
C27   C32   A    
C54   H8    S    
C52   O18   A    
C53   O4    A    
C34   O25   A    
Cr5   O15   S    
N9    H33   S    
C55   H5    S    
C6    C7    A    
C20   H14   S    
Cr6   O18   S    
C43   H6    S    
Cr4   O6    S    
C49   O11   A    
C2    C3    A    
C27   H4    S    
C2    C56   A    
N4    H18   S    
C30   C31   A    
C39   C53   S    
C20   C26   A    
C44   N7    S    
C33   C35   A    
Cr1   O12   S    
Cr3   O23   S    
C16   N1    S    
Cr2   O20   S    
N6    H26   S    
C21   H1    S    
C10   C11   A    
C2    N8    S    
C20   C21   A    
C24   H2    S    
C27   C28   A    
N8    H31   S    
C23   O23   A    
N7    H28   S    
C13   C14   A    
C42   C52   S    
