data_mof_unit_55076.cif
_audit_creation_date              2012-12-11T17:09:39-0500
_audit_creation_method            fapswitch 2.2
_symmetry_space_group_name_H-M    P1
_symmetry_Int_Tables_number       1
_space_group_crystal_system       triclinic
_cell_length_a                    14.80904
_cell_length_b                    6.931349
_cell_length_c                    13.519043
_cell_angle_alpha                 90.0
_cell_angle_beta                  99.845827
_cell_angle_gamma                 90.000023
_cell_volume                      1367.24554866

loop_
_atom_site_label
_atom_site_type_symbol
_atom_type_description
_atom_site_fract_x
_atom_site_fract_y
_atom_site_fract_z
_atom_type_partial_charge
O1    O     O_R   0.586930 0.505770 0.416350 -0.548692
O2    O     O_R   0.413070 0.005770 0.583650 -0.548719
O3    O     O_R   0.397900 0.173100 0.389630 -0.538677
O4    O     O_R   0.602100 0.673100 0.610370 -0.538662
C1    C     C_R   0.364357 0.345440 0.362734 0.713452
C2    C     C_R   0.635643 0.845440 0.637266 0.713467
O5    O     O_R   0.585280 0.175870 0.404330 -0.537860
O6    O     O_R   0.414720 0.675870 0.595670 -0.537823
O7    O     O_R   0.601790 0.008380 0.598460 -0.532511
O8    O     O_R   0.398210 0.508380 0.401540 -0.532494
C3    C     C_R   0.614843 0.344884 0.382978 0.711809
C4    C     C_R   0.385155 0.844884 0.617021 0.711792
O9    O     O_3   0.505200 0.340120 0.563670 -0.374071
O10   O     O_3   0.494800 0.840120 0.436330 -0.374087
V1    V     V_3+5 0.499040 0.064180 0.488190 1.412543
V2    V     V_3+5 0.500960 0.564180 0.511810 1.412623
C5    C     C_R   0.250952 0.005544 0.675609 0.037023
C6    C     C_R   0.749045 0.505547 0.324389 0.037173
C7    C     C_R   0.314042 0.853155 0.682051 -0.136506
C8    C     C_R   0.685956 0.353156 0.317947 -0.136541
C9    C     C_R   0.304749 0.703175 0.749941 -0.126768
C10   C     C_R   0.695251 0.203175 0.250058 -0.126825
H1    H     H_    0.351486 0.582299 0.757388 0.109599
H2    H     H_    0.648514 0.082298 0.242611 0.109605
C11   C     C_R   0.239310 0.714231 0.814167 -0.106796
C12   C     C_R   0.760691 0.214229 0.185833 -0.106780
H3    H     H_    0.237473 0.601075 0.868858 0.112218
H4    H     H_    0.762527 0.101073 0.131143 0.112220
C13   C     C_R   0.181193 0.875702 0.812599 -0.128116
C14   C     C_R   0.818808 0.375700 0.187402 -0.128122
C15   C     C_R   0.186196 0.016300 0.739463 -0.027680
C16   C     C_R   0.813803 0.516300 0.260537 -0.027716
C17   C     C_3   0.197888 0.229882 0.751205 0.244468
C18   C     C_3   0.802111 0.729881 0.248793 0.244437
C19   C     C_3   0.268107 0.218050 0.680784 0.157470
C20   C     C_3   0.731887 0.718051 0.319207 0.157493
H5    H     H_    0.227603 0.272313 0.829206 0.042531
H6    H     H_    0.772401 0.772310 0.170790 0.042544
H7    H     H_    0.339237 0.256393 0.716572 0.031875
H8    H     H_    0.660759 0.756384 0.283410 0.031800
C21   C     C_1   0.783485 0.877110 0.782841 -0.178894
C22   C     C_1   0.216515 0.377110 0.217159 -0.178892
C23   C     C_1   0.716174 0.860133 0.716828 -0.165032
C24   C     C_1   0.283826 0.360133 0.283172 -0.165048
O11   O     O_R   0.101720 0.231700 0.098560 -0.538391
O12   O     O_R   0.898280 0.731700 0.901440 -0.538390
O13   O     O_R   0.914700 0.558980 0.095690 -0.538048
O14   O     O_R   0.085300 0.058980 0.904310 -0.538048
C25   C     C_R   0.885131 0.389689 0.116995 0.705278
C26   C     C_R   0.114870 0.889690 0.883005 0.705276
O15   O     O_R   0.102080 0.561590 0.110390 -0.538501
O16   O     O_R   0.897920 0.061590 0.889610 -0.538501
O17   O     O_R   0.086950 0.728940 0.916330 -0.534217
O18   O     O_R   0.913050 0.228940 0.083670 -0.534218
C27   C     C_R   0.136056 0.391906 0.137498 0.726747
C28   C     C_R   0.863944 0.891906 0.862502 0.726747
O19   O     O_3   0.994770 0.394510 0.936380 -0.360224
O20   O     O_3   0.005230 0.894510 0.063620 -0.360226
V3    V     V_3+5 0.000970 0.670520 0.011800 1.477655
V4    V     V_3+5 0.999030 0.170520 0.988200 1.477654
O21   O     O_3   0.118123 0.334992 0.712594 -0.598095
H9    H     H_    0.086153 0.269894 0.650961 0.335413
O22   O     O_3   0.881873 0.834995 0.287410 -0.598096
H10   H     H_    0.913839 0.769899 0.349046 0.335418
O23   O     O_3   0.238349 0.307717 0.587951 -0.611437
H11   H     H_    0.291214 0.304256 0.551835 0.302402
O24   O     O_3   0.761639 0.807725 0.412040 -0.611450
H12   H     H_    0.708735 0.804506 0.448099 0.302418

loop_
_geom_bond_atom_site_label_1
_geom_bond_atom_site_label_2
_ccdc_geom_bond_type
O4    V2    S    
O5    C3    A    
C15   C17   S    
O11   V4    S    
C12   C14   A    
O12   V3    S    
C22   C27   S    
C11   H3    S    
O16   V4    S    
C12   H4    S    
O1    C3    A    
O6    C4    A    
O2    C4    A    
C6    C20   S    
C2    O7    A    
O5    V1    S    
O7    V1    S    
C20   O24   S    
O3    V1    S    
C1    O8    A    
C21   C28   S    
O1    V2    S    
O8    V2    S    
C14   C16   A    
O2    V1    S    
C21   C23   T    
O11   C27   A    
O21   H9    S    
O9    V2    S    
C22   C24   T    
C17   O21   S    
C2    C23   S    
C4    C7    S    
O14   C26   A    
C18   O22   S    
C17   C19   S    
C14   C25   S    
C8    C10   A    
O14   V4    S    
C6    C8    A    
C13   C26   S    
O9    V1    S    
C9    H1    S    
O17   V3    S    
C19   H7    S    
C5    C15   A    
O10   V2    S    
C3    C8    S    
O19   V3    S    
C26   O17   A    
C6    C16   A    
O23   H11   S    
C19   O23   S    
O13   V3    S    
O24   H12   S    
O3    C1    A    
O16   C28   A    
C20   H8    S    
C13   C15   A    
O15   V3    S    
C18   C20   S    
C11   C13   A    
O13   C25   A    
O4    C2    A    
C10   C12   A    
C10   H2    S    
O12   C28   A    
C9    C11   A    
O10   V1    S    
O19   V4    S    
O18   V4    S    
O6    V2    S    
C5    C19   S    
O15   C27   A    
C5    C7    A    
O20   V3    S    
C18   H6    S    
O20   V4    S    
C1    C24   S    
C17   H5    S    
C25   O18   A    
O22   H10   S    
C7    C9    A    
C16   C18   S    
