data_mof_unit_50204.cif
_audit_creation_date              2012-12-11T14:08:02-0500
_audit_creation_method            fapswitch 2.2
_symmetry_space_group_name_H-M    P1
_symmetry_Int_Tables_number       1
_space_group_crystal_system       triclinic
_cell_length_a                    10.929052
_cell_length_b                    10.976925
_cell_length_c                    18.621871
_cell_angle_alpha                 90.504984
_cell_angle_beta                  90.657799
_cell_angle_gamma                 59.757372
_cell_volume                      1929.82905195

loop_
_atom_site_label
_atom_site_type_symbol
_atom_type_description
_atom_site_fract_x
_atom_site_fract_y
_atom_site_fract_z
_atom_type_partial_charge
C1    C     C_R   0.233355 0.647598 0.607636 0.547518
C2    C     C_3   0.735009 0.501778 0.806454 -0.223190
C3    C     C_3   0.684303 0.660437 0.818095 0.045485
C4    C     C_3   0.643030 0.615252 0.685192 0.043670
C5    C     C_3   0.753870 0.664236 0.689866 -0.237614
C6    C     C_3   0.695777 0.478105 0.730100 -0.121070
C7    C     C_2   0.693207 0.124305 0.660290 -0.096919
C8    C     C_2   0.716176 0.092603 0.815676 -0.112657
C9    C     C_2   0.828024 0.059709 0.773763 -0.184281
C10   C     C_2   0.805880 0.108168 0.698216 -0.162909
C11   C     C_2   0.168148 0.671734 0.678036 -0.118567
C12   C     C_R   0.626404 0.586121 0.609347 0.565371
C13   C     C_2   0.183147 0.665447 0.836343 -0.101661
C14   C     C_2   0.163703 0.574786 0.795486 -0.149587
C15   C     C_2   0.186993 0.562315 0.717866 -0.143075
C16   C     C_2   0.669645 0.684315 0.331532 -0.115979
C17   C     C_2   0.724576 0.725462 0.182178 -0.118951
C18   C     C_2   0.824389 0.627991 0.226705 -0.045551
C19   C     C_2   0.799530 0.623716 0.303669 -0.163861
C20   C     C_2   0.632919 0.195124 0.318870 -0.090605
C21   C     C_2   0.636899 0.202142 0.164103 -0.106701
C22   C     C_2   0.521534 0.231252 0.200526 -0.165971
C23   C     C_R   0.632767 0.220363 0.599079 0.564385
C24   C     C_2   0.516083 0.257478 0.276734 -0.147205
C25   C     C_2   0.118165 0.682867 0.345411 -0.113287
C26   C     C_2   0.114821 0.692379 0.191104 -0.085431
C27   C     C_2   0.037886 0.805198 0.233864 -0.152956
C28   C     C_2   0.068857 0.802530 0.309670 -0.164299
C29   C     C_R   0.727685 0.044818 0.889569 0.554385
C30   C     C_R   0.716869 0.683610 0.891528 0.546985
C31   C     C_R   0.116967 0.706844 0.906715 0.542484
C32   C     C_R   0.672958 0.114441 0.101265 0.554674
C33   C     C_R   0.738398 0.720619 0.104058 0.579125
C34   C     C_R   0.214301 0.652102 0.404842 0.554723
C35   C     C_R   0.087957 0.712878 0.115250 0.549556
C36   C     C_R   0.645094 0.627689 0.396283 0.566705
C37   C     C_R   0.614537 0.232549 0.393691 0.552650
C38   C     C_3   0.523992 0.749425 0.799422 -0.248172
C39   C     C_3   0.501922 0.734589 0.718520 -0.231847
C40   C     C_3   0.766848 0.704099 0.767249 -0.241863
Cr1   Cr    Cr6+3 0.393010 0.398050 0.501480 1.019878
Cr2   Cr    Cr6+3 0.398820 0.707980 0.501630 1.019436
Cr3   Cr    Cr6+3 0.708140 0.393940 0.496850 1.015928
Cr4   Cr    Cr6+3 0.937950 0.938450 0.008940 1.025574
Cr5   Cr    Cr6+3 0.626180 0.937030 0.994750 1.020151
Cr6   Cr    Cr6+3 0.937790 0.625760 0.001410 1.033833
H1    H     H_    0.481523 0.862858 0.812265 0.137019
H2    H     H_    0.791291 0.389437 0.704944 0.113293
H3    H     H_    0.880600 0.651335 0.782581 0.129115
H4    H     H_    0.859498 0.578344 0.671930 0.141877
H5    H     H_    0.934726 0.005106 0.795966 0.142371
H6    H     H_    0.874322 0.143926 0.676819 0.137774
H7    H     H_    0.609542 0.151233 0.793757 0.147449
H8    H     H_    0.630915 0.080059 0.680355 0.101934
H9    H     H_    0.125988 0.509441 0.818754 0.148065
H10   H     H_    0.226142 0.458655 0.694015 0.169428
H11   H     H_    0.226722 0.726159 0.813628 0.096765
H12   H     H_    0.463923 0.712345 0.831569 0.125520
H13   H     H_    0.123981 0.776387 0.701481 0.098779
H14   H     H_    0.888961 0.547293 0.335747 0.147938
H15   H     H_    0.630245 0.815626 0.203390 0.093837
H16   H     H_    0.576404 0.761636 0.302662 0.107491
H17   H     H_    0.436677 0.219524 0.176828 0.173858
H18   H     H_    0.411150 0.323845 0.299060 0.162900
H19   H     H_    0.717438 0.221528 0.187171 0.115193
H20   H     H_    0.738785 0.128356 0.297929 0.084518
H21   H     H_    0.961075 0.907024 0.211477 0.152041
H22   H     H_    0.414186 0.712224 0.710754 0.138484
H23   H     H_    0.071265 0.892797 0.332446 0.157266
H24   H     H_    0.193688 0.589564 0.211321 0.104011
H25   H     H_    0.107020 0.596638 0.323594 0.105383
H26   H     H_    0.469033 0.836805 0.691576 0.136550
H27   H     H_    0.724236 0.819896 0.771015 0.118606
H28   H     H_    0.722470 0.756607 0.654321 0.132675
H29   H     H_    0.852288 0.437683 0.812725 0.129512
H30   H     H_    0.689473 0.464680 0.848474 0.136938
O1    O     O_R   0.507110 0.256280 0.580300 -0.506527
O2    O     O_R   0.524640 0.695370 0.425100 -0.489387
O3    O     O_R   0.735890 0.504390 0.415980 -0.507037
O4    O     O_R   0.690560 0.277820 0.422350 -0.495393
O5    O     O_3   0.499990 0.499990 0.499980 -0.264417
O6    O     O_R   0.089190 0.825870 0.932320 -0.520773
O7    O     O_R   0.819070 0.053960 0.931440 -0.481679
O8    O     O_R   0.607070 0.076440 0.916460 -0.511076
O9    O     O_R   0.647110 0.806550 0.917690 -0.515905
O10   O     O_R   0.837080 0.593860 0.915300 -0.525372
O11   O     O_R   0.064770 0.636080 0.932550 -0.498525
O12   O     O_R   0.280830 0.527190 0.577940 -0.492231
O13   O     O_R   0.068250 0.829200 0.092940 -0.506300
O14   O     O_R   0.799650 0.057040 0.080330 -0.503687
O15   O     O_R   0.586130 0.079760 0.077080 -0.513954
O16   O     O_R   0.627700 0.809630 0.066580 -0.494274
O17   O     O_R   0.816140 0.597180 0.075920 -0.486770
O18   O     O_R   0.045360 0.639170 0.081440 -0.497037
O19   O     O_3   0.833980 0.833750 0.001700 -0.300080
O20   O     O_R   0.261360 0.738990 0.584270 -0.532570
O21   O     O_R   0.532590 0.694780 0.574370 -0.509248
O22   O     O_R   0.744470 0.503750 0.577000 -0.532708
O23   O     O_R   0.698520 0.277230 0.571620 -0.516939
O24   O     O_R   0.498530 0.256920 0.419280 -0.515964
O25   O     O_R   0.272880 0.527780 0.428680 -0.507044
O26   O     O_R   0.252780 0.739630 0.423250 -0.507479
C41   C     C_1   0.956647 0.510728 0.201197 0.240518
N1    N     N_1   0.062181 0.416148 0.181442 -0.306224
C42   C     C_1   0.586466 0.437352 0.734302 0.173942
N2    N     N_1   0.499918 0.406835 0.738559 -0.320759

loop_
_geom_bond_atom_site_label_1
_geom_bond_atom_site_label_2
_ccdc_geom_bond_type
C7    C10   D    
C23   O23   A    
C39   H22   S    
C28   H23   S    
C9    H5    S    
Cr3   O22   S    
Cr4   O7    S    
C10   H6    S    
Cr4   O14   S    
C25   C28   D    
C26   C27   D    
C34   O26   A    
C31   O6    A    
C6    H2    S    
Cr2   O20   S    
C8    C29   S    
C20   H20   S    
Cr3   O23   S    
C29   O7    A    
Cr4   O6    S    
C16   C19   D    
Cr1   O1    S    
C38   C39   S    
C32   O15   A    
C13   H11   S    
Cr3   O3    S    
C40   H3    S    
C40   H27   S    
C18   C19   S    
C5    H28   S    
Cr5   O16   S    
C17   H15   S    
C22   H17   S    
C38   H12   S    
C11   C15   D    
C32   O14   A    
Cr6   O19   S    
C20   C24   D    
C3    C38   S    
C8    C9    D    
C1    C11   S    
C39   H26   S    
C25   H25   S    
C30   O10   A    
C9    C10   S    
C12   O22   A    
C25   C34   S    
C1    O12   A    
C14   H9    S    
C24   H18   S    
C21   C22   D    
C2    C6    S    
Cr2   O5    S    
C17   C33   S    
C11   H13   S    
Cr2   O26   S    
C37   O4    A    
C21   C32   S    
C34   O25   A    
C31   O11   A    
C29   O8    A    
C4    C6    S    
Cr2   O21   S    
Cr3   O4    S    
C3    C30   S    
Cr5   O9    S    
Cr6   O18   S    
C4    C39   S    
Cr1   O5    S    
C17   C18   D    
C38   H1    S    
Cr1   O24   S    
C23   O1    A    
C30   O9    A    
C12   O21   A    
C35   O13   A    
C3    C40   S    
Cr2   O2    S    
C26   H24   S    
C22   C24   S    
C5    H4    S    
C33   O16   A    
Cr5   O8    S    
C4    C12   S    
Cr5   O19   S    
C27   C28   S    
C2    H30   S    
Cr6   O11   S    
C35   O18   A    
Cr1   O12   S    
Cr3   O5    S    
C21   H19   S    
C13   C31   S    
C4    C5    S    
C36   O3    A    
C33   O17   A    
C8    H7    S    
C19   H14   S    
C42   N2    T    
C15   H10   S    
C2    C3    S    
Cr4   O19   S    
C36   O2    A    
C16   C36   S    
C20   C37   S    
Cr6   O17   S    
C1    O20   A    
C7    C23   S    
C6    C42   S    
Cr1   O25   S    
C18   C41   S    
Cr5   O15   S    
C27   H21   S    
C2    H29   S    
C26   C35   S    
C5    C40   S    
C41   N1    T    
C14   C15   S    
C7    H8    S    
C13   C14   D    
C16   H16   S    
C37   O24   A    
Cr4   O13   S    
Cr6   O10   S    
