data_mof_unit_25939.cif
_audit_creation_date              2012-12-10T20:41:49-0500
_audit_creation_method            fapswitch 2.2
_symmetry_space_group_name_H-M    P1
_symmetry_Int_Tables_number       1
_space_group_crystal_system       monoclinic
_cell_length_a                    15.037936
_cell_length_b                    15.221799
_cell_length_c                    9.869505
_cell_angle_alpha                 90.0
_cell_angle_beta                  89.056211
_cell_angle_gamma                 90.0
_cell_volume                      2258.86701828

loop_
_atom_site_label
_atom_site_type_symbol
_atom_type_description
_atom_site_fract_x
_atom_site_fract_y
_atom_site_fract_z
_atom_type_partial_charge
C1    C     C_R   0.382192 0.877593 0.500306 0.878410
C2    C     C_R   0.382151 0.122414 0.500158 0.881180
C3    C     C_R   0.882151 0.377586 0.500158 0.881180
C4    C     C_R   0.882192 0.622406 0.500306 0.878411
C5    C     C_3   0.285127 0.221100 0.754280 -0.107147
C6    C     C_3   0.270237 0.793923 0.750934 -0.101673
C7    C     C_3   0.770237 0.706076 0.750934 -0.101674
C8    C     C_3   0.785127 0.278900 0.754280 -0.107147
C9    C     C_R   0.428446 0.968687 0.073649 0.218931
C10   C     C_R   0.928446 0.531313 0.073649 0.218931
C11   C     C_R   0.574369 0.021252 0.070032 -0.145804
C12   C     C_R   0.074369 0.478748 0.070032 -0.145804
C13   C     C_R   0.574484 0.020631 0.926088 -0.139460
C14   C     C_R   0.074484 0.479369 0.926088 -0.139460
C15   C     C_R   0.428146 0.969127 0.931062 0.271751
C16   C     C_R   0.928145 0.530873 0.931062 0.271751
C17   C     C_3   0.336294 0.005941 0.931984 -0.543636
C18   C     C_3   0.836294 0.494059 0.931984 -0.543635
C19   C     C_3   0.336318 0.003006 0.085172 -0.515424
C20   C     C_3   0.836318 0.496994 0.085172 -0.515424
C21   C     C_R   0.622738 0.117234 0.498992 0.880427
C22   C     C_R   0.622648 0.882631 0.499156 0.877087
C23   C     C_R   0.122648 0.617369 0.499156 0.877087
C24   C     C_R   0.122738 0.382766 0.498992 0.880427
C25   C     C_R   0.310837 0.248328 0.613586 0.132306
C26   C     C_R   0.304353 0.758064 0.618880 0.130399
C27   C     C_R   0.804353 0.741936 0.618880 0.130399
C28   C     C_R   0.810837 0.251672 0.613586 0.132306
C29   C     C_R   0.327519 0.199108 0.497014 -0.130776
C30   C     C_R   0.327783 0.800786 0.498723 -0.130345
C31   C     C_R   0.827783 0.699214 0.498723 -0.130345
C32   C     C_R   0.827519 0.300892 0.497014 -0.130776
C33   C     C_R   0.294403 0.228546 0.372606 -0.218267
C34   C     C_R   0.300660 0.765624 0.374326 -0.223838
C35   C     C_R   0.800660 0.734376 0.374326 -0.223838
C36   C     C_R   0.794403 0.271454 0.372606 -0.218267
C37   C     C_R   0.736461 0.799420 0.373517 -0.232210
C38   C     C_R   0.730417 0.206355 0.371671 -0.232427
C39   C     C_R   0.230417 0.293645 0.371671 -0.232428
C40   C     C_R   0.236461 0.700580 0.373517 -0.232210
C41   C     C_R   0.699884 0.828609 0.497061 -0.092127
C42   C     C_R   0.700083 0.171033 0.495175 -0.091916
C43   C     C_R   0.200083 0.328967 0.495175 -0.091916
C44   C     C_R   0.199884 0.671391 0.497061 -0.092127
C45   C     C_R   0.740440 0.806051 0.617986 0.085925
C46   C     C_R   0.747318 0.187137 0.612701 0.084265
C47   C     C_R   0.247318 0.312863 0.612701 0.084265
C48   C     C_R   0.240440 0.693949 0.617986 0.085925
C49   C     C_3   0.700123 0.777953 0.750409 -0.522831
C50   C     C_3   0.715673 0.206553 0.753712 -0.528675
C51   C     C_3   0.215672 0.293447 0.753712 -0.528675
C52   C     C_3   0.200123 0.722047 0.750409 -0.522831
H1    H     H_    0.312038 0.197103 0.277560 0.164178
H2    H     H_    0.323295 0.792599 0.278193 0.168286
H3    H     H_    0.823295 0.707402 0.278193 0.168286
H4    H     H_    0.812038 0.302897 0.277560 0.164178
H5    H     H_    0.332815 0.069067 0.132681 0.215110
H6    H     H_    0.289655 0.953493 0.128788 0.198030
H7    H     H_    0.789655 0.546507 0.128788 0.198030
H8    H     H_    0.832815 0.430933 0.132681 0.215110
H9    H     H_    0.710849 0.821062 0.277136 0.169489
H10   H     H_    0.699919 0.189692 0.276348 0.166822
H11   H     H_    0.199919 0.310308 0.276348 0.166822
H12   H     H_    0.210849 0.678938 0.277136 0.169489
H13   H     H_    0.707851 0.828792 0.830294 0.201191
H14   H     H_    0.729789 0.151778 0.824403 0.189164
H15   H     H_    0.229789 0.348221 0.824403 0.189164
H16   H     H_    0.207852 0.671208 0.830294 0.201191
H17   H     H_    0.631425 0.751974 0.740248 0.199202
H18   H     H_    0.646365 0.232010 0.758289 0.206782
H19   H     H_    0.146365 0.267990 0.758288 0.206782
H20   H     H_    0.131426 0.748026 0.740248 0.199202
H21   H     H_    0.255971 0.154164 0.759423 0.159438
H22   H     H_    0.242580 0.861217 0.741834 0.154657
H23   H     H_    0.742580 0.638783 0.741833 0.154657
H24   H     H_    0.755971 0.345835 0.759423 0.159438
H25   H     H_    0.633993 0.039926 0.122654 0.142911
H26   H     H_    0.133994 0.460074 0.122654 0.142911
H27   H     H_    0.634352 0.037491 0.870339 0.143260
H28   H     H_    0.134352 0.462509 0.870339 0.143260
H29   H     H_    0.335918 0.073233 0.892277 0.229733
H30   H     H_    0.286355 0.961671 0.887925 0.200719
H31   H     H_    0.786355 0.538328 0.887925 0.200719
H32   H     H_    0.835918 0.426767 0.892277 0.229733
N1    N     N_R   0.499140 0.000000 0.142800 -0.107111
N2    N     N_R   0.999140 0.500000 0.142800 -0.107111
N3    N     N_R   0.499160 0.000000 0.857150 -0.104918
N4    N     N_R   0.999160 0.500000 0.857150 -0.104918
O1    O     O_R   0.408400 0.908380 0.614690 -0.604993
O2    O     O_R   0.408400 0.091620 0.614690 -0.605474
O3    O     O_R   0.908400 0.408380 0.614690 -0.605474
O4    O     O_R   0.908400 0.591620 0.614690 -0.604993
O5    O     O_R   0.408370 0.908370 0.385350 -0.622636
O6    O     O_R   0.408370 0.091630 0.385350 -0.622780
O7    O     O_R   0.908370 0.408370 0.385350 -0.622780
O8    O     O_R   0.908370 0.591630 0.385350 -0.622637
O9    O     O_R   0.591610 0.091610 0.614650 -0.619654
O10   O     O_R   0.591610 0.908390 0.614650 -0.617473
O11   O     O_R   0.091610 0.591610 0.614650 -0.617473
O12   O     O_R   0.091610 0.408390 0.614650 -0.619654
O13   O     O_R   0.591590 0.091600 0.385310 -0.630761
O14   O     O_R   0.591590 0.908400 0.385310 -0.626955
O15   O     O_R   0.091590 0.591600 0.385310 -0.626955
O16   O     O_R   0.091590 0.408400 0.385310 -0.630761
Zn1   Zn    Zn3+2 0.500010 0.000000 0.653130 0.957281
Zn2   Zn    Zn3+2 0.000010 0.500000 0.653130 0.957281
Zn3   Zn    Zn3+2 0.499980 0.000000 0.346870 0.938543
Zn4   Zn    Zn3+2 0.999980 0.500000 0.346870 0.938543
N5    N     N_3   0.356735 0.236794 0.850317 -0.439504
H33   H     H_    0.329433 0.232628 0.948248 0.182558
H34   H     H_    0.381866 0.300539 0.838627 0.196078
N6    N     N_3   0.334945 0.784211 0.859215 -0.439302
H35   H     H_    0.301819 0.795737 0.951489 0.181092
H36   H     H_    0.358922 0.719677 0.861953 0.192916
N7    N     N_3   0.834945 0.715789 0.859215 -0.439302
H37   H     H_    0.801818 0.704262 0.951489 0.181092
H38   H     H_    0.858921 0.780323 0.861954 0.192916
N8    N     N_3   0.856735 0.263205 0.850317 -0.439505
H39   H     H_    0.829433 0.267372 0.948248 0.182558
H40   H     H_    0.881866 0.199460 0.838626 0.196078

loop_
_geom_bond_atom_site_label_1
_geom_bond_atom_site_label_2
_ccdc_geom_bond_type
O13   Zn3   S    
C23   O11   A    
C13   H27   S    
C22   O10   A    
C7    C27   S    
N6    H36   S    
C8    N8    S    
C19   H5    S    
C28   C46   A    
C33   C39   A    
O10   Zn1   S    
C49   H13   S    
C2    C29   S    
C34   C40   A    
C32   C36   A    
C35   C37   A    
C38   C42   A    
N5    H34   S    
C22   C41   S    
N7    H37   S    
C29   C33   A    
C8    H24   S    
C21   O9    A    
C3    O3    A    
C17   H30   S    
C42   C46   A    
C7    N7    S    
C2    O2    A    
N8    H39   S    
C1    C30   S    
C11   H25   S    
C9    N1    A    
C4    O8    A    
C9    C19   S    
C23   O15   A    
C10   C20   S    
N7    H38   S    
C12   H26   S    
C18   H32   S    
O15   Zn4   S    
C14   H28   S    
C20   H8    S    
C25   C47   A    
C40   C44   A    
C17   H29   S    
C52   H16   S    
C26   C48   A    
O9    Zn1   S    
C27   C45   A    
O8    Zn4   S    
C49   H17   S    
C25   C29   A    
O3    Zn2   S    
C51   H19   S    
C28   C32   A    
N6    H35   S    
C6    H22   S    
C19   H6    S    
C33   H1    S    
O6    Zn3   S    
C30   C34   A    
C35   H3    S    
C2    O6    A    
C7    C49   S    
C47   C51   S    
C27   C31   A    
C23   C44   S    
C24   O16   A    
C52   H20   S    
N4    Zn2   S    
C37   H9    S    
N3    Zn1   S    
C45   C49   S    
C13   N3    A    
C18   H31   S    
O14   Zn3   S    
C16   C18   S    
C51   H15   S    
C20   H7    S    
C50   H14   S    
C5    C25   S    
O4    Zn2   S    
C12   C14   A    
C34   H2    S    
C4    O4    A    
C8    C28   S    
C31   C35   A    
C8    C50   S    
O16   Zn4   S    
C15   N3    A    
C15   C17   S    
O11   Zn2   S    
C10   N2    A    
C1    O1    A    
C24   O12   A    
C6    N6    S    
C5    H21   S    
N2    Zn4   S    
O2    Zn1   S    
C22   O14   A    
C7    H23   S    
C26   C30   A    
C39   H11   S    
C46   C50   S    
O12   Zn2   S    
C40   H12   S    
C12   N2    A    
C36   C38   A    
C50   H18   S    
C14   N4    A    
C21   O13   A    
C10   C16   A    
N5    H33   S    
O5    Zn3   S    
C11   C13   A    
C6    C26   S    
C5    N5    S    
C11   N1    A    
C36   H4    S    
C17   C19   S    
C18   C20   S    
C37   C41   A    
C3    C32   S    
N8    H40   S    
C4    C31   S    
O7    Zn4   S    
C21   C42   S    
C48   C52   S    
C39   C43   A    
C1    O5    A    
O1    Zn1   S    
C16   N4    A    
C24   C43   S    
C41   C45   A    
C5    C51   S    
C3    O7    A    
C6    C52   S    
N1    Zn3   S    
C43   C47   A    
C44   C48   A    
C9    C15   A    
C38   H10   S    
