data_mof_unit_43851.cif
_audit_creation_date              2012-12-10T20:26:26-0500
_audit_creation_method            fapswitch 2.2
_symmetry_space_group_name_H-M    P1
_symmetry_Int_Tables_number       1
_space_group_crystal_system       triclinic
_cell_length_a                    10.725535
_cell_length_b                    10.6631
_cell_length_c                    9.878012
_cell_angle_alpha                 90.016152
_cell_angle_beta                  89.81523
_cell_angle_gamma                 90.093182
_cell_volume                      1129.71565421

loop_
_atom_site_label
_atom_site_type_symbol
_atom_type_description
_atom_site_fract_x
_atom_site_fract_y
_atom_site_fract_z
_atom_type_partial_charge
C1    C     C_R   0.504463 0.260030 0.500158 0.881006
C2    C     C_R   0.607850 0.513665 0.071515 -0.126478
C3    C     C_R   0.607852 0.513644 0.927808 -0.125479
C4    C     C_R   0.262761 0.505973 0.500418 0.931354
C5    C     C_R   0.390636 0.497199 0.928856 0.145203
C6    C     C_3   0.292935 0.398324 0.921266 -0.585743
C7    C     C_3   0.291205 0.398043 0.075558 0.301161
C8    C     C_R   0.503971 0.740032 0.500064 0.871146
C9    C     C_R   0.737391 0.499613 0.499672 0.919689
C10   C     C_2   0.932390 0.543029 0.393280 -0.165414
C11   C     C_2   0.869346 0.496068 0.498568 -0.322472
C12   C     C_R   0.525516 0.128777 0.502012 -0.117490
C13   C     C_2   0.066938 0.538680 0.389780 -0.168679
C14   C     C_2   0.131775 0.525409 0.503690 -0.340489
C15   C     C_R   0.515011 0.063920 0.623776 0.142176
C16   C     C_3   0.235974 0.198338 0.140530 0.109616
C17   C     C_3   0.281850 0.077188 0.204102 -0.815172
C18   C     C_R   0.560362 0.065107 0.383573 -0.228598
C19   C     C_R   0.559001 0.935231 0.383166 -0.237242
C20   C     C_R   0.524147 0.871486 0.501628 -0.098440
C21   C     C_R   0.514373 0.936145 0.623548 0.138298
C22   C     C_3   0.416434 0.929080 0.731376 -0.483368
C23   C     C_3   0.417263 0.071235 0.731813 -0.493734
C24   C     C_R   0.390449 0.496814 0.071134 0.139038
H1    H     H_    0.884697 0.581636 0.305784 0.155707
H2    H     H_    0.089681 0.532217 0.603336 0.146737
H3    H     H_    0.578740 0.114561 0.289796 0.192250
H4    H     H_    0.576745 0.885926 0.289174 0.171356
H5    H     H_    0.327364 0.888125 0.694427 0.200143
H6    H     H_    0.452597 0.887617 0.826722 0.206773
H7    H     H_    0.328601 0.113155 0.695365 0.196108
H8    H     H_    0.199039 0.176167 0.038014 0.134459
H9    H     H_    0.159226 0.235708 0.205208 0.133439
H10   H     H_    0.309159 0.094562 0.310721 0.259160
H11   H     H_    0.206176 0.006011 0.202932 0.199917
H12   H     H_    0.454114 0.111725 0.827418 0.217218
H13   H     H_    0.363065 0.040315 0.146578 0.255145
H14   H     H_    0.695215 0.522899 0.124819 0.138483
H15   H     H_    0.695265 0.522839 0.873994 0.146170
H16   H     H_    0.204972 0.434266 0.876662 0.162324
H17   H     H_    0.328312 0.310245 0.874943 0.224431
H18   H     H_    0.203239 0.434323 0.120618 0.041090
H19   H     H_    0.912878 0.452232 0.585245 0.138880
H20   H     H_    0.112360 0.545135 0.291903 0.154686
N1    N     N_R   0.499170 0.499140 0.142800 -0.084198
N2    N     N_R   0.499170 0.499180 0.857150 -0.089847
O1    O     O_R   0.500020 0.316790 0.614690 -0.617218
O2    O     O_R   0.500000 0.316760 0.385350 -0.572001
O3    O     O_R   0.319080 0.500020 0.614640 -0.621823
O4    O     O_R   0.319070 0.499980 0.385300 -0.609584
O5    O     O_R   0.500000 0.683240 0.614650 -0.616321
O6    O     O_R   0.499980 0.683210 0.385310 -0.630722
O7    O     O_R   0.680930 0.500020 0.614700 -0.632008
O8    O     O_R   0.680920 0.499980 0.385360 -0.629068
O9    O     O_3   0.335610 0.284795 0.131802 -0.555474
Zn1   Zn    Zn3+2 0.500010 0.500020 0.653130 0.942339
Zn2   Zn    Zn3+2 0.499990 0.499980 0.346870 0.971561

loop_
_geom_bond_atom_site_label_1
_geom_bond_atom_site_label_2
_ccdc_geom_bond_type
C10   C13   S    
C1    O2    A    
C11   H19   S    
C6    C7    S    
C22   H5    S    
C16   H9    S    
C16   H8    S    
O3    Zn1   S    
C17   H11   S    
C5    N2    A    
C8    O6    A    
C3    N2    A    
C19   C20   A    
C12   C15   A    
C7    O9    S    
C4    O3    A    
C15   C23   S    
C2    C3    A    
C16   O9    S    
C3    H15   S    
O2    Zn2   S    
C17   H13   S    
C21   C22   S    
C14   H2    S    
C19   H4    S    
C9    C11   S    
C8    O5    A    
N1    Zn2   S    
C17   H10   S    
C8    C20   S    
C5    C24   A    
C24   N1    A    
C10   H1    S    
C23   H12   S    
C2    N1    A    
C4    C14   S    
C5    C6    S    
C6    H16   S    
O7    Zn1   S    
C9    O7    A    
C10   C11   D    
N2    Zn1   S    
C7    C24   S    
C15   C21   A    
C20   C21   A    
C18   C19   A    
O6    Zn2   S    
C7    H18   S    
C12   C18   A    
C2    H14   S    
C22   C23   S    
C1    O1    A    
C9    O8    A    
C22   H6    S    
C13   C14   D    
O4    Zn2   S    
C6    H17   S    
C13   H20   S    
C1    C12   S    
C18   H3    S    
O5    Zn1   S    
C16   C17   S    
C4    O4    A    
O1    Zn1   S    
O8    Zn2   S    
C23   H7    S    
