data_mof_unit_10136.cif
_audit_creation_date              2012-12-11T15:53:32-0500
_audit_creation_method            fapswitch 2.2
_symmetry_space_group_name_H-M    P1
_symmetry_Int_Tables_number       1
_space_group_crystal_system       triclinic
_cell_length_a                    6.929898
_cell_length_b                    14.535425
_cell_length_c                    15.984274
_cell_angle_alpha                 90.477049
_cell_angle_beta                  89.976141
_cell_angle_gamma                 90.096602
_cell_volume                      1610.0219111

loop_
_atom_site_label
_atom_site_type_symbol
_atom_type_description
_atom_site_fract_x
_atom_site_fract_y
_atom_site_fract_z
_atom_type_partial_charge
O1    O     O_R   0.361600 0.167310 0.164620 -0.538621
O2    O     O_R   0.638400 0.832690 0.835380 -0.538621
O3    O     O_R   0.691080 0.157570 0.338750 -0.546617
O4    O     O_R   0.308920 0.842430 0.661250 -0.546617
O5    O     O_R   0.861410 0.336420 0.339360 -0.546734
O6    O     O_R   0.138590 0.663580 0.660640 -0.546734
C1    C     C_R   0.521963 0.135279 0.367543 0.672917
C2    C     C_R   0.478037 0.864720 0.632457 0.672917
O7    O     O_R   0.691320 0.156280 0.165240 -0.545820
O8    O     O_R   0.308680 0.843720 0.834760 -0.545820
O9    O     O_R   0.861640 0.335130 0.164600 -0.541326
O10   O     O_R   0.138360 0.664870 0.835400 -0.541326
C3    C     C_R   0.522232 0.133808 0.136068 0.711228
C4    C     C_R   0.477768 0.866192 0.863932 0.711228
O11   O     O_R   0.361370 0.168600 0.339370 -0.545586
O12   O     O_R   0.638630 0.831400 0.660630 -0.545586
O13   O     O_3   0.527990 0.310540 0.251980 -0.360391
O14   O     O_3   0.472010 0.689460 0.748020 -0.360391
V1    V     V_3+5 0.802830 0.240980 0.251990 1.422948
V2    V     V_3+5 0.197170 0.759020 0.748010 1.422948
O15   O     O_R   0.191360 0.346160 0.165220 -0.501455
O16   O     O_R   0.808640 0.653840 0.834780 -0.501455
C5    C     C_R   0.022728 0.368001 0.135870 0.778860
C6    C     C_R   0.977271 0.631999 0.864130 0.778861
O17   O     O_R   0.191130 0.347440 0.338740 -0.545745
O18   O     O_R   0.808870 0.652560 0.661260 -0.545744
C7    C     C_R   0.022383 0.369132 0.367853 0.698247
C8    C     C_R   0.977617 0.630868 0.632147 0.698247
V3    V     V_3+5 0.302840 0.262750 0.251990 1.472262
V4    V     V_3+5 0.697160 0.737250 0.748010 1.472262
O19   O     O_3   0.027820 0.193180 0.251990 -0.381539
O20   O     O_3   0.972180 0.806820 0.748010 -0.381539
C9    C     C_3   0.894576 0.428021 0.518311 0.362214
C10   C     C_3   0.105424 0.571979 0.481689 0.362214
C11   C     C_3   0.066241 0.462002 0.571635 -0.200420
C12   C     C_3   0.933759 0.537998 0.428365 -0.200421
H1    H     H_    0.117999 0.430398 0.630475 0.119078
H2    H     H_    0.882001 0.569602 0.369525 0.119078
C13   C     C_3   0.987964 0.561226 0.562333 -0.102109
C14   C     C_3   0.012035 0.438774 0.437667 -0.102109
C15   C     C_3   0.813677 0.526172 0.510131 -0.208919
C16   C     C_3   0.186323 0.473828 0.489869 -0.208918
H3    H     H_    0.660541 0.546286 0.519143 0.124591
H4    H     H_    0.339459 0.453714 0.480857 0.124591
C17   C     C_R   0.823668 0.542383 0.982028 0.652922
C18   C     C_R   0.176332 0.457617 0.017972 0.652922
C19   C     C_R   0.836822 0.479074 0.047395 -0.277631
C20   C     C_R   0.163178 0.520926 0.952605 -0.277631
H5    H     H_    0.708702 0.464664 0.083824 0.223596
H6    H     H_    0.291298 0.535336 0.916176 0.223596
C21   C     C_R   0.012720 0.435853 0.066491 -0.288783
C22   C     C_R   0.987280 0.564147 0.933509 -0.288783
C23   C     C_R   0.679549 0.027026 0.468648 -0.146584
C24   C     C_R   0.320451 0.972974 0.531351 -0.146585
H7    H     H_    0.820374 0.046770 0.445492 0.119341
H8    H     H_    0.179626 0.953230 0.554508 0.119341
C25   C     C_R   0.668733 0.961758 0.532335 -0.151367
C26   C     C_R   0.331267 0.038242 0.467665 -0.151367
H9    H     H_    0.801700 0.933188 0.556291 0.120911
H10   H     H_    0.198300 0.066812 0.443709 0.120912
C27   C     C_R   0.489043 0.933896 0.564591 -0.043062
C28   C     C_R   0.510957 0.066104 0.435409 -0.043062
C29   C     C_R   0.679416 0.025348 0.033000 -0.151307
C30   C     C_R   0.320584 0.974652 0.967000 -0.151307
H11   H     H_    0.820157 0.043822 0.057343 0.116010
H12   H     H_    0.179842 0.956178 0.942657 0.116010
C31   C     C_R   0.668452 0.961278 0.967259 -0.139552
C32   C     C_R   0.331548 0.038721 0.032741 -0.139552
H13   H     H_    0.801265 0.932204 0.943150 0.117965
H14   H     H_    0.198735 0.067795 0.056850 0.117965
C33   C     C_R   0.488883 0.935048 0.933308 -0.048156
C34   C     C_R   0.511117 0.064952 0.066692 -0.048157
N1    N     N_2   0.777921 0.348031 0.536870 -0.524575
H15   H     H_    0.685890 0.330183 0.488723 0.252310
C35   C     C_3   0.682132 0.350831 0.617183 -0.549133
H16   H     H_    0.605519 0.284706 0.627470 0.203376
H17   H     H_    0.574995 0.407674 0.619088 0.186601
H18   H     H_    0.789061 0.360570 0.668290 0.206459
N2    N     N_2   0.222079 0.651969 0.463130 -0.524575
H19   H     H_    0.314108 0.669817 0.511277 0.252309
C36   C     C_3   0.317870 0.649168 0.382818 -0.549129
H20   H     H_    0.394479 0.715295 0.372529 0.203376
H21   H     H_    0.210943 0.639426 0.331710 0.206458
H22   H     H_    0.425011 0.592326 0.380914 0.186600
F1    F     F_    0.651283 0.583547 0.967829 -0.676405
F2    F     F_    0.348717 0.416453 0.032171 -0.676405

loop_
_geom_bond_atom_site_label_1
_geom_bond_atom_site_label_2
_ccdc_geom_bond_type
C6    C22   S    
C29   H11   S    
C26   C28   A    
O13   V3    S    
N1    H15   S    
C11   C13   S    
C10   C16   S    
O4    C2    A    
V1    O19   S    
C36   H20   S    
C19   H5    S    
O9    V1    S    
C30   C32   A    
C11   H1    S    
O3    C1    A    
C24   C26   A    
C30   C33   A    
C31   C33   A    
O12   V4    S    
C4    C33   S    
C17   C19   A    
O9    C5    A    
C11   C16   S    
O7    C3    A    
C9    C11   S    
O5    C7    A    
O7    V1    S    
O6    C8    A    
O8    V2    S    
O3    V1    S    
O14   V4    S    
C10   C12   S    
C2    C27   S    
C20   H6    S    
C2    O12   A    
C15   H3    S    
C12   C15   S    
C16   H4    S    
C36   H21   S    
O11   V3    S    
C29   C31   A    
C23   H7    S    
O17   V3    S    
C24   H8    S    
C9    C14   S    
C10   C13   S    
C12   C14   S    
C13   C15   S    
O8    C4    A    
N2    C36   S    
C23   C25   A    
C19   C21   A    
C8    C13   S    
O15   V3    S    
C18   C21   A    
C31   H13   S    
C30   H12   S    
C17   F1    S    
C35   H16   S    
C1    C28   S    
C10   N2    S    
C23   C28   A    
C5    C21   S    
C7    C14   S    
C32   C34   A    
O10   V2    S    
O1    V3    S    
C35   H17   S    
C9    N1    S    
C24   C27   A    
O18   V4    S    
O15   C5    A    
O16   C6    A    
O1    C3    A    
N1    C35   S    
C36   H22   S    
V2    O20   S    
O16   V4    S    
C14   C16   S    
C25   C27   A    
O5    V1    S    
C3    C34   S    
O17   C7    A    
O6    V2    S    
O10   C6    A    
O18   C8    A    
C17   C22   A    
O2    V4    S    
C9    C15   S    
C12   H2    S    
V3    O19   S    
V4    O20   S    
C1    O11   A    
O13   V1    S    
O14   V2    S    
O2    C4    A    
C35   H18   S    
C25   H9    S    
N2    H19   S    
O4    V2    S    
C18   C20   A    
C20   C22   A    
C29   C34   A    
C32   H14   S    
C26   H10   S    
C18   F2    S    
