data_mof_unit_58409.cif
_audit_creation_date              2012-12-11T14:52:27-0500
_audit_creation_method            fapswitch 2.2
_symmetry_space_group_name_H-M    P1
_symmetry_Int_Tables_number       1
_space_group_crystal_system       triclinic
_cell_length_a                    19.062768
_cell_length_b                    11.152146
_cell_length_c                    18.829651
_cell_angle_alpha                 89.330324
_cell_angle_beta                  90.874794
_cell_angle_gamma                 89.513054
_cell_volume                      4002.11935148

loop_
_atom_site_label
_atom_site_type_symbol
_atom_type_description
_atom_site_fract_x
_atom_site_fract_y
_atom_site_fract_z
_atom_type_partial_charge
C1    C     C_R   0.271465 0.043491 0.851933 0.606182
C2    C     C_R   0.727705 0.046625 0.147565 0.618248
C3    C     C_R   0.771470 0.543474 0.851942 0.606198
C4    C     C_R   0.227700 0.546612 0.147558 0.618208
C5    C     C_3   0.508372 0.727654 0.974519 -0.072732
C6    C     C_3   0.459891 0.730866 0.040065 -0.095183
C7    C     C_3   0.008406 0.227643 0.974507 -0.072731
C8    C     C_3   0.959927 0.230854 0.040056 -0.095167
C9    C     C_R   0.311029 0.559770 0.970667 0.023804
C10   C     C_R   0.695517 0.538077 0.033963 0.003634
C11   C     C_R   0.811040 0.059818 0.970679 0.023901
C12   C     C_R   0.195494 0.038154 0.033940 0.003616
C13   C     C_R   0.305357 0.572108 0.044423 -0.110871
C14   C     C_R   0.698962 0.528373 0.960041 -0.123317
C15   C     C_R   0.805378 0.072158 0.044438 -0.110857
C16   C     C_R   0.198942 0.028445 0.960019 -0.123345
C17   C     C_R   0.241375 0.593262 0.075554 0.047159
C18   C     C_R   0.753311 0.582846 0.922425 0.046135
C19   C     C_R   0.741392 0.093314 0.075571 0.047241
C20   C     C_R   0.253292 0.082913 0.922401 0.046075
C21   C     C_R   0.184087 0.634651 0.033313 0.234824
C22   C     C_R   0.802517 0.654316 0.956930 0.214588
C23   C     C_R   0.684102 0.134706 0.033333 0.234828
C24   C     C_R   0.302497 0.154399 0.956901 0.214655
C25   C     C_R   0.187271 0.623723 0.959517 0.076737
C26   C     C_R   0.801473 0.660723 0.030142 0.030401
C27   C     C_R   0.687280 0.123775 0.959535 0.076718
C28   C     C_R   0.301453 0.160786 0.030116 0.030580
C29   C     C_R   0.251761 0.592153 0.926621 -0.010719
C30   C     C_R   0.747748 0.604438 0.070712 -0.018305
C31   C     C_R   0.751767 0.092193 0.926635 -0.010637
C32   C     C_R   0.247726 0.104513 0.070690 -0.018326
C33   C     C_R   0.525871 0.731382 0.545276 -0.130174
C34   C     C_R   0.533774 0.727296 0.472761 -0.124703
C35   C     C_R   0.025868 0.231380 0.545275 -0.130173
C36   C     C_R   0.033771 0.227294 0.472761 -0.124706
C37   C     C_R   0.516778 0.827597 0.429847 0.037179
C38   C     C_R   0.498439 0.834455 0.576337 0.032154
C39   C     C_R   0.016778 0.327597 0.429847 0.037173
C40   C     C_R   0.998440 0.334455 0.576337 0.032153
C41   C     C_R   0.494269 0.934197 0.461152 -0.133130
C42   C     C_R   0.484522 0.937393 0.534304 -0.130348
C43   C     C_R   0.994271 0.434198 0.461153 -0.133131
C44   C     C_R   0.984525 0.437394 0.534304 -0.130349
C45   C     C_R   0.439426 0.816840 0.862138 0.600215
C46   C     C_R   0.530505 0.822301 0.144620 0.584350
C47   C     C_R   0.939435 0.316840 0.862140 0.600202
C48   C     C_R   0.030520 0.322298 0.144613 0.584343
C49   C     C_R   0.208453 0.685257 0.525620 -0.126523
C50   C     C_R   0.790683 0.685822 0.473750 -0.129614
C51   C     C_R   0.708451 0.185255 0.525620 -0.126524
C52   C     C_R   0.290683 0.185821 0.473750 -0.129617
C53   C     C_R   0.207652 0.675320 0.453242 -0.131320
C54   C     C_R   0.790886 0.677201 0.546183 -0.136493
C55   C     C_R   0.707651 0.175318 0.453242 -0.131319
C56   C     C_R   0.290887 0.177200 0.546183 -0.136493
C57   C     C_R   0.250670 0.590158 0.421584 0.040074
C58   C     C_R   0.748378 0.592619 0.578794 0.040187
C59   C     C_R   0.750670 0.090158 0.421584 0.040079
C60   C     C_R   0.248378 0.092620 0.578794 0.040190
C61   C     C_R   0.301400 0.526541 0.462047 -0.132617
C62   C     C_R   0.698080 0.529352 0.539194 -0.140986
C63   C     C_R   0.801400 0.026542 0.462047 -0.132618
C64   C     C_R   0.198079 0.029354 0.539195 -0.140985
C65   C     C_R   0.303636 0.539112 0.535152 -0.136332
C66   C     C_R   0.696529 0.540446 0.465983 -0.148765
C67   C     C_R   0.803637 0.039113 0.535152 -0.136332
C68   C     C_R   0.196528 0.040448 0.465983 -0.148763
C69   C     C_R   0.255297 0.615467 0.567287 0.041450
C70   C     C_R   0.744602 0.615811 0.433006 0.042734
C71   C     C_R   0.755297 0.115466 0.567287 0.041448
C72   C     C_R   0.244601 0.115811 0.433006 0.042730
C73   C     C_R   0.261107 0.636016 0.852393 0.626852
C74   C     C_R   0.738471 0.641107 0.146249 0.623337
C75   C     C_R   0.761108 0.136026 0.852399 0.626848
C76   C     C_R   0.238463 0.141136 0.146237 0.623312
C77   C     C_R   0.270533 0.047180 0.647275 0.551192
C78   C     C_R   0.729274 0.046381 0.352993 0.548637
C79   C     C_R   0.770533 0.547180 0.647275 0.551195
C80   C     C_R   0.229274 0.546381 0.352993 0.548632
C81   C     C_R   0.469577 0.823961 0.647228 0.561146
C82   C     C_R   0.534217 0.822453 0.354963 0.547813
C83   C     C_R   0.969578 0.323961 0.647228 0.561145
C84   C     C_R   0.034217 0.322453 0.354963 0.547820
C85   C     C_R   0.261414 0.643090 0.641659 0.557338
C86   C     C_R   0.738663 0.642873 0.358354 0.548936
C87   C     C_R   0.761414 0.143090 0.641659 0.557347
C88   C     C_R   0.238663 0.142873 0.358354 0.548933
C89   C     C_3   0.457513 0.927294 0.035387 -0.199860
C90   C     C_3   0.505335 0.924188 0.969505 -0.170359
C91   C     C_3   0.957547 0.427280 0.035378 -0.199858
C92   C     C_3   0.005367 0.424174 0.969495 -0.170394
C93   C     C_3   0.413537 0.826910 0.002843 0.044414
C94   C     C_3   0.551898 0.828719 0.006577 0.052736
C95   C     C_3   0.913572 0.326898 0.002839 0.044428
C96   C     C_3   0.051935 0.328708 0.006566 0.052771
C97   C     C_3   0.460971 0.823389 0.937820 0.014519
C98   C     C_3   0.504080 0.831369 0.071354 -0.002174
C99   C     C_3   0.961000 0.323379 0.937814 0.014533
C100  C     C_3   0.004116 0.331358 0.071343 -0.002114
Cr1   Cr    Cr6+3 0.229630 0.835900 0.747350 1.047868
Cr2   Cr    Cr6+3 0.770370 0.835900 0.252650 1.053032
Cr3   Cr    Cr6+3 0.729630 0.335900 0.747350 1.047869
Cr4   Cr    Cr6+3 0.270370 0.335900 0.252650 1.053189
Cr5   Cr    Cr6+3 0.387410 0.989850 0.750850 0.995738
Cr6   Cr    Cr6+3 0.612590 0.989850 0.249150 1.006296
Cr7   Cr    Cr6+3 0.887410 0.489850 0.750850 0.995784
Cr8   Cr    Cr6+3 0.112590 0.489850 0.249150 1.006330
Cr9   Cr    Cr6+3 0.385800 0.677120 0.749340 1.045632
Cr10  Cr    Cr6+3 0.614200 0.677120 0.250660 1.047977
Cr11  Cr    Cr6+3 0.885800 0.177120 0.749340 1.045607
Cr12  Cr    Cr6+3 0.114200 0.177120 0.250660 1.047931
H1    H     H_    0.172471 0.749053 0.548579 0.130369
H2    H     H_    0.826662 0.748626 0.450030 0.130158
H3    H     H_    0.672469 0.249049 0.548579 0.130369
H4    H     H_    0.326664 0.248624 0.450029 0.130156
H5    H     H_    0.169294 0.727557 0.422780 0.129025
H6    H     H_    0.828795 0.729140 0.576002 0.126612
H7    H     H_    0.669293 0.227555 0.422781 0.129024
H8    H     H_    0.328797 0.229139 0.576002 0.126610
H9    H     H_    0.336202 0.462137 0.437924 0.121682
H10   H     H_    0.663496 0.465460 0.564091 0.120895
H11   H     H_    0.836203 0.962140 0.437924 0.121680
H12   H     H_    0.163494 0.965464 0.564092 0.120892
H13   H     H_    0.342166 0.488657 0.566373 0.120402
H14   H     H_    0.658690 0.489751 0.435384 0.113978
H15   H     H_    0.842167 0.988659 0.566372 0.120403
H16   H     H_    0.158689 0.989755 0.435384 0.113980
H17   H     H_    0.435457 0.008411 0.060505 0.146137
H18   H     H_    0.522204 0.004032 0.940562 0.158196
H19   H     H_    0.935486 0.508398 0.060493 0.145798
H20   H     H_    0.022227 0.504015 0.940543 0.158214
H21   H     H_    0.530777 0.646671 0.949358 0.195898
H22   H     H_    0.443925 0.655138 0.074213 0.170924
H23   H     H_    0.030804 0.146659 0.949342 0.195894
H24   H     H_    0.943952 0.155121 0.074198 0.170903
H25   H     H_    0.348872 0.548364 0.079437 0.163508
H26   H     H_    0.661721 0.471988 0.932361 0.197093
H27   H     H_    0.848880 0.048314 0.079446 0.163181
H28   H     H_    0.161705 0.972050 0.932340 0.197104
H29   H     H_    0.537667 0.651298 0.576524 0.130529
H30   H     H_    0.554112 0.645165 0.450540 0.136274
H31   H     H_    0.037663 0.151295 0.576523 0.130528
H32   H     H_    0.054107 0.145162 0.450539 0.136273
H33   H     H_    0.483099 0.013577 0.429112 0.124130
H34   H     H_    0.462705 0.017920 0.557191 0.135798
H35   H     H_    0.983103 0.513579 0.429113 0.124133
H36   H     H_    0.962710 0.517922 0.557192 0.135795
O1    O     O_R   0.214270 0.709000 0.827470 -0.468298
O2    O     O_R   0.785730 0.709000 0.172530 -0.484871
O3    O     O_R   0.714270 0.209000 0.827470 -0.468318
O4    O     O_R   0.285730 0.209000 0.172530 -0.484767
O5    O     O_R   0.445950 0.919440 0.676520 -0.507008
O6    O     O_R   0.554050 0.919440 0.323480 -0.511157
O7    O     O_R   0.945950 0.419440 0.676520 -0.507002
O8    O     O_R   0.054050 0.419440 0.323480 -0.511131
O9    O     O_R   0.456730 0.717630 0.669840 -0.521619
O10   O     O_R   0.543270 0.717630 0.330160 -0.532460
O11   O     O_R   0.956730 0.217630 0.669840 -0.521624
O12   O     O_R   0.043270 0.217630 0.330160 -0.532460
O13   O     O_R   0.320620 0.625640 0.672920 -0.506209
O14   O     O_R   0.679380 0.625640 0.327080 -0.512699
O15   O     O_R   0.820620 0.125640 0.672920 -0.506207
O16   O     O_R   0.179380 0.125640 0.327080 -0.512691
O17   O     O_3   0.334280 0.834290 0.749180 -0.287933
O18   O     O_3   0.665720 0.834290 0.250820 -0.259864
O19   O     O_3   0.834280 0.334290 0.749180 -0.287937
O20   O     O_3   0.165720 0.334290 0.250820 -0.259933
O21   O     O_R   0.236160 0.958490 0.823130 -0.496379
O22   O     O_R   0.763840 0.958490 0.176870 -0.454046
O23   O     O_R   0.736160 0.458490 0.823130 -0.496428
O24   O     O_R   0.263840 0.458490 0.176870 -0.453881
O25   O     O_R   0.332080 0.075470 0.831280 -0.504345
O26   O     O_R   0.667920 0.075470 0.168720 -0.506046
O27   O     O_R   0.832080 0.575470 0.831280 -0.504270
O28   O     O_R   0.167920 0.575470 0.168720 -0.506028
O29   O     O_R   0.446300 0.918110 0.826620 -0.515087
O30   O     O_R   0.553700 0.918110 0.173380 -0.523612
O31   O     O_R   0.946300 0.418110 0.826620 -0.515046
O32   O     O_R   0.053700 0.418110 0.173380 -0.523605
O33   O     O_R   0.457110 0.716200 0.831760 -0.511037
O34   O     O_R   0.542890 0.716200 0.168240 -0.503309
O35   O     O_R   0.957110 0.216200 0.831760 -0.511066
O36   O     O_R   0.042890 0.216200 0.168240 -0.503373
O37   O     O_R   0.320980 0.624310 0.823030 -0.469263
O38   O     O_R   0.679020 0.624310 0.176970 -0.459570
O39   O     O_R   0.820980 0.124310 0.823030 -0.469286
O40   O     O_R   0.179020 0.124310 0.176970 -0.459590
O41   O     O_R   0.213890 0.710430 0.665540 -0.531026
O42   O     O_R   0.786110 0.710430 0.334460 -0.537839
O43   O     O_R   0.713890 0.210430 0.665540 -0.531013
O44   O     O_R   0.286110 0.210430 0.334460 -0.537838
O45   O     O_R   0.235810 0.959820 0.673020 -0.516817
O46   O     O_R   0.764190 0.959820 0.326980 -0.521913
O47   O     O_R   0.735810 0.459820 0.673020 -0.516813
O48   O     O_R   0.264190 0.459820 0.326980 -0.521904
O49   O     O_R   0.331700 0.076900 0.669350 -0.535247
O50   O     O_R   0.668300 0.076900 0.330650 -0.534073
O51   O     O_R   0.831700 0.576900 0.669350 -0.535234
O52   O     O_R   0.168300 0.576900 0.330650 -0.534050
C101  C     C_2   0.336762 0.833782 0.009119 0.513303
O53   O     O_2   0.299251 0.833286 0.956218 -0.568835
O54   O     O_R   0.308720 0.840181 0.076906 -0.712152
H37   H     H_    0.256067 0.834650 0.076077 0.375055
C102  C     C_2   0.629669 0.834608 0.004639 0.533714
O55   O     O_2   0.663442 0.841200 0.059878 -0.516863
O56   O     O_R   0.662923 0.835885 0.939146 -0.672053
H38   H     H_    0.715269 0.848089 0.944069 0.360415
C103  C     C_2   0.836799 0.333781 0.009131 0.513302
O57   O     O_2   0.799277 0.333278 0.956238 -0.568914
O58   O     O_R   0.808773 0.340193 0.076925 -0.712168
H39   H     H_    0.756120 0.334659 0.076112 0.374998
C104  C     C_2   0.129711 0.334614 0.004602 0.533582
O59   O     O_2   0.163512 0.341227 0.059825 -0.517208
O60   O     O_R   0.162938 0.335892 0.939095 -0.672059
H40   H     H_    0.215283 0.348120 0.943998 0.360311
C105  C     C_2   0.379115 0.509366 0.944638 0.609225
O61   O     O_2   0.429290 0.498538 0.985303 -0.551757
O62   O     O_R   0.386286 0.466177 0.876248 -0.644017
H41   H     H_    0.437271 0.462677 0.861960 0.323562
C106  C     C_2   0.638215 0.475089 0.071148 0.634409
O63   O     O_2   0.579322 0.472151 0.044644 -0.481907
O64   O     O_R   0.652032 0.417610 0.136368 -0.662339
H42   H     H_    0.608123 0.399016 0.163525 0.324986
C107  C     C_2   0.879107 0.009362 0.944642 0.609241
O65   O     O_2   0.929290 0.998517 0.985292 -0.551577
O66   O     O_R   0.886248 0.966145 0.876259 -0.644016
H43   H     H_    0.937223 0.962655 0.861947 0.323561
C108  C     C_2   0.138196 0.975143 0.071122 0.634358
O67   O     O_2   0.079303 0.972198 0.044619 -0.481853
O68   O     O_R   0.152018 0.917638 0.136334 -0.662325
H44   H     H_    0.108112 0.898996 0.163483 0.324974
O69   O     O_3   0.132639 0.706845 0.063665 -0.508018
C109  C     C_3   0.068674 0.645614 0.072894 0.072037
H45   H     H_    0.076098 0.547463 0.073950 0.147855
H46   H     H_    0.031877 0.668284 0.028779 0.173227
C110  C     C_3   0.033741 0.684773 0.142012 -0.282153
H47   H     H_    0.021219 0.781222 0.139443 0.144780
H48   H     H_    0.985104 0.633058 0.150517 0.132798
H49   H     H_    0.066335 0.672631 0.190381 0.172287
O70   O     O_3   0.840529 0.738117 0.917146 -0.527076
C111  C     C_3   0.913506 0.709862 0.915448 0.082462
H50   H     H_    0.925435 0.617093 0.933780 0.112434
H51   H     H_    0.942729 0.772081 0.949867 0.231335
C112  C     C_3   0.941596 0.728174 0.839909 -0.316395
H52   H     H_    0.990245 0.781758 0.840350 0.116297
H53   H     H_    0.954055 0.641335 0.815320 0.147360
H54   H     H_    0.902396 0.774735 0.804871 0.199222
O71   O     O_3   0.632648 0.206881 0.063693 -0.508043
C113  C     C_3   0.568692 0.145628 0.072946 0.072153
H55   H     H_    0.576118 0.047476 0.073959 0.147825
H56   H     H_    0.531881 0.168318 0.028848 0.173543
C114  C     C_3   0.533787 0.184717 0.142105 -0.281949
H57   H     H_    0.521258 0.281163 0.139598 0.144287
H58   H     H_    0.485158 0.132982 0.150616 0.132864
H59   H     H_    0.566384 0.172552 0.190466 0.172352
O72   O     O_3   0.340518 0.238195 0.917113 -0.527107
C115  C     C_3   0.413494 0.209913 0.915370 0.082604
H60   H     H_    0.425427 0.117155 0.933722 0.112676
H61   H     H_    0.442749 0.272157 0.949741 0.231329
C116  C     C_3   0.441560 0.228197 0.839818 -0.316494
H62   H     H_    0.490233 0.281723 0.840240 0.116114
H63   H     H_    0.453997 0.141357 0.815226 0.147410
H64   H     H_    0.402361 0.274790 0.804797 0.199226
C117  C     C_2   0.123349 0.647920 0.915980 0.565058
O73   O     O_2   0.089677 0.740406 0.923706 -0.532091
O74   O     O_R   0.107735 0.571000 0.859733 -0.676122
H65   H     H_    0.069592 0.603395 0.826850 0.320813
C118  C     C_2   0.839667 0.761617 0.056956 0.630907
O75   O     O_2   0.805792 0.849985 0.068594 -0.489340
O76   O     O_R   0.911089 0.759187 0.069834 -0.768848
H66   H     H_    0.928077 0.841116 0.084722 0.357767
C119  C     C_2   0.623348 0.147939 0.916003 0.565065
O77   O     O_2   0.589650 0.240390 0.923740 -0.532171
O78   O     O_R   0.607736 0.071001 0.859764 -0.676092
H67   H     H_    0.569553 0.103341 0.826909 0.320818
C120  C     C_2   0.339832 0.261445 0.056984 0.630731
O79   O     O_2   0.306128 0.349947 0.068787 -0.489159
O80   O     O_R   0.411283 0.258691 0.069646 -0.769544
H68   H     H_    0.428444 0.340578 0.084348 0.358127

loop_
_geom_bond_atom_site_label_1
_geom_bond_atom_site_label_2
_ccdc_geom_bond_type
Cr2   O22   S    
C49   H1    S    
Cr2   O42   S    
C49   C53   A    
C112  H53   S    
C58   C62   A    
C46   O34   A    
Cr10  O18   S    
C90   C94   S    
C55   C59   A    
C63   H11   S    
C8    H24   S    
C34   C37   A    
C85   O13   A    
C41   C42   A    
C14   C18   A    
C87   O15   A    
C35   C36   A    
C40   C83   S    
Cr7   O19   S    
C62   H10   S    
C43   C44   A    
Cr9   O9    S    
C65   H13   S    
C89   H17   S    
C5    C94   S    
C84   O12   A    
C45   O33   A    
C28   C120  S    
Cr12  O36   S    
C55   H7    S    
C102  O55   D    
Cr3   O19   S    
C7    C96   S    
C8    C95   S    
O66   H43   S    
O71   C113  S    
C50   C54   A    
C7    C99   S    
C46   O30   A    
C37   C41   A    
Cr8   O20   S    
C64   C68   A    
C87   O43   A    
C92   H20   S    
C39   C84   S    
C38   C42   A    
C81   O5    A    
Cr1   O41   S    
C116  H63   S    
C54   C58   A    
C116  H62   S    
C82   O10   A    
C91   H19   S    
C53   H5    S    
C29   C73   S    
C76   O4    A    
C85   O41   A    
O76   H66   S    
Cr12  O20   S    
C14   H26   S    
Cr6   O50   S    
C92   C96   S    
C47   C99   S    
Cr8   O32   S    
C3    C18   S    
C61   H9    S    
O72   C115  S    
C78   O46   A    
Cr1   O1    S    
C30   C74   S    
C9    C13   A    
Cr9   O17   S    
C77   O45   A    
C83   O11   A    
C10   C106  S    
C44   H36   S    
C107  O66   S    
C15   C19   A    
C52   C56   A    
C11   C15   A    
C21   O69   S    
O78   H67   S    
C75   O3    A    
Cr6   O6    S    
C111  H51   S    
O80   H68   S    
C43   H35   S    
Cr1   O21   S    
C114  H57   S    
C86   O14   A    
C23   C27   A    
C91   C100  S    
C93   C101  S    
C117  O73   D    
C68   H16   S    
C90   C97   S    
C67   C71   A    
C76   O40   A    
C9    C29   A    
Cr6   O30   S    
C27   C119  S    
Cr7   O31   S    
C25   C117  S    
C113  C114  S    
C104  O60   S    
C46   C98   S    
C6    H22   S    
C11   C31   A    
Cr2   O18   S    
C106  O64   S    
C49   C69   A    
C118  O75   D    
C12   C32   A    
Cr3   O23   S    
C41   H33   S    
C56   H8    S    
C57   C80   S    
C16   H28   S    
C94   C102  S    
C109  H46   S    
C101  O54   S    
C77   O49   A    
C91   C92   S    
C80   O48   A    
Cr2   O46   S    
C59   C78   S    
C72   C88   S    
C108  O67   D    
Cr1   O45   S    
C107  O65   D    
C15   H27   S    
C52   H4    S    
Cr10  O14   S    
Cr12  O16   S    
C63   C67   A    
C60   C77   S    
C86   O42   A    
C111  C112  S    
C79   O51   A    
C62   C66   A    
C27   C31   A    
O56   H38   S    
C95   C103  S    
C12   C16   A    
C12   C108  S    
C48   C100  S    
C81   O9    A    
O64   H42   S    
C103  O57   D    
C10   C14   A    
O62   H41   S    
Cr3   O47   S    
C42   H34   S    
C53   C57   A    
C19   C23   A    
C39   C43   A    
C51   C55   A    
Cr9   O37   S    
Cr5   O5    S    
C104  O59   D    
C24   O72   S    
C118  O76   S    
C17   C21   A    
C96   C104  S    
C66   H14   S    
C82   O6    A    
C68   C72   A    
Cr5   O49   S    
C109  C110  S    
C13   H25   S    
Cr8   O52   S    
C5    H21   S    
O60   H40   S    
C7    H23   S    
C106  O63   D    
C52   C72   A    
C67   H15   S    
C116  H64   S    
C26   C118  S    
C34   H30   S    
C10   C30   A    
C114  H58   S    
O58   H39   S    
Cr8   O8    S    
C28   C32   A    
C88   O16   A    
C16   C20   A    
C6    C93   S    
C1    O25   A    
Cr11  O35   S    
C33   C34   A    
Cr4   O48   S    
Cr6   O26   S    
Cr1   O17   S    
C117  O74   S    
C47   O35   A    
Cr10  O38   S    
C47   O31   A    
C58   C79   S    
C2    O22   A    
C71   C87   S    
C4    C17   S    
C6    C98   S    
C105  O61   D    
Cr2   O2    S    
C26   C30   A    
C79   O47   A    
C120  O80   S    
C38   C81   S    
C22   C26   A    
C120  O79   D    
C64   H12   S    
C37   C82   S    
C112  H54   S    
C115  C116  S    
Cr3   O43   S    
C109  H45   S    
C70   C86   S    
C54   H6    S    
C93   C97   S    
C115  H61   S    
C48   O32   A    
C69   C85   S    
C11   C107  S    
Cr9   O33   S    
C48   O36   A    
Cr12  O40   S    
O69   C109  S    
C9    C105  S    
C35   C40   A    
C88   O44   A    
C21   C25   A    
C103  O58   S    
C1    C20   S    
C4    O24   A    
C80   O52   A    
C73   O1    A    
C2    C19   S    
C18   C22   A    
C59   C63   A    
C36   C39   A    
C75   O39   A    
C24   C28   A    
Cr5   O29   S    
Cr10  O10   S    
C32   C76   S    
C114  H59   S    
C73   O37   A    
O74   H65   S    
C51   C71   A    
C57   C61   A    
Cr3   O3    S    
C119  O77   D    
C78   O50   A    
C66   C70   A    
Cr11  O39   S    
C33   C38   A    
C36   H32   S    
C101  O53   D    
Cr4   O24   S    
C89   C98   S    
C60   C64   A    
C33   H29   S    
Cr4   O4    S    
C110  H48   S    
C115  H60   S    
C113  H55   S    
C111  H50   S    
Cr4   O20   S    
C3    O27   A    
Cr11  O15   S    
Cr9   O13   S    
C2    O26   A    
Cr7   O51   S    
C45   O29   A    
C84   O8    A    
C25   C29   A    
C8    C100  S    
C5    C6    S    
Cr7   O27   S    
Cr6   O18   S    
O70   C111  S    
C65   C69   A    
C110  H47   S    
Cr8   O28   S    
C1    O21   A    
C119  O78   S    
Cr5   O17   S    
C56   C60   A    
C5    C97   S    
C95   C99   S    
C61   C65   A    
C89   C93   S    
C105  O62   S    
C51   H3    S    
C50   C70   A    
C23   O71   S    
C7    C8    S    
Cr11  O19   S    
C91   C95   S    
C13   C17   A    
C90   H18   S    
Cr12  O12   S    
C40   C44   A    
C96   C100  S    
C83   O7    A    
Cr10  O34   S    
C108  O68   S    
C4    O28   A    
C110  H49   S    
O68   H44   S    
C94   C98   S    
C74   O2    A    
Cr5   O25   S    
C31   C75   S    
O54   H37   S    
C50   H2    S    
C89   C90   S    
C112  H52   S    
C102  O56   S    
C113  H56   S    
C20   C24   A    
C22   O70   S    
Cr7   O7    S    
C45   C97   S    
C3    O23   A    
C92   C99   S    
C35   H31   S    
C74   O38   A    
Cr11  O11   S    
Cr4   O44   S    
