data_mof_unit_25469.cif
_audit_creation_date              2012-12-11T14:40:29-0500
_audit_creation_method            fapswitch 2.2
_symmetry_space_group_name_H-M    P1
_symmetry_Int_Tables_number       1
_space_group_crystal_system       triclinic
_cell_length_a                    19.642914
_cell_length_b                    11.104327
_cell_length_c                    19.369436
_cell_angle_alpha                 89.579096
_cell_angle_beta                  97.10556
_cell_angle_gamma                 90.316653
_cell_volume                      4192.28142548

loop_
_atom_site_label
_atom_site_type_symbol
_atom_type_description
_atom_site_fract_x
_atom_site_fract_y
_atom_site_fract_z
_atom_type_partial_charge
C1    C     C_R   0.707258 0.998683 0.366458 0.580462
C2    C     C_3   0.248333 0.428762 0.574574 0.002237
C3    C     C_3   0.425613 0.487600 0.367887 -0.344753
C4    C     C_3   0.101075 0.071200 0.517073 -0.018119
C5    C     C_3   0.084208 0.996170 0.579301 -0.354390
C6    C     C_3   0.891219 0.004381 0.433149 0.018833
C7    C     C_3   0.925485 0.987465 0.367738 -0.342798
C8    C     C_3   0.705295 0.644778 0.360887 0.034237
C9    C     C_3   0.720639 0.649455 0.285418 -0.225233
C10   C     C_3   0.654523 0.650731 0.234801 -0.443215
C11   C     C_3   0.391988 0.572079 0.602378 0.004385
C12   C     C_3   0.393962 0.623965 0.675680 -0.237812
C13   C     C_3   0.252142 0.910796 0.430993 0.014063
C14   C     C_3   0.460672 0.594755 0.721651 -0.464808
C15   C     C_3   0.205176 0.144808 0.361082 0.034453
C16   C     C_3   0.220504 0.149450 0.285636 -0.226166
C17   C     C_3   0.154373 0.150329 0.235054 -0.445069
C18   C     C_3   0.892083 0.072038 0.602127 0.004050
C19   C     C_3   0.894533 0.123921 0.675465 -0.236964
C20   C     C_3   0.961622 0.095163 0.720881 -0.466237
C21   C     C_3   0.627543 0.283981 0.957365 0.014266
C22   C     C_3   0.687649 0.220706 0.931498 -0.350528
C23   C     C_3   0.299635 0.179208 0.954335 0.005812
C24   C     C_3   0.748319 0.928701 0.574553 0.003856
C25   C     C_3   0.223523 0.167937 0.969403 -0.339567
C26   C     C_3   0.200262 0.678852 0.046118 0.006745
C27   C     C_3   0.276376 0.668256 0.031251 -0.338646
C28   C     C_3   0.873413 0.784554 0.042530 0.016862
C29   C     C_3   0.813545 0.720885 0.069843 -0.354099
C30   C     C_3   0.503799 0.874526 0.089064 0.007256
C31   C     C_3   0.490152 0.740582 0.077491 -0.399898
C32   C     C_3   0.525787 0.904077 0.913801 0.010073
C33   C     C_3   0.575669 0.799652 0.927818 -0.395692
C34   C     C_3   0.972940 0.404717 0.088920 0.010203
C35   C     C_3   0.764802 0.540519 0.453556 0.265508
C36   C     C_3   0.922674 0.300159 0.075272 -0.395984
C37   C     C_3   0.994447 0.374295 0.913890 0.008722
C38   C     C_3   0.007253 0.240390 0.926869 -0.399181
C39   C     C_3   0.286332 0.523775 0.535769 0.240571
C40   C     C_3   0.264785 0.040505 0.453618 0.265311
C41   C     C_3   0.786311 0.023736 0.535766 0.240604
C42   C     C_3   0.826532 0.499497 0.505561 -0.150961
C43   C     C_3   0.215580 0.564726 0.497574 -0.160241
C44   C     C_3   0.326526 0.999498 0.505597 -0.150613
C45   C     C_R   0.293299 0.002098 0.634055 0.570926
C46   C     C_3   0.715557 0.064660 0.497565 -0.160345
C47   C     C_3   0.812926 0.367536 0.482883 -0.114628
C48   C     C_3   0.178529 0.467862 0.537379 -0.177556
C49   C     C_3   0.312946 0.867541 0.482887 -0.114444
C50   C     C_3   0.678512 0.967762 0.537348 -0.176984
C51   C     C_3   0.762635 0.349868 0.537422 -0.128913
C52   C     C_3   0.185745 0.376505 0.479380 -0.113052
C53   C     C_3   0.262665 0.849792 0.537431 -0.129397
C54   C     C_3   0.685763 0.876428 0.479343 -0.113087
C55   C     C_3   0.776858 0.480277 0.560058 0.014750
C56   C     C_R   0.207256 0.498691 0.366459 0.580472
C57   C     C_3   0.222676 0.472385 0.440329 0.012405
C58   C     C_3   0.276859 0.980200 0.560087 0.015752
C59   C     C_3   0.722686 0.972343 0.440315 0.011817
C60   C     C_3   0.482905 0.278848 0.979910 -0.205651
C61   C     C_3   0.439771 0.244886 0.038992 -0.199662
C62   C     C_3   0.060632 0.744442 0.960341 -0.199290
C63   C     C_3   0.017804 0.779275 0.019144 -0.207300
C64   C     C_3   0.540949 0.197029 0.012608 0.267107
C65   C     C_3   0.411401 0.135074 0.996280 0.241465
C66   C     C_3   0.088369 0.634879 0.004196 0.242503
C67   C     C_R   0.793301 0.502115 0.634049 0.570936
C68   C     C_3   0.959185 0.697306 0.987462 0.267486
C69   C     C_3   0.498325 0.165319 0.072132 -0.004301
C70   C     C_3   0.454113 0.168423 0.937192 -0.048151
C71   C     C_3   0.045951 0.669306 0.062961 -0.049229
C72   C     C_3   0.001473 0.664810 0.928127 -0.004425
C73   C     C_R   0.535877 0.179876 0.338090 0.536118
C74   C     C_R   0.465191 0.180706 0.662750 0.548884
C75   C     C_R   0.035865 0.679875 0.338078 0.547386
C76   C     C_R   0.965179 0.680708 0.662737 0.537011
C77   C     C_3   0.469645 0.054515 0.031208 0.259690
C78   C     C_3   0.701614 0.392189 0.485076 -0.193317
C79   C     C_3   0.511780 0.086391 0.971491 0.254640
C80   C     C_3   0.987795 0.586947 0.029635 0.255793
C81   C     C_3   0.029601 0.554339 0.970164 0.258995
C82   C     C_1   0.784848 0.481613 0.915657 0.004476
C83   C     C_1   0.236512 0.418425 0.095000 0.000732
C84   C     C_1   0.263686 0.918334 0.905216 0.002743
C85   C     C_1   0.716175 0.980666 0.084285 0.005812
C86   C     C_1   0.761275 0.442428 0.043376 -0.052619
C87   C     C_1   0.244155 0.430544 0.959371 0.016144
C88   C     C_1   0.255905 0.930620 0.040447 0.018956
C89   C     C_3   0.256470 0.337679 0.516108 -0.038004
C90   C     C_1   0.739304 0.940527 0.956688 -0.053620
C91   C     C_1   0.774694 0.466444 0.974988 -0.034542
C92   C     C_1   0.241209 0.414930 0.032957 0.012519
C93   C     C_1   0.258916 0.914868 0.967142 0.011046
C94   C     C_1   0.726288 0.964827 0.025070 -0.037610
C95   C     C_1   0.749692 0.413128 0.100590 -0.005453
C96   C     C_1   0.249642 0.419470 0.897847 -0.020402
C97   C     C_1   0.250366 0.919680 0.101923 -0.024326
C98   C     C_1   0.750554 0.911595 0.899501 0.000990
C99   C     C_R   0.739403 0.361368 0.361940 0.547278
C100  C     C_3   0.201629 0.892109 0.485094 -0.193601
C101  C     C_R   0.259023 0.370709 0.641984 0.536481
C102  C     C_R   0.239404 0.861371 0.361945 0.550983
C103  C     C_R   0.759021 0.870699 0.641978 0.532288
C104  C     C_R   0.704266 0.998860 0.154772 0.584689
C105  C     C_R   0.277287 0.949671 0.835699 0.533351
C106  C     C_R   0.222827 0.449644 0.164423 0.528292
C107  C     C_R   0.796160 0.499045 0.844884 0.580161
C108  C     C_R   0.530271 0.178199 0.142043 0.582620
C109  C     C_R   0.435803 0.181448 0.862437 0.563498
C110  C     C_R   0.064235 0.682291 0.137608 0.565527
C111  C     C_3   0.756486 0.837637 0.516085 -0.037745
C112  C     C_R   0.969564 0.678047 0.858116 0.578929
C113  C     C_R   0.736912 0.362201 0.165551 0.553474
C114  C     C_R   0.261257 0.369186 0.831492 0.509700
C115  C     C_R   0.238770 0.869166 0.168420 0.505567
C116  C     C_R   0.763177 0.861763 0.834539 0.556523
C117  C     C_1   0.488638 0.174084 0.596410 -0.027133
C118  C     C_1   0.516112 0.171838 0.406079 -0.005605
C119  C     C_1   0.988624 0.674086 0.596397 -0.024526
C120  C     C_1   0.016099 0.671838 0.406067 -0.008990
C121  C     C_1   0.507321 0.169497 0.466163 -0.039384
C122  C     C_3   0.752137 0.410797 0.430979 0.015356
C123  C     C_1   0.499624 0.170758 0.537004 -0.062706
C124  C     C_1   0.007307 0.669499 0.466151 -0.040138
C125  C     C_1   0.999610 0.670761 0.536991 -0.061991
C126  C     C_3   0.715710 0.522972 0.508685 0.272458
C127  C     C_3   0.292721 0.435105 0.477129 0.286270
C128  C     C_3   0.215702 0.022876 0.508740 0.272923
C129  C     C_3   0.792735 0.935087 0.477119 0.286023
C130  C     C_3   0.601067 0.571436 0.516836 -0.018814
C131  C     C_3   0.583993 0.496508 0.579021 -0.353102
C132  C     C_3   0.391163 0.504580 0.433177 0.019614
Cr1   Cr    Cr6+3 0.765830 0.160660 0.268180 0.993344
Cr2   Cr    Cr6+3 0.384070 0.324050 0.751550 0.956147
Cr3   Cr    Cr6+3 0.115930 0.824050 0.248450 0.955958
Cr4   Cr    Cr6+3 0.884070 0.824050 0.751550 0.981634
Cr5   Cr    Cr6+3 0.234170 0.160660 0.731820 1.008272
Cr6   Cr    Cr6+3 0.265830 0.660660 0.268180 0.982469
Cr7   Cr    Cr6+3 0.734170 0.660660 0.731820 1.020778
Cr8   Cr    Cr6+3 0.612110 0.009150 0.248770 0.964901
Cr9   Cr    Cr6+3 0.387890 0.009150 0.751230 0.981112
Cr10  Cr    Cr6+3 0.112110 0.509150 0.248770 0.968628
Cr11  Cr    Cr6+3 0.887890 0.509150 0.751230 0.978534
Cr12  Cr    Cr6+3 0.615930 0.324050 0.248450 0.980827
H1    H     H_    0.651128 0.346302 0.474064 0.102452
H2    H     H_    0.131808 0.483668 0.562894 0.134302
H3    H     H_    0.021570 0.382580 0.068063 0.167867
H4    H     H_    0.900639 0.297197 0.019818 0.157774
H5    H     H_    0.949249 0.213851 0.089524 0.087330
H6    H     H_    0.880338 0.309744 0.107621 0.178305
H7    H     H_    0.992240 0.388396 0.856969 0.177995
H8    H     H_    0.944255 0.398847 0.930833 0.159330
H9    H     H_    0.016902 0.220669 0.983403 0.149665
H10   H     H_    0.961882 0.187721 0.903991 0.105249
H11   H     H_    0.052741 0.211795 0.902384 0.153617
H12   H     H_    0.353065 0.802894 0.471901 0.158649
H13   H     H_    0.631782 0.983528 0.562853 0.134293
H14   H     H_    0.758448 0.277518 0.576290 0.194182
H15   H     H_    0.141892 0.318795 0.458653 0.144081
H16   H     H_    0.258507 0.777425 0.576296 0.192964
H17   H     H_    0.641949 0.818686 0.458550 0.144143
H18   H     H_    0.489231 0.372296 0.960750 0.135126
H19   H     H_    0.409104 0.307418 0.067130 0.125194
H20   H     H_    0.091675 0.806517 0.931482 0.125679
H21   H     H_    0.277639 0.246492 0.526627 0.170020
H22   H     H_    0.012208 0.872874 0.037436 0.133639
H23   H     H_    0.588016 0.522421 0.467005 0.108070
H24   H     H_    0.567508 0.651958 0.512869 0.131694
H25   H     H_    0.591418 0.551843 0.626867 0.164735
H26   H     H_    0.529879 0.465526 0.570005 0.084351
H27   H     H_    0.617234 0.415999 0.587060 0.159822
H28   H     H_    0.432337 0.510924 0.477449 0.112786
H29   H     H_    0.362293 0.590914 0.427813 0.166652
H30   H     H_    0.386627 0.478360 0.321595 0.182483
H31   H     H_    0.459070 0.566294 0.360211 0.064715
H32   H     H_    0.151144 0.846224 0.474066 0.102321
H33   H     H_    0.457508 0.405426 0.373445 0.177306
H34   H     H_    0.087930 0.022217 0.467247 0.108080
H35   H     H_    0.067476 0.151666 0.513223 0.131754
H36   H     H_    0.091985 0.051321 0.627202 0.165005
H37   H     H_    0.030028 0.965485 0.570534 0.084524
H38   H     H_    0.117323 0.915472 0.587075 0.158089
H39   H     H_    0.932513 0.010434 0.477320 0.112382
H40   H     H_    0.862441 0.090820 0.427951 0.165743
H41   H     H_    0.886405 0.978572 0.321503 0.185979
H42   H     H_    0.959054 0.066021 0.360095 0.063492
H43   H     H_    0.777675 0.746462 0.526598 0.169799
H44   H     H_    0.957235 0.905113 0.373110 0.178037
H45   H     H_    0.679154 0.727088 0.371985 0.177897
H46   H     H_    0.666632 0.573924 0.368020 0.119955
H47   H     H_    0.751046 0.731917 0.277163 0.203536
H48   H     H_    0.751609 0.569995 0.274554 0.169389
H49   H     H_    0.624256 0.567419 0.240737 0.161491
H50   H     H_    0.667157 0.656153 0.180532 0.148539
H51   H     H_    0.622565 0.729364 0.244729 0.166689
H52   H     H_    0.437343 0.608754 0.580257 0.119760
H53   H     H_    0.397172 0.472476 0.602878 0.175413
H54   H     H_    0.377114 0.044722 0.514866 0.130154
H55   H     H_    0.389867 0.723183 0.671409 0.204031
H56   H     H_    0.349645 0.590591 0.700813 0.183278
H57   H     H_    0.466791 0.496282 0.728638 0.199703
H58   H     H_    0.459877 0.635838 0.773654 0.127594
H59   H     H_    0.505205 0.632127 0.698320 0.123910
H60   H     H_    0.179012 0.227105 0.372157 0.177657
H61   H     H_    0.166542 0.073901 0.368240 0.120507
H62   H     H_    0.250790 0.232029 0.277343 0.192974
H63   H     H_    0.251609 0.070139 0.274852 0.174193
H64   H     H_    0.124181 0.066989 0.241167 0.165270
H65   H     H_    0.695055 0.155281 0.485545 0.108336
H66   H     H_    0.166970 0.155473 0.180767 0.145842
H67   H     H_    0.122388 0.228984 0.244877 0.164242
H68   H     H_    0.937263 0.108704 0.579697 0.119680
H69   H     H_    0.897221 0.972418 0.602651 0.175138
H70   H     H_    0.890167 0.223116 0.671232 0.205031
H71   H     H_    0.850564 0.090179 0.701011 0.183151
H72   H     H_    0.968069 0.996736 0.727766 0.195807
H73   H     H_    0.961124 0.136105 0.772926 0.128651
H74   H     H_    0.005805 0.133050 0.697198 0.125138
H75   H     H_    0.640550 0.379723 0.968158 0.139016
H76   H     H_    0.877132 0.544678 0.514825 0.130513
H77   H     H_    0.585787 0.283509 0.912848 0.150300
H78   H     H_    0.670285 0.131665 0.910753 0.194080
H79   H     H_    0.705548 0.272990 0.888117 0.107977
H80   H     H_    0.730584 0.210252 0.974052 0.164416
H81   H     H_    0.302385 0.165202 0.898437 0.160535
H82   H     H_    0.319742 0.268966 0.967636 0.117608
H83   H     H_    0.220463 0.165380 0.026225 0.150858
H84   H     H_    0.189500 0.238895 0.945830 0.139556
H85   H     H_    0.194656 0.093050 0.943129 0.123253
H86   H     H_    0.197351 0.665077 0.102108 0.162751
H87   H     H_    0.195071 0.655328 0.485536 0.108312
H88   H     H_    0.180450 0.768425 0.032135 0.116164
H89   H     H_    0.279500 0.665238 0.974484 0.155085
H90   H     H_    0.310444 0.739850 0.054034 0.140152
H91   H     H_    0.305191 0.594092 0.058460 0.123088
H92   H     H_    0.860451 0.880067 0.030817 0.139351
H93   H     H_    0.915544 0.785036 0.086671 0.150333
H94   H     H_    0.830920 0.632279 0.091582 0.193516
H95   H     H_    0.796130 0.773493 0.112815 0.100741
H96   H     H_    0.770221 0.709480 0.027820 0.164110
H97   H     H_    0.506195 0.888908 0.145858 0.175912
H98   H     H_    0.853029 0.302842 0.471918 0.158489
H99   H     H_    0.554101 0.898674 0.071737 0.160996
H100  H     H_    0.481568 0.720086 0.021157 0.149671
H101  H     H_    0.534694 0.687828 0.102044 0.100366
H102  H     H_    0.443796 0.712844 0.101244 0.155826
H103  H     H_    0.514165 0.910729 0.856484 0.175306
H104  H     H_    0.477220 0.881576 0.935088 0.167653
H105  H     H_    0.597456 0.795908 0.983366 0.156360
H106  H     H_    0.548811 0.713394 0.913661 0.088065
H107  H     H_    0.618208 0.810154 0.895620 0.176819
H108  H     H_    0.984331 0.410987 0.146228 0.173472
O1    O     O_R   0.783230 0.287800 0.346510 -0.538618
O2    O     O_R   0.454570 0.285140 0.836900 -0.530354
O3    O     O_R   0.045430 0.785140 0.163100 -0.525494
O4    O     O_R   0.954570 0.785140 0.836900 -0.501060
O5    O     O_R   0.677850 0.374730 0.185500 -0.488114
O6    O     O_R   0.322150 0.374730 0.814500 -0.522552
O7    O     O_R   0.177850 0.874730 0.185500 -0.526768
O8    O     O_R   0.822150 0.874730 0.814500 -0.484081
O9    O     O_3   0.664630 0.164620 0.255130 -0.281595
O10   O     O_3   0.335370 0.164620 0.744870 -0.293009
O11   O     O_3   0.164630 0.664620 0.255130 -0.288149
O12   O     O_R   0.216770 0.287800 0.653490 -0.486551
O13   O     O_3   0.835370 0.664620 0.744870 -0.288196
O14   O     O_R   0.760130 0.037060 0.338610 -0.487943
O15   O     O_R   0.239870 0.037060 0.661390 -0.473212
O16   O     O_R   0.260130 0.537060 0.338610 -0.489162
O17   O     O_R   0.739870 0.537060 0.661390 -0.470715
O18   O     O_R   0.666620 0.921370 0.332440 -0.546706
O19   O     O_R   0.333380 0.921370 0.667560 -0.537196
O20   O     O_R   0.166620 0.421370 0.332440 -0.550321
O21   O     O_R   0.833380 0.421370 0.667560 -0.531834
O22   O     O_R   0.557170 0.082420 0.312350 -0.512606
O23   O     O_R   0.283230 0.787800 0.346510 -0.534584
O24   O     O_R   0.442830 0.082420 0.687650 -0.508036
O25   O     O_R   0.057170 0.582420 0.312350 -0.507099
O26   O     O_R   0.942830 0.582420 0.687650 -0.513346
O27   O     O_R   0.548310 0.285980 0.316250 -0.533699
O28   O     O_R   0.451690 0.285980 0.683750 -0.534296
O29   O     O_R   0.048310 0.785980 0.316250 -0.525687
O30   O     O_R   0.951690 0.785980 0.683750 -0.541875
O31   O     O_R   0.680520 0.375500 0.327470 -0.527165
O32   O     O_R   0.319480 0.375500 0.672530 -0.526877
O33   O     O_R   0.180520 0.875500 0.327470 -0.523430
O34   O     O_R   0.716770 0.787800 0.653490 -0.490589
O35   O     O_R   0.819480 0.875500 0.672530 -0.530353
O36   O     O_R   0.780350 0.286970 0.193350 -0.528600
O37   O     O_R   0.219650 0.286970 0.806650 -0.517015
O38   O     O_R   0.280350 0.786970 0.193350 -0.511188
O39   O     O_R   0.719650 0.786970 0.806650 -0.533422
O40   O     O_R   0.757460 0.036290 0.196640 -0.500439
O41   O     O_R   0.242540 0.036290 0.803360 -0.511442
O42   O     O_R   0.257460 0.536290 0.196640 -0.510453
O43   O     O_R   0.742540 0.536290 0.803360 -0.498652
O44   O     O_R   0.663740 0.920540 0.179290 -0.550419
O45   O     O_R   0.554500 0.081650 0.170370 -0.535413
O46   O     O_R   0.336260 0.920540 0.820710 -0.519914
O47   O     O_R   0.163740 0.420540 0.179290 -0.528894
O48   O     O_R   0.836260 0.420540 0.820710 -0.536277
O49   O     O_3   0.669862 0.611974 0.526814 -0.557041
O50   O     O_3   0.349647 0.403225 0.443065 -0.533108
O51   O     O_3   0.169850 0.111866 0.526873 -0.556712
O52   O     O_3   0.849643 0.903119 0.443049 -0.532464
O53   O     O_3   0.767306 0.637565 0.406504 -0.552839
O54   O     O_3   0.333194 0.615276 0.560632 -0.617810
O55   O     O_3   0.267213 0.137668 0.406650 -0.553140
O56   O     O_R   0.445500 0.081650 0.829630 -0.498323
O57   O     O_3   0.833082 0.115276 0.560749 -0.617539
O58   O     O_3   0.611188 0.228629 0.019713 -0.539461
O59   O     O_3   0.342834 0.097014 0.993258 -0.538774
O60   O     O_3   0.156762 0.596440 0.007811 -0.536964
O61   O     O_3   0.889105 0.728930 0.980510 -0.539397
O62   O     O_3   0.448551 0.940659 0.054602 -0.545843
O63   O     O_3   0.557500 0.012205 0.939800 -0.556402
O64   O     O_3   0.941821 0.512987 0.062249 -0.555869
O65   O     O_3   0.050043 0.440354 0.947846 -0.546063
O66   O     O_R   0.054500 0.581650 0.170370 -0.497275
O67   O     O_R   0.945500 0.581650 0.829630 -0.537103
O68   O     O_R   0.545430 0.285140 0.163100 -0.497401

loop_
_geom_bond_atom_site_label_1
_geom_bond_atom_site_label_2
_ccdc_geom_bond_type
C104  O40   A    
C72   C112  S    
C7    H42   S    
C19   C20   S    
Cr6   O42   S    
Cr7   O39   S    
C26   H86   S    
C112  O67   A    
Cr7   O17   S    
C109  O56   A    
C41   O57   S    
C21   H77   S    
C32   H104  S    
C102  O33   A    
C76   O30   A    
C42   H76   S    
C107  O48   A    
C40   C128  S    
C14   H57   S    
C56   C57   S    
C35   C42   S    
Cr11  O67   S    
Cr12  O68   S    
C130  H23   S    
C36   H4    S    
C63   H22   S    
C59   C129  S    
C8    H46   S    
C30   H97   S    
Cr4   O8    S    
Cr3   O33   S    
C97   C115  S    
C40   O55   S    
Cr4   O30   S    
C88   C97   T    
Cr5   O10   S    
C11   O54   S    
C21   C22   S    
C24   C41   S    
C96   C114  S    
C52   C89   S    
Cr12  O9    S    
Cr10  O25   S    
C23   H81   S    
Cr11  O48   S    
C77   C79   S    
C65   C77   S    
C31   H100  S    
C17   H66   S    
C10   H49   S    
Cr1   O1    S    
C8    O53   S    
C82   C91   T    
C6    H40   S    
Cr11  O13   S    
C4    O51   S    
C37   C38   S    
C42   C55   S    
C55   C126  S    
C68   C72   S    
C131  H27   S    
C84   C105  S    
C28   O61   S    
C103  O35   A    
C63   C71   S    
C130  O49   S    
C21   O58   S    
C64   C79   S    
Cr10  O11   S    
C4    H35   S    
C56   O20   A    
C5    H38   S    
C89   C127  S    
C131  H25   S    
C101  O32   A    
C70   C79   S    
C35   C122  S    
C4    C5    S    
C53   C58   S    
C6    C7    S    
C32   O63   S    
C60   C64   S    
C10   H50   S    
C130  C131  S    
C80   O64   S    
C51   C78   S    
C115  O7    A    
C36   H6    S    
C126  O49   S    
C49   C53   S    
C75   O25   A    
C19   H71   S    
C84   C93   T    
C33   H106  S    
C121  C123  S    
C86   C95   T    
Cr5   O12   S    
C61   C65   S    
C45   O15   A    
C132  H28   S    
C9    H47   S    
C129  O52   S    
C58   C128  S    
C20   H73   S    
C69   C77   S    
C108  O45   A    
C73   O27   A    
Cr1   O9    S    
C74   O28   A    
C65   C70   S    
C109  O2    A    
Cr10  O47   S    
C60   H18   S    
C9    C10   S    
C51   C55   S    
Cr7   O13   S    
C14   H59   S    
C38   H11   S    
C115  O38   A    
C54   C59   S    
C24   C50   S    
C62   C66   S    
Cr10  O66   S    
C65   O59   S    
C66   O60   S    
C128  O51   S    
C22   H80   S    
C25   H83   S    
Cr2   O32   S    
Cr7   O34   S    
C3    H30   S    
C48   C52   S    
C73   O22   A    
Cr1   O36   S    
Cr12  O31   S    
C12   H56   S    
C64   C69   S    
Cr12  O5    S    
C6    O52   S    
C28   H92   S    
C105  O46   A    
C37   H8    S    
C29   H94   S    
C63   C68   S    
C73   C118  S    
C100  C128  S    
C7    H41   S    
C75   C120  S    
C4    H34   S    
C57   C127  S    
C47   H98   S    
Cr8   O45   S    
Cr9   O56   S    
Cr3   O7    S    
Cr6   O23   S    
Cr8   O9    S    
C24   C103  S    
Cr2   O28   S    
C34   O64   S    
C14   H58   S    
C68   O61   S    
Cr12  O27   S    
C34   C36   S    
C54   H17   S    
C56   O16   A    
C43   C57   S    
C130  H24   S    
C40   C44   S    
C21   H75   S    
C101  O12   A    
C38   H9    S    
C13   C102  S    
Cr4   O35   S    
C16   H63   S    
C127  O50   S    
C44   H54   S    
C77   O62   S    
C22   H78   S    
C25   H85   S    
C26   C27   S    
C50   C54   S    
C113  O5    A    
C20   H72   S    
C28   C29   S    
C105  O41   A    
C86   C91   S    
C1    C59   S    
C30   C31   S    
C107  O43   A    
C112  O4    A    
C71   C110  S    
C18   C19   S    
C13   C40   S    
C27   H90   S    
C111  C129  S    
C62   H20   S    
C1    O14   A    
C44   C58   S    
C16   C17   S    
C26   O60   S    
C100  H32   S    
C37   O65   S    
C31   H102  S    
C102  O23   A    
C106  O47   A    
C29   H96   S    
C72   C81   S    
C132  O50   S    
C87   C92   S    
C79   O63   S    
C30   O62   S    
C5    H37   S    
C90   C94   S    
C53   C100  S    
C45   C58   S    
C32   H103  S    
C3    C132  S    
C39   O54   S    
C11   H52   S    
C47   C51   S    
C2    C48   S    
Cr11  O26   S    
C60   C61   S    
C2    C89   S    
C5    H36   S    
C62   C63   S    
C34   H3    S    
C66   C71   S    
C8    H45   S    
C33   H105  S    
C15   H61   S    
C85   C104  S    
C99   C122  S    
C119  C125  T    
C3    H31   S    
C78   C126  S    
C23   H82   S    
C46   C50   S    
C53   H16   S    
C25   H84   S    
C20   H74   S    
C110  O66   A    
C17   H67   S    
C35   O53   S    
C15   O55   S    
C104  O44   A    
C46   H65   S    
C51   H14   S    
C111  H43   S    
C83   C106  S    
C6    H39   S    
C32   C33   S    
Cr6   O38   S    
C66   C81   S    
Cr7   O43   S    
Cr6   O16   S    
Cr8   O18   S    
C54   C111  S    
Cr9   O19   S    
C117  C123  T    
C52   C57   S    
C67   O17   A    
Cr11  O21   S    
Cr3   O3    S    
C44   C49   S    
C68   C80   S    
C131  H26   S    
Cr3   O11   S    
C46   C59   S    
Cr9   O10   S    
C49   H12   S    
Cr3   O29   S    
C64   O58   S    
C15   H60   S    
Cr1   O14   S    
C17   H64   S    
C83   C92   T    
C16   H62   S    
C113  O36   A    
C28   H93   S    
C36   H5    S    
C15   C16   S    
Cr8   O22   S    
C33   H107  S    
C78   H1    S    
C2    C39   S    
C8    C9    S    
C48   H2    S    
C41   C46   S    
C23   O59   S    
C9    H48   S    
C43   C48   S    
C110  O3    A    
C116  O8    A    
C27   H91   S    
C42   C47   S    
C52   H15   S    
Cr2   O10   S    
C24   C111  S    
C37   H7    S    
C106  O42   A    
C71   C80   S    
C69   C108  S    
C50   H13   S    
C76   C119  S    
C39   C127  S    
Cr1   O40   S    
C7    H44   S    
Cr2   O2    S    
C47   C122  S    
C39   C43   S    
C1    O18   A    
C2    C101  S    
C26   H88   S    
C43   H87   S    
Cr4   O13   S    
C118  C121  T    
C67   O21   A    
C35   C126  S    
C18   H68   S    
C11   H53   S    
C103  O34   A    
C70   C109  S    
C85   C94   T    
C98   C116  S    
C60   C70   S    
C87   C96   T    
C62   C72   S    
C82   C107  S    
C114  O6    A    
C89   H21   S    
C13   C49   S    
Cr9   O46   S    
C12   C14   S    
C30   H99   S    
C18   H69   S    
C38   H10   S    
C61   C69   S    
C45   O19   A    
C74   C117  S    
C88   C93   S    
C108  O68   A    
C114  O37   A    
C18   O57   S    
C61   H19   S    
Cr4   O4    S    
Cr5   O37   S    
C80   C81   S    
Cr8   O44   S    
C55   C67   S    
C11   C12   S    
C22   H79   S    
C75   O29   A    
C116  O39   A    
C76   O26   A    
C19   H70   S    
C13   C100  S    
Cr5   O41   S    
C3    H33   S    
C99   O1    A    
C10   H51   S    
C41   C129  S    
Cr5   O15   S    
C81   O65   S    
C95   C113  S    
C74   O24   A    
Cr2   O6    S    
C12   H55   S    
C90   C98   T    
C132  H29   S    
C23   C25   S    
C78   C122  S    
Cr10  O20   S    
C27   H89   S    
Cr6   O11   S    
C31   H101  S    
C34   H108  S    
Cr9   O24   S    
C29   H95   S    
C120  C124  T    
C124  C125  S    
C99   O31   A    
