data_mof_unit_54557.cif
_audit_creation_date              2012-12-10T18:04:35-0500
_audit_creation_method            fapswitch 2.2
_symmetry_space_group_name_H-M    P1
_symmetry_Int_Tables_number       1
_space_group_crystal_system       triclinic
_cell_length_a                    10.922956
_cell_length_b                    9.582889
_cell_length_c                    15.959566
_cell_angle_alpha                 89.936891
_cell_angle_beta                  90.34829
_cell_angle_gamma                 90.273253
_cell_volume                      1670.49240778

loop_
_atom_site_label
_atom_site_type_symbol
_atom_type_description
_atom_site_fract_x
_atom_site_fract_y
_atom_site_fract_z
_atom_type_partial_charge
C1    C     C_R   0.872928 0.501133 0.502964 -0.369120
C2    C     C_R   0.498142 0.371142 0.955755 0.261291
C3    C     C_R   0.522911 0.496078 0.912698 -0.204457
C4    C     C_R   0.492916 0.501939 0.086436 -0.212537
C5    C     C_1   0.514865 0.498076 0.822688 0.256658
C6    C     C_1   0.495042 0.500801 0.176727 0.258881
C7    C     C_1   0.497668 0.500115 0.252015 -0.030540
C8    C     C_1   0.507447 0.499470 0.747640 -0.036140
C9    C     C_R   0.461663 0.073930 0.431270 0.086936
C10   C     C_R   0.537792 0.926032 0.568842 0.071711
C11   C     C_R   0.537368 0.074064 0.568925 0.072897
C12   C     C_R   0.128966 0.499538 0.502514 -0.384725
C13   C     C_R   0.461147 0.925825 0.431405 0.032053
C14   C     C_R   0.061804 0.378398 0.481005 0.229943
C15   C     C_R   0.940848 0.628315 0.505371 0.274556
C16   C     C_R   0.938608 0.373536 0.502615 0.308965
C17   C     C_R   0.064952 0.620847 0.526251 0.299109
C18   C     C_R   0.262520 0.499749 0.500637 0.939017
C19   C     C_R   0.738154 0.500425 0.500985 0.921757
C20   C     C_R   0.499744 0.500035 0.341320 0.809516
C21   C     C_R   0.501059 0.499913 0.658588 0.828051
C22   C     C_R   0.544099 0.621546 0.956217 0.281902
C23   C     C_R   0.473726 0.375915 0.042729 0.279939
C24   C     C_R   0.520422 0.626608 0.043378 0.259140
Cu1   Cu    Cu3+1 0.500000 0.640660 0.500000 1.058679
Cu2   Cu    Cu3+1 0.500000 0.359340 0.500000 1.086897
H1    H     H_    0.429895 0.128462 0.376023 0.171878
H2    H     H_    0.748577 0.863751 0.381463 0.385968
H3    H     H_    0.788239 0.159109 0.659403 0.372558
H4    H     H_    0.269839 0.750645 0.690754 0.382999
H5    H     H_    0.569133 0.871503 0.624211 0.138145
H6    H     H_    0.567181 0.128646 0.624600 0.140810
H7    H     H_    0.428905 0.871042 0.376334 0.144300
H8    H     H_    0.416495 0.870974 0.206081 0.379371
H9    H     H_    0.611913 0.132359 0.793496 0.372138
H10   H     H_    0.713135 0.792060 0.786553 0.375787
H11   H     H_    0.287353 0.197390 0.201139 0.401037
H12   H     H_    0.172151 0.388568 0.317315 0.352584
N1    N     N_R   0.500000 0.852070 0.500000 -0.172051
N2    N     N_R   0.500000 0.147930 0.500000 -0.172220
O1    O     O_R   0.319640 0.618740 0.499990 -0.536191
O2    O     O_2   0.453751 0.894166 0.037978 -0.110226
O3    O     O_3   0.414354 0.777120 0.180186 -0.542431
O4    O     O_2   0.572888 0.106067 0.961059 -0.112928
O5    O     O_2   0.393774 0.157216 0.872374 -0.201875
O6    O     O_3   0.609868 0.226269 0.819325 -0.532549
O7    O     O_2   0.508675 0.853569 0.865448 -0.240624
O8    O     O_2   0.689944 0.851702 0.957680 -0.140708
O9    O     O_3   0.697558 0.708525 0.821604 -0.523206
O10   O     O_2   0.332377 0.142710 0.038717 -0.150678
O11   O     O_2   0.510533 0.144543 0.133852 -0.226172
O12   O     O_R   0.680360 0.381260 0.500010 -0.522022
O13   O     O_3   0.317592 0.284430 0.174689 -0.526495
O14   O     O_2   0.187523 0.138716 0.467886 -0.172306
O15   O     O_2   0.019156 0.173172 0.368392 -0.188983
O16   O     O_3   0.219048 0.314060 0.345957 -0.543526
O17   O     O_2   0.810804 0.856044 0.543018 -0.249443
O18   O     O_2   0.984997 0.889562 0.448956 -0.130692
O19   O     O_3   0.791061 0.773207 0.387804 -0.507494
O20   O     O_2   0.805198 0.140142 0.478431 -0.220115
O21   O     O_2   0.983477 0.121631 0.571779 -0.149273
O22   O     O_3   0.792540 0.248223 0.628022 -0.532018
O23   O     O_R   0.680360 0.618740 0.500010 -0.527916
O24   O     O_2   0.198544 0.856786 0.543890 -0.207692
O25   O     O_2   0.031199 0.820585 0.643208 -0.181908
O26   O     O_3   0.227047 0.672674 0.662056 -0.539409
O27   O     O_R   0.319640 0.381260 0.499990 -0.520006
O28   O     O_R   0.499970 0.618750 0.380310 -0.584818
O29   O     O_R   0.500030 0.381250 0.619690 -0.574120
O30   O     O_R   0.500030 0.618750 0.619690 -0.589598
O31   O     O_R   0.499970 0.381250 0.380310 -0.571811
O32   O     O_2   0.631977 0.836562 0.125876 -0.201081
S1    S     S_3+6 0.507498 0.788885 0.096861 0.123283
S2    S     S_3+6 0.516384 0.209607 0.902203 0.124789
S3    S     S_3+6 0.609996 0.765395 0.900862 0.098131
S4    S     S_3+6 0.408888 0.230464 0.096922 0.098717
S5    S     S_3+6 0.121093 0.244715 0.415507 0.097338
S6    S     S_3+6 0.882150 0.792911 0.472474 0.124812
S7    S     S_3+6 0.880100 0.214169 0.544155 0.120940
S8    S     S_3+6 0.130030 0.749565 0.594201 0.116619

loop_
_geom_bond_atom_site_label_1
_geom_bond_atom_site_label_2
_ccdc_geom_bond_type
O3    S1    S    
O20   S7    D    
C23   S4    S    
Cu2   O27   S    
Cu2   O12   S    
C4    C24   A    
C24   S1    S    
C15   S6    S    
Cu1   O23   S    
C14   S5    S    
C9    C13   A    
C10   H5    S    
C19   O23   A    
C12   C17   A    
O9    S3    S    
C20   O31   A    
C1    C15   A    
C2    S2    S    
O14   S5    D    
H11   O13   S    
O25   S8    D    
Cu2   O31   S    
O24   S8    D    
O8    S3    D    
Cu1   O28   S    
C22   S3    S    
C19   O12   A    
O19   S6    S    
C1    C19   S    
O22   S7    S    
O11   S4    D    
C4    C6    S    
C18   O1    A    
Cu1   O1    S    
C4    C23   A    
C18   O27   A    
C9    N2    A    
O16   S5    S    
C21   O29   A    
C10   N1    A    
C13   H7    S    
O10   S4    D    
C8    C21   S    
C1    C16   A    
O4    S2    D    
H4    O26   S    
C12   C14   A    
C11   H6    S    
C14   C16   A    
O13   S4    S    
O6    S2    S    
C9    H1    S    
H2    O19   S    
C15   C17   A    
H3    O22   S    
O2    S1    D    
O17   S6    D    
C20   O28   A    
H8    O3    S    
O32   S1    D    
C3    C5    S    
C5    C8    T    
C6    C7    T    
O26   S8    S    
C21   O30   A    
C16   S7    S    
C2    C3    A    
Cu1   Cu2   S    
O7    S3    D    
Cu1   N1    S    
Cu2   N2    S    
O21   S7    D    
O15   S5    D    
C22   C24   A    
C17   S8    S    
C11   N2    A    
C13   N1    A    
C10   C11   A    
O18   S6    D    
H12   O16   S    
C7    C20   S    
C12   C18   S    
C2    C23   A    
Cu2   O29   S    
O5    S2    D    
C3    C22   A    
Cu1   O30   S    
H9    O6    S    
H10   O9    S    
