data_mof_unit_54627.cif
_audit_creation_date              2013-03-05T15:55:27-0500
_audit_creation_method            fapswitch 2.2
_symmetry_space_group_name_H-M    P1
_symmetry_Int_Tables_number       1
_space_group_crystal_system       triclinic
_cell_length_a                    10.740346
_cell_length_b                    12.31624
_cell_length_c                    13.199568
_cell_angle_alpha                 116.605596
_cell_angle_beta                  77.187732
_cell_angle_gamma                 101.760239
_cell_volume                      1511.31450501

loop_
_atom_site_label
_atom_site_type_symbol
_atom_site_description
_atom_site_fract_x
_atom_site_fract_y
_atom_site_fract_z
_atom_type_partial_charge
O1    O     O_R   0.537340 0.972510 0.318130 -0.580376
O2    O     O_R   0.487200 0.806530 0.359650 -0.600868
C1    C     C_R   0.511164 0.854844 0.286664 0.804215
O3    O     O_R   0.707380 0.082980 0.479220 -0.497883
O4    O     O_R   0.657240 0.917000 0.520740 -0.624596
C2    C     C_R   0.739938 0.001231 0.501551 0.829346
Cu1   Cu    Cu3+1 0.529690 0.098270 0.475420 1.013943
Cu2   Cu    Cu3+1 0.470310 0.901730 0.524580 0.939980
O5    O     O_R   0.512800 0.193470 0.640350 -0.570983
O6    O     O_R   0.462660 0.027490 0.681870 -0.600502
O7    O     O_R   0.342760 0.083000 0.479260 -0.602302
O8    O     O_R   0.292620 0.917020 0.520780 -0.590991
C3    C     C_R   0.481937 0.145091 0.713572 0.838910
C4    C     C_R   0.260239 0.999758 0.500008 0.825787
C5    C     C_3   0.956725 0.975766 0.379195 0.114700
H1    H     H_    0.921237 0.879887 0.323059 0.132404
C6    C     C_3   0.102337 0.980089 0.379408 0.228179
H2    H     H_    0.158531 0.059820 0.364119 0.154636
H3    H     H_    0.138622 0.197697 0.566020 0.229035
C7    C     C_3   0.934007 0.124183 0.598849 0.216341
C8    C     C_3   0.895868 0.896703 0.529886 -0.510224
C9    C     C_3   0.878547 0.002887 0.501989 -0.119515
H4    H     H_    0.839958 0.906222 0.614703 0.202194
H5    H     H_    0.859004 0.806529 0.465227 0.203098
C10   C     C_3   0.122629 0.999373 0.499726 -0.002337
C11   C     C_3   0.080616 0.124721 0.589772 -0.524656
C12   C     C_3   0.038327 0.896610 0.530994 -0.342590
H6    H     H_    0.068210 0.805447 0.469131 0.236267
H7    H     H_    0.051167 0.910871 0.617721 0.175364
H8    H     H_    0.889861 0.120466 0.682287 0.106379
H9    H     H_    0.103174 0.143909 0.675057 0.154929
C13   C     C_R   0.366392 0.267576 0.031702 0.382051
H10   H     H_    0.378035 0.087634 0.894171 0.184285
C14   C     C_R   0.460514 0.227599 0.835434 -0.110549
C15   C     C_R   0.588123 0.817050 0.084622 -0.164116
C16   C     C_R   0.610997 0.738778 0.969559 -0.154389
C17   C     C_R   0.568820 0.614582 0.932649 -0.154121
C18   C     C_R   0.497862 0.565836 0.010676 0.108159
C19   C     C_R   0.463169 0.648346 0.125607 0.016859
C20   C     C_R   0.460989 0.438308 0.978891 -0.016870
C21   C     C_R   0.386341 0.395422 0.060708 -0.077940
C22   C     C_R   0.331461 0.481580 0.166901 0.318081
C23   C     C_R   0.370897 0.605642 0.197770 -0.284445
C24   C     C_R   0.497572 0.352021 0.867716 -0.195049
C25   C     C_R   0.399146 0.185082 0.917910 -0.277523
C26   C     C_R   0.517070 0.772858 0.164031 -0.087781
H11   H     H_    0.553791 0.378954 0.802847 0.183657
H12   H     H_    0.628596 0.912083 0.111713 0.181461
H13   H     H_    0.592773 0.560625 0.842187 0.138186
H14   H     H_    0.665224 0.773997 0.908770 0.154446
H15   H     H_    0.321015 0.668891 0.276225 0.216472
C27   C     C_R   0.705424 0.348304 0.328733 -0.227133
H16   H     H_    0.728226 0.170763 0.308917 0.188858
H17   H     H_    0.747122 0.549112 0.295300 0.162211
H18   H     H_    0.785483 0.348278 0.262227 0.175764
N1    N     N_R   0.574690 0.246280 0.438200 -0.194448
C28   C     C_R   0.322518 0.756680 0.642404 0.090581
C29   C     C_R   0.281723 0.657714 0.670863 -0.209126
C30   C     C_R   0.348438 0.555486 0.617461 -0.134663
C31   C     C_R   0.456598 0.550194 0.533033 0.013413
C32   C     C_R   0.493384 0.653158 0.505077 0.308453
C33   C     C_R   0.528671 0.446644 0.474488 -0.009840
C34   C     C_R   0.633709 0.447707 0.388168 0.168376
C35   C     C_R   0.666871 0.547855 0.361347 -0.258322
C36   C     C_R   0.598758 0.648143 0.418620 -0.188611
C37   C     C_R   0.502042 0.341380 0.497434 0.062994
C38   C     C_R   0.673875 0.247887 0.355032 0.152689
N2    N     N_R   0.426100 0.754320 0.561190 -0.208659
H19   H     H_    0.424542 0.333150 0.562121 0.112596
H20   H     H_    0.270173 0.835597 0.684601 0.123833
H21   H     H_    0.312559 0.481621 0.642925 0.139765
H22   H     H_    0.197522 0.660019 0.734110 0.157960
H23   H     H_    0.632465 0.719705 0.391475 0.202720
N3    N     N_R   0.935055 0.052978 0.327811 0.106637
O9    O     O_R   0.985751 0.166486 0.361499 -0.260684
O10   O     O_R   0.879088 0.002834 0.236678 -0.404963
N4    N     N_R   0.226592 0.446596 0.239542 0.165011
O11   O     O_R   0.218857 0.504750 0.350457 -0.320832
O12   O     O_R   0.128198 0.371919 0.195884 -0.314157
N5    N     N_R   0.323101 0.220375 0.117060 0.159137
O13   O     O_R   0.374149 0.269961 0.210882 -0.338079
O14   O     O_R   0.250554 0.116099 0.092936 -0.362639
O15   O     O_3   0.146279 0.868098 0.295368 -0.647384
C39   C     C_3   0.191233 0.873414 0.188325 0.062983
H24   H     H_    0.294974 0.909862 0.184827 0.175835
H25   H     H_    0.138220 0.932538 0.173222 0.213147
C40   C     C_3   0.173509 0.744651 0.092875 -0.320678
H26   H     H_    0.214992 0.680493 0.110228 0.235509
H27   H     H_    0.069058 0.713383 0.090697 0.228029
C41   C     C_3   0.237991 0.740965 0.976375 -0.880893
H28   H     H_    0.194158 0.800845 0.954867 0.268216
H29   H     H_    0.225183 0.645667 0.909802 0.251406
H30   H     H_    0.342567 0.771749 0.976570 0.268531
N6    N     N_R   0.900152 0.237797 0.605669 0.166649
O16   O     O_R   0.986987 0.316545 0.581082 -0.300070
O17   O     O_R   0.790895 0.275220 0.665114 -0.378882

loop_
_geom_bond_atom_site_label_1
_geom_bond_atom_site_label_2
_geom_bond_distance
_ccdc_geom_bond_type
C40   H26   1.107362 S    
C12   H7    1.113740 S    
H10   C25   1.083417 S    
C21   C22   1.412267 A    
C15   C16   1.384206 A    
C39   C40   1.527179 S    
C23   H15   1.080629 S    
C41   H28   1.111072 S    
Cu1   Cu2   2.698391 S    
C7    H8    1.115615 S    
N4    O11   1.301690 A    
Cu1   O7    1.969329 S    
C17   C18   1.421688 A    
N3    O10   1.301415 A    
C16   C17   1.389343 A    
C39   H25   1.115156 S    
C18   C19   1.412711 A    
O7    C4    1.298100 A    
C37   H19   1.077066 S    
C5    H1    1.116614 S    
C2    C9    1.485949 S    
C36   H23   1.063724 S    
C31   C33   1.441265 A    
C13   C25   1.398763 A    
H3    C11   1.109853 S    
O5    C3    1.300869 A    
C5    C9    1.571455 S    
C13   C21   1.425016 A    
C28   H20   1.081652 S    
C24   H11   1.072956 S    
C8    C12   1.533609 S    
C30   C31   1.409713 A    
C8    C9    1.562500 S    
Cu1   N1    2.033651 S    
O3    Cu1   1.969159 S    
C15   H12   1.083250 S    
N4    O12   1.301520 A    
N3    O9    1.299571 A    
C33   C37   1.420028 A    
C14   C24   1.389240 A    
C39   H24   1.112190 S    
N5    O14   1.301429 A    
C19   C23   1.408425 A    
C10   C11   1.549914 S    
C27   C34   1.401326 A    
C31   C32   1.432021 A    
O1    C1    1.303193 A    
C33   C34   1.417157 A    
C32   C36   1.406970 A    
C13   N5    1.437950 S    
C17   H13   1.075309 S    
C41   H29   1.110262 S    
O15   C39   1.414624 S    
Cu2   O8    1.969157 S    
C6    H2    1.118560 S    
C14   C25   1.394809 A    
N6    O17   1.301257 A    
C27   C38   1.387958 A    
C19   C26   1.419770 A    
O3    C2    1.295353 A    
C20   C21   1.429117 A    
C7    C9    1.576526 S    
Cu2   N2    2.021829 S    
C8    H4    1.113867 S    
C8    H5    1.113653 S    
C22   C23   1.391118 A    
C28   N2    1.357949 A    
C16   H14   1.082900 S    
C41   H30   1.110009 S    
C5    C6    1.554534 S    
C7    N6    1.475943 S    
O1    Cu1   1.952474 S    
C11   H9    1.114060 S    
O2    Cu2   1.942236 S    
O8    C4    1.292877 A    
N5    O13   1.301720 A    
O6    C3    1.299676 A    
O4    Cu2   1.969330 S    
C27   H18   1.084007 S    
C10   C12   1.557882 S    
N1    C38   1.353712 A    
C1    C26   1.469831 S    
C6    C10   1.555853 S    
C35   C36   1.385295 A    
C40   H27   1.111719 S    
O2    C1    1.299799 A    
C29   C30   1.394403 A    
C3    C14   1.462878 S    
C18   C20   1.424692 A    
C32   N2    1.387885 A    
C29   H22   1.081663 S    
C28   C29   1.392189 A    
O4    C2    1.299709 A    
C7    C11   1.551338 S    
N1    C37   1.368841 A    
C4    C10   1.477850 S    
N6    O16   1.301833 A    
H16   C38   1.078937 S    
C34   C35   1.389128 A    
Cu1   O5    1.942234 S    
C20   C24   1.398169 A    
C5    N3    1.468490 S    
H17   C35   1.084689 S    
C22   N4    1.437652 S    
Cu2   O6    1.952474 S    
C40   C41   1.524564 S    
C12   H6    1.113507 S    
C6    O15   1.420730 S    
C15   C26   1.401494 A    
C30   H21   1.078252 S    
