data_mof_unit_19859.cif
_audit_creation_date              2013-03-05T16:01:21-0500
_audit_creation_method            fapswitch 2.2
_symmetry_space_group_name_H-M    P1
_symmetry_Int_Tables_number       1
_space_group_crystal_system       triclinic
_cell_length_a                    19.610395
_cell_length_b                    6.928338
_cell_length_c                    17.762041
_cell_angle_alpha                 90.006947
_cell_angle_beta                  107.913987
_cell_angle_gamma                 89.996428
_cell_volume                      2296.28555935

loop_
_atom_site_label
_atom_site_type_symbol
_atom_site_description
_atom_site_fract_x
_atom_site_fract_y
_atom_site_fract_z
_atom_type_partial_charge
O1    O     O_R   0.561700 0.369960 0.440190 -0.567218
O2    O     O_R   0.061700 0.630040 0.940190 -0.567885
O3    O     O_R   0.413790 0.033680 0.407460 -0.620270
O4    O     O_R   0.913790 0.966320 0.907460 -0.620232
O5    O     O_R   0.438300 0.869760 0.559810 -0.604724
O6    O     O_R   0.938300 0.130240 0.059810 -0.604717
C1    C     C_R   0.387559 0.203973 0.383956 0.785716
C2    C     C_R   0.887558 0.796017 0.883959 0.785868
O7    O     O_R   0.559630 0.039830 0.430710 -0.604729
O8    O     O_R   0.059630 0.960170 0.930710 -0.604617
O9    O     O_R   0.585190 0.875950 0.583220 -0.564137
O10   O     O_R   0.085190 0.124050 0.083220 -0.564114
C3    C     C_R   0.578365 0.209064 0.412647 1.073983
C4    C     C_R   0.078417 0.790908 0.912715 1.074261
O11   O     O_R   0.414810 0.363770 0.416780 -0.558484
O12   O     O_R   0.914810 0.636230 0.916780 -0.558422
O13   O     O_3   0.508210 0.205480 0.550010 -0.253147
O14   O     O_3   0.008210 0.794520 0.050010 -0.253111
V1    V     V_3+5 0.498480 0.928140 0.490720 1.220934
V2    V     V_3+5 0.998480 0.071860 0.990720 1.221031
O15   O     O_R   0.586210 0.546600 0.592540 -0.515861
O16   O     O_R   0.086210 0.453400 0.092540 -0.515874
C5    C     C_R   0.612948 0.716190 0.616112 0.883153
C6    C     C_R   0.112947 0.283818 0.116115 0.882633
O17   O     O_R   0.440370 0.540460 0.569290 -0.608645
O18   O     O_R   0.940370 0.459540 0.069290 -0.608641
C7    C     C_R   0.419052 0.709133 0.584946 0.914417
C8    C     C_R   0.919051 0.290893 0.084944 0.914491
V3    V     V_3+5 0.501520 0.428910 0.509280 1.277385
V4    V     V_3+5 0.001520 0.571090 0.009280 1.277244
O19   O     O_3   0.491790 0.701440 0.449990 -0.274344
O20   O     O_3   0.991790 0.298560 0.949990 -0.274252
C9    C     C_R   0.296766 0.907223 0.696851 -0.154230
C10   C     C_R   0.797141 0.092901 0.197291 -0.154224
H1    H     H_    0.278456 0.046894 0.710145 0.103096
H2    H     H_    0.779148 0.953204 0.210971 0.103172
C11   C     C_R   0.345038 0.898055 0.652955 -0.156971
C12   C     C_R   0.845426 0.102029 0.153415 -0.157172
H3    H     H_    0.362385 0.031611 0.632985 0.129311
H4    H     H_    0.863113 0.968414 0.133851 0.129388
C13   C     C_R   0.369916 0.718938 0.634450 -0.119620
C14   C     C_R   0.869909 0.281175 0.134434 -0.119674
C15   C     C_R   0.346393 0.549577 0.662809 -0.146249
C16   C     C_R   0.845971 0.450646 0.162296 -0.145753
H5    H     H_    0.364673 0.409203 0.650359 0.128180
H6    H     H_    0.863934 0.591057 0.149463 0.127931
C17   C     C_R   0.298082 0.559114 0.706764 -0.187817
C18   C     C_R   0.797631 0.441150 0.206210 -0.187664
H7    H     H_    0.279996 0.426689 0.726865 0.114834
H8    H     H_    0.779211 0.573631 0.225911 0.114456
C19   C     C_R   0.271388 0.737773 0.722415 0.194691
C20   C     C_R   0.771335 0.262399 0.222337 0.194942
C21   C     C_R   0.238311 0.682157 0.844459 -0.345822
C22   C     C_R   0.737972 0.319597 0.344114 -0.345968
H9    H     H_    0.291304 0.621763 0.870731 0.173947
H10   H     H_    0.790763 0.381362 0.370212 0.173895
C23   C     C_R   0.192132 0.694527 0.890130 0.772013
C24   C     C_R   0.691782 0.307208 0.389767 0.772255
C25   C     C_R   0.124441 0.780530 0.860009 -0.425899
C26   C     C_R   0.624392 0.219377 0.359924 -0.426210
C27   C     C_R   0.101477 0.849109 0.780312 0.047461
C28   C     C_R   0.601735 0.148949 0.280472 0.047968
C29   C     C_R   0.147153 0.821992 0.731489 0.140939
C30   C     C_R   0.647323 0.176385 0.231584 0.140864
C31   C     C_R   0.217598 0.747477 0.766176 -0.068542
C32   C     C_R   0.717525 0.252629 0.266066 -0.068654
C33   C     C_2   0.714231 0.892556 0.711498 0.641951
C34   C     C_2   0.214185 0.107432 0.211559 0.641985
C35   C     C_2   0.676154 0.727218 0.688234 0.343652
C36   C     C_2   0.176160 0.272823 0.188233 0.343707
C37   C     C_2   0.775694 0.910555 0.785478 -0.414027
C38   C     C_2   0.275647 0.089504 0.285541 -0.414152
C39   C     C_2   0.826183 0.774115 0.811390 0.503503
C40   C     C_2   0.326196 0.225823 0.311372 0.503807
H11   H     H_    0.781705 0.047203 0.816850 0.175779
H12   H     H_    0.281601 0.952993 0.316991 0.175530
F1    F     F_    0.691591 0.566910 0.734625 -0.616828
F2    F     F_    0.191666 0.433258 0.234558 -0.616682
F3    F     F_    0.823648 0.609092 0.769042 -0.628061
F4    F     F_    0.323734 0.390633 0.268930 -0.627972
F5    F     F_    0.214855 0.628051 0.965716 -0.676120
F6    F     F_    0.714241 0.375402 0.465111 -0.676490
C41   C     C_3   0.028822 0.948275 0.747780 -0.431739
C42   C     C_3   0.970033 0.805868 0.704282 -0.318705
C43   C     C_3   0.900446 0.911393 0.662051 -0.728196
H13   H     H_    0.883244 0.002150 0.704460 0.259899
H14   H     H_    0.908054 0.004883 0.614464 0.246135
H15   H     H_    0.857617 0.804767 0.635069 0.273553
H16   H     H_    0.986758 0.722078 0.659800 0.216543
H17   H     H_    0.960180 0.702476 0.747653 0.217970
H18   H     H_    0.011810 0.018496 0.794848 0.205699
H19   H     H_    0.032419 0.072397 0.709782 0.186444
C44   C     C_3   0.529506 0.047469 0.248251 -0.431270
C45   C     C_3   0.470047 0.187942 0.204657 -0.320086
C46   C     C_3   0.400671 0.080329 0.163463 -0.727086
H20   H     H_    0.408218 0.985651 0.116172 0.246894
H21   H     H_    0.384098 0.990499 0.206591 0.259867
H22   H     H_    0.357410 0.185624 0.136257 0.272724
H23   H     H_    0.460218 0.292059 0.247804 0.217283
H24   H     H_    0.486096 0.271028 0.159524 0.216798
H25   H     H_    0.533526 0.923451 0.210389 0.185906
H26   H     H_    0.512952 0.976591 0.295482 0.206931
C47   C     C_3   0.120872 0.860975 0.642321 -0.429601
C48   C     C_3   0.110218 0.672271 0.594450 -0.259632
C49   C     C_3   0.077185 0.710540 0.506054 -0.874795
H27   H     H_    0.023522 0.778198 0.494036 0.258972
H28   H     H_    0.112400 0.807367 0.484581 0.266341
H29   H     H_    0.070950 0.572104 0.473112 0.253545
H30   H     H_    0.162085 0.597712 0.603491 0.209798
H31   H     H_    0.074594 0.573162 0.614234 0.191543
H32   H     H_    0.069599 0.939968 0.623134 0.200447
H33   H     H_    0.159101 0.955915 0.625208 0.184281
C50   C     C_3   0.621146 0.136256 0.142498 -0.429858
C51   C     C_3   0.609800 0.324456 0.094289 -0.259321
C52   C     C_3   0.577523 0.284815 0.005904 -0.874250
H34   H     H_    0.613557 0.189595 0.984943 0.266191
H35   H     H_    0.524241 0.214741 0.993604 0.258906
H36   H     H_    0.570647 0.422972 0.972721 0.253537
H37   H     H_    0.573405 0.422157 0.113538 0.191622
H38   H     H_    0.661314 0.401095 0.103618 0.209581
H39   H     H_    0.659698 0.042147 0.125546 0.184567
H40   H     H_    0.570144 0.055996 0.123452 0.200030
F7    F     F_    0.694456 0.057423 0.668723 -0.641962
F8    F     F_    0.194344 0.942457 0.168863 -0.641661

loop_
_geom_bond_atom_site_label_1
_geom_bond_atom_site_label_2
_geom_bond_distance
_ccdc_geom_bond_type
C37   H11   1.086372 S    
C29   C31   1.425115 A    
C44   C45   1.533286 S    
C36   F2    1.360494 S    
O13   V3    1.696688 S    
C5    C35   1.485406 S    
C35   F1    1.360488 S    
C46   H20   1.110885 S    
O4    C2    1.303430 A    
V1    O19   1.717238 S    
C34   F8    1.360619 S    
C51   C52   1.526201 S    
C46   H22   1.110517 S    
C6    C36   1.485438 S    
C17   H7    1.083082 S    
C3    C26   1.488890 S    
C43   H13   1.110312 S    
C4    C25   1.488604 S    
C49   H28   1.111105 S    
O9    V1    2.000745 S    
C14   C16   1.409466 A    
C47   H32   1.102648 S    
C12   C14   1.408708 A    
O3    C1    1.303406 A    
C24   F6    1.358474 S    
C22   C24   1.391850 A    
C48   H30   1.107552 S    
C23   C25   1.402314 A    
C33   C37   1.490184 S    
C24   C26   1.402445 A    
C52   H34   1.111266 S    
C26   C28   1.428695 A    
C19   C31   1.491902 S    
C8    C14   1.492355 S    
C27   C29   1.437853 A    
O7    C3    1.298218 A    
C28   C30   1.437718 A    
O13   V1    2.171077 S    
O5    C7    1.297755 A    
O7    V1    1.989875 S    
O6    C8    1.297761 A    
C50   H40   1.102660 S    
O8    V2    1.989716 S    
C52   H35   1.111216 S    
O3    V1    1.992278 S    
O14   V4    1.696543 S    
V4    O20   2.141640 S    
C21   C31   1.398524 A    
O14   V2    2.171282 S    
C51   H37   1.111079 S    
C38   H12   1.086373 S    
C43   H14   1.110843 S    
C2    O12   1.288200 A    
C40   F4    1.360985 S    
C13   C15   1.409448 A    
C42   H17   1.111588 S    
C48   C49   1.526271 S    
C16   H6    1.082548 S    
O11   V3    2.018855 S    
C1    C40   1.476059 S    
C21   H9    1.083736 S    
O17   V3    1.989343 S    
C49   H29   1.110459 S    
C22   H10   1.083761 S    
C25   C27   1.428423 A    
C42   C43   1.526344 S    
C29   C47   1.531315 S    
C27   C41   1.526265 S    
C44   H25   1.108708 S    
C37   C39   1.343648 D    
C21   C23   1.391896 A    
C17   C19   1.404581 A    
C1    O11   1.288205 A    
O15   V3    2.024629 S    
C9    C11   1.400740 A    
C9    C19   1.404052 A    
C47   H33   1.107870 S    
C33   C35   1.360410 D    
C30   C32   1.425044 A    
C41   H19   1.108807 S    
C7    C13   1.492444 S    
C41   C42   1.533457 S    
C45   H24   1.108340 S    
C34   C38   1.490166 S    
C52   H36   1.110421 S    
O10   V2    2.000713 S    
O1    V3    1.989045 S    
C39   F3    1.360983 S    
C18   H8    1.083083 S    
C15   H5    1.082565 S    
O5    V1    1.988330 S    
C38   C40   1.343650 D    
O18   V4    1.989501 S    
O15   C5    1.302189 A    
O8    C4    1.298240 A    
O16   C6    1.302182 A    
O1    C3    1.298835 A    
C42   H16   1.108193 S    
C41   H18   1.103812 S    
C20   C32   1.491861 S    
C48   H31   1.110934 S    
C50   C51   1.538166 S    
V2    O20   1.717383 S    
C43   H15   1.110496 S    
C30   C50   1.531290 S    
O16   V4    2.024690 S    
C10   C12   1.400683 A    
O18   C8    1.299616 A    
C33   F7    1.360623 S    
C44   H26   1.103620 S    
C46   H21   1.110457 S    
C22   C32   1.398484 A    
O17   C7    1.299678 A    
O6    V2    1.988241 S    
C49   H27   1.111097 S    
O10   C6    1.291213 A    
C10   C20   1.404062 A    
O2    V4    1.989135 S    
C11   H3    1.082643 S    
C12   H4    1.082621 S    
C15   C17   1.402306 A    
C45   H23   1.111559 S    
O9    C5    1.291218 A    
C2    C39   1.476045 S    
C9    H1    1.083124 S    
C10   H2    1.083125 S    
C11   C13   1.408749 A    
C45   C46   1.526363 S    
O2    C4    1.298630 A    
C23   F5    1.358407 S    
O4    V2    1.992221 S    
C18   C20   1.404547 A    
C50   H39   1.107839 S    
V3    O19   2.141844 S    
C28   C44   1.526271 S    
C47   C48   1.538326 S    
C34   C36   1.360401 D    
O12   V4    2.018897 S    
C51   H38   1.107696 S    
C16   C18   1.402252 A    
