data_mof_unit_66182.cif
_audit_creation_date              2012-12-10T16:46:01-0500
_audit_creation_method            fapswitch 2.2
_symmetry_space_group_name_H-M    P1
_symmetry_Int_Tables_number       1
_space_group_crystal_system       triclinic
_cell_length_a                    10.729407
_cell_length_b                    8.652657
_cell_length_c                    7.625958
_cell_angle_alpha                 103.009143
_cell_angle_beta                  95.990799
_cell_angle_gamma                 92.400191
_cell_volume                      684.476673808

loop_
_atom_site_label
_atom_site_type_symbol
_atom_type_description
_atom_site_fract_x
_atom_site_fract_y
_atom_site_fract_z
_atom_type_partial_charge
C1    C     C_R   0.495950 0.200381 0.453501 0.882214
C2    C     C_3   0.877343 0.496375 0.505143 0.000435
C3    C     C_3   0.931091 0.646819 0.449925 0.032853
C4    C     C_3   0.907578 0.346903 0.364699 -0.517138
C5    C     C_2   0.493685 0.031796 0.428180 -0.336102
C6    C     C_2   0.503791 0.968086 0.571814 -0.312045
C7    C     C_R   0.260249 0.494230 0.498487 0.803871
C8    C     C_R   0.502872 0.799551 0.546491 0.896436
C9    C     C_R   0.739224 0.498120 0.501051 0.815188
C10   C     C_3   0.086995 0.455336 0.678033 -0.056741
C11   C     C_3   0.944717 0.480055 0.693151 0.117615
C12   C     C_3   0.075953 0.654277 0.476198 -0.413324
C13   C     C_3   0.048950 0.356216 0.343307 0.050550
C14   C     C_3   0.121389 0.490418 0.497643 -0.024822
Cu1   Cu    Cu3+1 0.514070 0.517380 0.684380 0.980775
Cu2   Cu    Cu3+1 0.485930 0.482620 0.315620 0.986601
H1    H     H_    0.144739 0.534519 0.794817 0.200544
H2    H     H_    0.849008 0.334622 0.232476 0.226068
H3    H     H_    0.112018 0.688490 0.357914 0.193391
H4    H     H_    0.900484 0.634036 0.303015 0.162798
H5    H     H_    0.484037 0.959869 0.290170 0.181047
H6    H     H_    0.513433 0.040005 0.709829 0.187593
H7    H     H_    0.400477 0.377082 0.949683 0.257777
H8    H     H_    0.599656 0.622805 0.050323 0.227355
H9    H     H_    0.904214 0.367487 0.718390 0.166870
H10   H     H_    0.116483 0.749236 0.592962 0.188414
H11   H     H_    0.087053 0.238164 0.333818 0.182442
H12   H     H_    0.883307 0.237261 0.410747 0.197335
N1    N     N_2   0.464720 0.456420 0.038520 -0.208774
N2    N     N_2   0.535280 0.543580 0.961480 -0.225624
O1    O     O_R   0.509140 0.286130 0.619770 -0.576514
O2    O     O_R   0.485380 0.256770 0.308360 -0.577249
O3    O     O_R   0.329570 0.514650 0.655700 -0.587883
O4    O     O_R   0.305810 0.485300 0.344290 -0.547131
O5    O     O_R   0.514620 0.743230 0.691640 -0.572246
O6    O     O_R   0.490860 0.713870 0.380230 -0.580634
O7    O     O_R   0.694190 0.514700 0.655710 -0.572885
O8    O     O_R   0.670430 0.485350 0.344300 -0.597040
I1    I     I_    0.141055 0.209085 0.677856 -0.404173
N3    N     N_2   0.916877 0.608727 0.844274 -0.388530
H13   H     H_    0.856885 0.573516 0.927453 0.275170
C15   C     C_3   0.003381 0.742274 0.938908 -0.577198
H14   H     H_    0.076445 0.706047 0.031997 0.220107
H15   H     H_    0.950389 0.833333 0.021967 0.241016
H16   H     H_    0.048526 0.799871 0.845662 0.252237
I2    I     I_    0.857696 0.870317 0.567883 -0.404210
I3    I     I_    0.066959 0.388416 0.088331 -0.446441

loop_
_geom_bond_atom_site_label_1
_geom_bond_atom_site_label_2
_ccdc_geom_bond_type
C2    C4    S    
Cu1   O1    S    
N1    N2    D    
Cu2   O2    S    
C8    O5    A    
C3    I2    S    
C4    H2    S    
N3    C15   S    
C2    C3    S    
C3    H4    S    
C13   C14   S    
Cu2   O6    S    
C7    O3    A    
C5    C6    D    
C15   H15   S    
C1    C5    S    
C2    C11   S    
H7    N1    S    
C12   H3    S    
Cu1   O5    S    
N3    H13   S    
C4    H12   S    
C12   C14   S    
C10   C11   S    
C7    C14   S    
C10   C14   S    
C11   N3    S    
C7    O4    A    
H8    N2    S    
C15   H14   S    
C11   H9    S    
C10   H1    S    
Cu1   Cu2   S    
C6    H6    S    
C1    O1    A    
C5    H5    S    
C6    C8    S    
Cu1   N2    S    
C9    O7    A    
C8    O6    A    
Cu2   O8    S    
C4    C13   S    
C13   I3    S    
C13   H11   S    
C9    O8    A    
C3    C12   S    
Cu2   O4    S    
Cu2   N1    S    
C2    C9    S    
Cu1   O3    S    
C1    O2    A    
Cu1   O7    S    
C12   H10   S    
C10   I1    S    
C15   H16   S    
