data_mof_unit_17265.cif
_audit_creation_date              2013-03-05T15:44:22-0500
_audit_creation_method            fapswitch 2.2
_symmetry_space_group_name_H-M    P1
_symmetry_Int_Tables_number       1
_space_group_crystal_system       triclinic
_cell_length_a                    30.148412
_cell_length_b                    30.829461
_cell_length_c                    21.122522
_cell_angle_alpha                 89.336751
_cell_angle_beta                  133.473237
_cell_angle_gamma                 90.881653
_cell_volume                      14245.5409794

loop_
_atom_site_label
_atom_site_type_symbol
_atom_site_description
_atom_site_fract_x
_atom_site_fract_y
_atom_site_fract_z
_atom_type_partial_charge
O1    O     O_R   0.321630 0.769940 0.143350 -0.570157
O2    O     O_R   0.678370 0.769940 0.856650 -0.539047
O3    O     O_R   0.821630 0.269940 0.143350 -0.531418
O4    O     O_R   0.178370 0.269940 0.856650 -0.535266
O5    O     O_R   0.269950 0.821660 0.039930 -0.642503
O6    O     O_R   0.730050 0.821660 0.960070 -0.659757
O7    O     O_R   0.769950 0.321660 0.039930 -0.653261
O8    O     O_R   0.230050 0.321660 0.960070 -0.654882
C1    C     C_R   0.308423 0.809949 0.120089 0.936627
C2    C     C_R   0.691081 0.810014 0.880070 0.979411
C3    C     C_R   0.808741 0.309950 0.120023 0.978387
C4    C     C_R   0.190849 0.309987 0.879995 0.978745
O9    O     O_R   0.341900 0.724110 0.051720 -0.573255
O10   O     O_R   0.658100 0.724110 0.948280 -0.595200
O11   O     O_R   0.841900 0.224110 0.051720 -0.574871
O12   O     O_R   0.158100 0.224110 0.948280 -0.577799
O13   O     O_R   0.290220 0.775830 0.948290 -0.657001
O14   O     O_R   0.709780 0.775830 0.051710 -0.628265
O15   O     O_R   0.790220 0.275830 0.948290 -0.654883
O16   O     O_R   0.209780 0.275830 0.051710 -0.655033
C5    C     C_R   0.336581 0.751146 0.000122 0.938280
C6    C     C_R   0.661616 0.751794 0.996722 0.930532
C7    C     C_R   0.834649 0.249210 0.995999 0.917945
C8    C     C_R   0.163633 0.250123 0.000580 0.924508
Zn1   Zn    Zn3+2 0.284500 0.715460 0.069080 1.006410
Zn2   Zn    Zn3+2 0.715500 0.715460 0.930920 1.030343
Zn3   Zn    Zn3+2 0.784500 0.215460 0.069080 1.052325
Zn4   Zn    Zn3+2 0.215500 0.215460 0.930920 1.045702
Zn5   Zn    Zn3+2 0.215490 0.784530 0.930970 0.961027
Zn6   Zn    Zn3+2 0.784510 0.784530 0.069030 0.991509
Zn7   Zn    Zn3+2 0.715490 0.284530 0.930970 0.949175
Zn8   Zn    Zn3+2 0.284510 0.284530 0.069030 0.954445
O17   O     O_R   0.230030 0.678320 0.960120 -0.628063
O18   O     O_R   0.769970 0.678320 0.039880 -0.642925
O19   O     O_R   0.730030 0.178320 0.960120 -0.640265
O20   O     O_R   0.269970 0.178320 0.039880 -0.633869
O21   O     O_R   0.178350 0.730040 0.856700 -0.615164
O22   O     O_R   0.821650 0.730040 0.143300 -0.594318
O23   O     O_R   0.678350 0.230040 0.856700 -0.620372
O24   O     O_R   0.321650 0.230040 0.143300 -0.618975
O25   O     O_R   0.209770 0.724150 0.051760 -0.636422
O26   O     O_R   0.790230 0.724150 0.948240 -0.597668
O27   O     O_R   0.709770 0.224150 0.051760 -0.589776
O28   O     O_R   0.290230 0.224150 0.948240 -0.590992
O29   O     O_R   0.158090 0.775870 0.948330 -0.612313
O30   O     O_R   0.841910 0.775870 0.051670 -0.631897
O31   O     O_R   0.658090 0.275870 0.948330 -0.636453
O32   O     O_R   0.341910 0.275870 0.051670 -0.635266
C9    C     C_R   0.193427 0.690754 0.879463 0.901019
C10   C     C_R   0.809009 0.689974 0.119884 0.912795
C11   C     C_R   0.693589 0.190767 0.879320 0.883506
C12   C     C_R   0.306057 0.190645 0.120527 0.894274
C13   C     C_R   0.164559 0.750018 0.002629 0.836046
C14   C     C_R   0.834965 0.751189 0.996230 0.900631
C15   C     C_R   0.665082 0.250520 0.003533 0.912286
C16   C     C_R   0.335011 0.251023 0.996671 0.911210
C17   C     C_R   0.599372 0.794324 0.011191 0.131195
C18   C     C_R   0.410566 0.794154 0.008325 0.123663
C19   C     C_R   0.091018 0.291133 0.995409 0.122882
C20   C     C_R   0.901603 0.288606 0.987538 0.113914
C21   C     C_R   0.611807 0.754359 0.993940 -0.069306
C22   C     C_R   0.384602 0.753594 0.000473 -0.066499
C23   C     C_R   0.114993 0.251199 0.999370 -0.065380
C24   C     C_R   0.877475 0.248541 0.985486 -0.062305
C25   C     C_R   0.578849 0.716444 0.978700 0.032648
C26   C     C_R   0.406318 0.714415 0.997971 0.051758
C27   C     C_R   0.089854 0.211554 0.995701 0.055700
C28   C     C_R   0.888758 0.209249 0.964457 0.059666
C29   C     C_R   0.547788 0.715342 0.006020 0.020262
C30   C     C_R   0.461060 0.714869 0.017101 0.019471
C31   C     C_R   0.032855 0.211519 0.970743 0.031096
C32   C     C_R   0.932397 0.209428 0.956780 0.039328
C33   C     C_R   0.530508 0.755109 0.015783 -0.023141
C34   C     C_R   0.483929 0.755127 0.015901 -0.033388
C35   C     C_R   0.011996 0.250642 0.976408 -0.030979
C36   C     C_R   0.961502 0.249658 0.968634 -0.038413
C37   C     C_R   0.557892 0.794712 0.022040 0.051535
C38   C     C_R   0.457878 0.795137 0.008974 0.048674
C39   C     C_R   0.043179 0.290632 0.993535 0.045935
C40   C     C_R   0.940349 0.289332 0.972565 0.045816
C41   C     C_R   0.535370 0.676042 0.027202 -0.045208
C42   C     C_R   0.493295 0.676271 0.036173 -0.045245
C43   C     C_R   0.996190 0.173664 0.939663 -0.069606
C44   C     C_R   0.947602 0.171836 0.935741 -0.038785
C45   C     C_R   0.483226 0.834446 0.008813 0.179010
C46   C     C_R   0.539915 0.833437 0.034157 0.173288
C47   C     C_R   0.964063 0.328823 0.971194 0.181187
C48   C     C_R   0.021663 0.329184 0.000172 0.177527
C49   C     C_R   0.256811 0.862416 0.176319 0.057664
C50   C     C_R   0.740596 0.861809 0.819188 0.138048
C51   C     C_R   0.756890 0.361741 0.175587 0.128690
C52   C     C_R   0.241306 0.362898 0.821526 0.129891
C53   C     C_R   0.242007 0.867491 0.226700 -0.011993
C54   C     C_R   0.753604 0.865521 0.766402 -0.011041
C55   C     C_R   0.741890 0.365506 0.225817 -0.021388
C56   C     C_R   0.255249 0.367150 0.769911 -0.015294
C57   C     C_R   0.290055 0.869583 0.318889 -0.046015
C58   C     C_R   0.704298 0.867417 0.674469 -0.038123
C59   C     C_R   0.789823 0.367716 0.318022 -0.035478
C60   C     C_R   0.206589 0.368948 0.677814 -0.034085
C61   C     C_R   0.350978 0.876651 0.357373 -0.058512
C62   C     C_R   0.644381 0.875624 0.638502 -0.040291
C63   C     C_R   0.850619 0.376083 0.356603 -0.041279
C64   C     C_R   0.146187 0.376502 0.640481 -0.040300
C65   C     C_R   0.362137 0.879662 0.302207 -0.071733
C66   C     C_R   0.635264 0.879346 0.695867 -0.083326
C67   C     C_R   0.861934 0.379630 0.301621 -0.083217
C68   C     C_R   0.136002 0.379766 0.696670 -0.082122
C69   C     C_R   0.319213 0.861536 0.219226 0.056567
C70   C     C_R   0.678805 0.861473 0.778809 0.063242
C71   C     C_R   0.819281 0.361471 0.218676 0.068214
C72   C     C_R   0.179202 0.362011 0.779853 0.065328
C73   C     C_R   0.342571 0.843008 0.186056 -0.138645
C74   C     C_R   0.656810 0.843247 0.814658 -0.143444
C75   C     C_R   0.842814 0.343025 0.185840 -0.144181
C76   C     C_R   0.156432 0.343041 0.814194 -0.143446
C77   C     C_R   0.402544 0.853459 0.224543 -0.046992
C78   C     C_R   0.598376 0.854282 0.780213 -0.046478
C79   C     C_R   0.902687 0.353587 0.224243 -0.052076
C80   C     C_R   0.096772 0.352669 0.776657 -0.051383
C81   C     C_R   0.429436 0.890425 0.276523 0.121205
C82   C     C_R   0.570902 0.890701 0.726171 0.118700
C83   C     C_R   0.929596 0.390483 0.276479 0.120638
C84   C     C_R   0.069423 0.389306 0.723425 0.120482
C85   C     C_R   0.412580 0.901508 0.322717 -0.138764
C86   C     C_R   0.586229 0.901337 0.677353 -0.139065
C87   C     C_R   0.912514 0.401536 0.322475 -0.143239
C88   C     C_R   0.086013 0.401039 0.676646 -0.143479
C89   C     C_R   0.864884 0.746982 0.910897 -0.080944
C90   C     C_R   0.131300 0.744931 0.082797 -0.060262
C91   C     C_R   0.366273 0.248568 0.913396 -0.082605
C92   C     C_R   0.633892 0.246715 0.087089 -0.083673
C93   C     C_R   0.880655 0.751614 0.991004 -0.137492
C94   C     C_R   0.117282 0.746756 0.003950 -0.180292
C95   C     C_R   0.380923 0.251825 0.992580 -0.136847
C96   C     C_R   0.619320 0.250309 0.007922 -0.140180
C97   C     C_R   0.941254 0.751509 0.069676 -0.216126
C98   C     C_R   0.057449 0.743447 0.923903 -0.189733
C99   C     C_R   0.440938 0.253879 0.071730 -0.226223
C100  C     C_R   0.559362 0.252515 0.928839 -0.222273
C101  C     C_R   0.987561 0.742179 0.072491 0.066123
C102  C     C_R   0.008890 0.740264 0.918691 0.081615
C103  C     C_R   0.488840 0.250197 0.076368 0.079166
C104  C     C_R   0.511387 0.249456 0.924301 0.078602
C105  C     C_R   0.973605 0.742224 0.993213 0.007824
C106  C     C_R   0.021732 0.739709 0.996772 -0.030897
C107  C     C_R   0.475807 0.251069 0.997990 0.008139
C108  C     C_R   0.524534 0.250562 0.002733 0.006842
C109  C     C_R   0.912183 0.746854 0.911218 0.041764
C110  C     C_R   0.083027 0.736642 0.078736 0.108395
C111  C     C_R   0.414043 0.252289 0.915092 0.033584
C112  C     C_R   0.586373 0.251006 0.085612 0.031479
C113  C     C_R   0.047155 0.731840 0.152436 -0.049362
C114  C     C_R   0.948012 0.740421 0.836913 -0.030516
C115  C     C_R   0.549512 0.248481 0.158498 -0.014465
C116  C     C_R   0.450651 0.248487 0.842169 -0.013666
C117  C     C_R   0.093544 0.725174 0.153241 0.130226
C118  C     C_R   0.900684 0.749814 0.833220 0.062977
C119  C     C_R   0.597957 0.254852 0.163284 0.061910
C120  C     C_R   0.402695 0.256017 0.837512 0.061271
H1    H     H_    0.951178 0.755638 0.129150 0.206591
H2    H     H_    0.049281 0.746026 0.865448 0.193606
H3    H     H_    0.449777 0.257394 0.130533 0.194823
H4    H     H_    0.550572 0.256081 0.869978 0.196371
C121  C     C_R   0.204184 0.684832 0.752300 0.036513
C122  C     C_R   0.778188 0.661986 0.219027 0.115275
C123  C     C_R   0.697772 0.188081 0.743683 0.048307
C124  C     C_R   0.294194 0.180767 0.247240 0.036351
C125  C     C_R   0.234222 0.668006 0.728464 -0.048358
C126  C     C_R   0.778881 0.669807 0.285384 -0.018302
C127  C     C_R   0.722670 0.173602 0.710479 -0.051055
C128  C     C_R   0.268405 0.162205 0.277384 -0.042228
C129  C     C_R   0.210039 0.629958 0.677877 -0.120386
C130  C     C_R   0.830817 0.657518 0.371849 -0.098095
C131  C     C_R   0.695994 0.136827 0.656106 -0.114651
C132  C     C_R   0.299143 0.127267 0.336342 -0.116711
C133  C     C_R   0.151056 0.617113 0.639506 -0.008502
C134  C     C_R   0.879434 0.635935 0.388884 -0.081649
C135  C     C_R   0.639979 0.122047 0.626225 -0.016779
C136  C     C_R   0.357773 0.118073 0.370887 -0.007600
C137  C     C_R   0.134277 0.623416 0.688074 0.077244
C138  C     C_R   0.877005 0.628178 0.319835 0.037518
C139  C     C_R   0.629533 0.125728 0.682595 0.063453
C140  C     C_R   0.369492 0.123892 0.316121 0.062111
C141  C     C_R   0.165257 0.656638 0.750548 0.026042
C142  C     C_R   0.832201 0.649442 0.240789 0.035002
C143  C     C_R   0.661901 0.158420 0.746185 0.021541
C144  C     C_R   0.335127 0.155417 0.250444 0.019154
C145  C     C_R   0.157615 0.660028 0.809522 -0.113219
C146  C     C_R   0.842148 0.656382 0.185126 -0.106762
C147  C     C_R   0.657454 0.160115 0.809034 -0.108429
C148  C     C_R   0.342199 0.159992 0.190709 -0.108207
C149  C     C_R   0.114161 0.635247 0.800782 0.121058
C150  C     C_R   0.886449 0.633011 0.195321 0.105771
C151  C     C_R   0.616150 0.133873 0.803251 0.115606
C152  C     C_R   0.387002 0.137472 0.200724 0.114929
C153  C     C_R   0.080407 0.603749 0.735580 -0.020986
C154  C     C_R   0.918369 0.600711 0.259484 -0.023183
C155  C     C_R   0.582714 0.102046 0.738686 -0.027420
C156  C     C_R   0.422003 0.106487 0.266952 -0.026494
C157  C     C_R   0.091051 0.597011 0.680387 -0.173039
C158  C     C_R   0.914218 0.598438 0.322708 -0.159799
C159  C     C_R   0.590070 0.097308 0.679555 -0.163783
C160  C     C_R   0.411841 0.098449 0.322503 -0.157088
O33   O     O_R   0.991500 0.545800 0.408400 -0.605952
O34   O     O_R   0.008500 0.545800 0.591600 -0.645135
O35   O     O_R   0.491500 0.045800 0.408400 -0.629859
O36   O     O_R   0.508500 0.045800 0.591600 -0.610166
O37   O     O_R   0.916920 0.545810 0.408440 -0.651407
O38   O     O_R   0.083080 0.545810 0.591560 -0.616363
O39   O     O_R   0.416920 0.045810 0.408440 -0.621598
O40   O     O_R   0.583080 0.045810 0.591560 -0.630545
C161  C     C_R   0.942565 0.562038 0.383630 0.875624
C162  C     C_R   0.059375 0.561073 0.618589 0.883768
C163  C     C_R   0.441593 0.061514 0.382298 0.900394
C164  C     C_R   0.559126 0.061152 0.618312 0.901207
O41   O     O_R   0.491480 0.954180 0.408380 -0.605826
O42   O     O_R   0.508520 0.954180 0.591620 -0.605597
O43   O     O_R   0.991480 0.454180 0.408380 -0.605200
O44   O     O_R   0.008520 0.454180 0.591620 -0.604660
O45   O     O_R   0.416890 0.954190 0.408420 -0.613967
O46   O     O_R   0.583110 0.954190 0.591580 -0.614610
O47   O     O_R   0.916890 0.454190 0.408420 -0.615698
O48   O     O_R   0.083110 0.454190 0.591580 -0.613878
C165  C     C_R   0.441634 0.938310 0.382642 0.839188
C166  C     C_R   0.557868 0.938200 0.617247 0.835736
C167  C     C_R   0.941622 0.438292 0.382616 0.843026
C168  C     C_R   0.057802 0.438123 0.617071 0.845263
Zn9   Zn    Zn3+2 0.549790 0.999990 0.499990 1.046633
Zn10  Zn    Zn3+2 0.450210 0.999990 0.500010 1.062257
Zn11  Zn    Zn3+2 0.049790 0.499990 0.499990 1.049678
Zn12  Zn    Zn3+2 0.950210 0.499990 0.500010 1.001495
C169  C     C_3   0.619940 0.836494 0.999219 -0.831719
H5    H     H_    0.635915 0.832257 0.965838 0.241851
H6    H     H_    0.580845 0.858883 0.955784 0.223819
H7    H     H_    0.658318 0.851655 0.063068 0.248959
C170  C     C_3   0.392212 0.835020 0.025087 -0.829599
H8    H     H_    0.368541 0.828689 0.047091 0.249685
H9    H     H_    0.433438 0.853973 0.079017 0.223154
H10   H     H_    0.360131 0.854563 0.964810 0.242142
C171  C     C_3   0.111026 0.333210 0.982176 -0.830751
H11   H     H_    0.131367 0.328324 0.955079 0.248451
H12   H     H_    0.071003 0.354061 0.933233 0.223577
H13   H     H_    0.146239 0.350372 0.044933 0.244114
C172  C     C_3   0.892988 0.329664 0.017821 -0.826883
H14   H     H_    0.877833 0.323358 0.051838 0.245880
H15   H     H_    0.936968 0.347570 0.065990 0.228323
H16   H     H_    0.857454 0.350499 0.961445 0.242335
C173  C     C_3   0.470111 0.918692 0.274441 -0.817489
H17   H     H_    0.518777 0.915107 0.335490 0.300582
H18   H     H_    0.465076 0.910595 0.218683 0.196693
H19   H     H_    0.456205 0.953144 0.263814 0.238580
C174  C     C_3   0.530372 0.918679 0.727145 -0.812743
H20   H     H_    0.481605 0.913761 0.666780 0.298949
H21   H     H_    0.536320 0.911829 0.784252 0.196588
H22   H     H_    0.543721 0.953350 0.734827 0.238585
C175  C     C_3   0.970753 0.418618 0.275208 -0.810481
H23   H     H_    0.019325 0.414651 0.336309 0.300093
H24   H     H_    0.965685 0.410874 0.219317 0.197702
H25   H     H_    0.957259 0.453113 0.265156 0.238731
C176  C     C_3   0.028009 0.416399 0.723840 -0.822529
H26   H     H_    0.979597 0.412115 0.662173 0.299709
H27   H     H_    0.032308 0.407972 0.779064 0.197307
H28   H     H_    0.041822 0.451108 0.734252 0.240395
C177  C     C_2   0.800477 0.737382 0.829678 0.415368
H29   H     H_    0.790512 0.710869 0.788048 0.091598
O49   O     O_2   0.758695 0.760081 0.806782 -0.573797
C178  C     C_2   0.193674 0.758720 0.165774 0.333163
H30   H     H_    0.233035 0.757116 0.173606 0.108559
O50   O     O_2   0.201551 0.774422 0.225659 -0.566628
C179  C     C_2   0.303012 0.236638 0.831932 0.417758
H31   H     H_    0.295700 0.209991 0.792416 0.092483
O51   O     O_2   0.259260 0.257757 0.806272 -0.568602
C180  C     C_2   0.696507 0.233943 0.168110 0.418396
H32   H     H_    0.702439 0.206930 0.206666 0.091755
O52   O     O_2   0.741306 0.254814 0.194656 -0.566163
C181  C     C_2   0.062215 0.725874 0.235586 0.410258
H33   H     H_    0.105806 0.737490 0.296311 0.105296
O53   O     O_2   0.028052 0.706007 0.237927 -0.568953
C182  C     C_2   0.932929 0.729771 0.754914 0.418087
H34   H     H_    0.895372 0.745161 0.693427 0.106938
O54   O     O_2   0.960673 0.701530 0.754440 -0.519375
C183  C     C_2   0.563209 0.238154 0.239836 0.401240
H35   H     H_    0.600479 0.253994 0.301121 0.097128
O55   O     O_2   0.534385 0.209875 0.239837 -0.540304
C184  C     C_2   0.436260 0.237870 0.760676 0.396565
H36   H     H_    0.399408 0.253700 0.699308 0.095596
O56   O     O_2   0.463910 0.209344 0.760625 -0.542701
C185  C     C_3   0.148686 0.698554 0.226876 -0.772138
H37   H     H_    0.174841 0.686799 0.211300 0.239459
H38   H     H_    0.179351 0.717506 0.288359 0.272046
H39   H     H_    0.133192 0.668959 0.237791 0.229934
C186  C     C_3   0.841684 0.767404 0.747574 -0.858938
H40   H     H_    0.812567 0.740490 0.701166 0.247465
H41   H     H_    0.815901 0.787327 0.755678 0.258176
H42   H     H_    0.851799 0.790570 0.718180 0.245766
C187  C     C_3   0.659096 0.269501 0.250284 -0.847400
H43   H     H_    0.684010 0.241417 0.295087 0.249977
H44   H     H_    0.687990 0.287018 0.243977 0.258936
H45   H     H_    0.652089 0.294029 0.280696 0.242936
C188  C     C_3   0.342625 0.271796 0.750894 -0.853600
H46   H     H_    0.315933 0.244193 0.705202 0.248951
H47   H     H_    0.314790 0.289781 0.757601 0.259033
H48   H     H_    0.351387 0.296154 0.721369 0.243399
C189  C     C_3   0.105058 0.642997 0.862555 -0.750752
H49   H     H_    0.066692 0.624727 0.846800 0.267032
H50   H     H_    0.146762 0.633613 0.929971 0.224248
H51   H     H_    0.095731 0.677825 0.861357 0.246375
C190  C     C_3   0.896880 0.639704 0.134833 -0.735883
H52   H     H_    0.882638 0.610116 0.095010 0.222199
H53   H     H_    0.872198 0.667461 0.089630 0.216313
H54   H     H_    0.945924 0.646374 0.173877 0.311192
C191  C     C_3   0.608817 0.140370 0.867269 -0.762102
H55   H     H_    0.570487 0.122040 0.851514 0.266770
H56   H     H_    0.650934 0.130139 0.933667 0.226922
H57   H     H_    0.600056 0.175080 0.868432 0.244700
C192  C     C_3   0.396077 0.146889 0.139037 -0.757013
H58   H     H_    0.434997 0.130103 0.155383 0.267645
H59   H     H_    0.354730 0.136842 0.071748 0.223973
H60   H     H_    0.404507 0.182128 0.139639 0.247731
C193  C     C_3   0.194939 0.733309 0.743634 -0.792121
H61   H     H_    0.191823 0.746341 0.691416 0.237104
H62   H     H_    0.150789 0.741854 0.722466 0.275971
H63   H     H_    0.233895 0.749569 0.804897 0.243095
C194  C     C_3   0.717708 0.657692 0.126594 -0.952519
H64   H     H_    0.688010 0.635620 0.125526 0.258613
H65   H     H_    0.696836 0.689782 0.102127 0.226159
H66   H     H_    0.720812 0.642266 0.082764 0.259192
C195  C     C_3   0.688306 0.236458 0.738839 -0.801272
H67   H     H_    0.683821 0.251527 0.686630 0.229415
H68   H     H_    0.644474 0.243886 0.719533 0.272767
H69   H     H_    0.727756 0.252006 0.800812 0.248875
C196  C     C_3   0.297767 0.229657 0.248773 -0.808549
H70   H     H_    0.298213 0.243100 0.297808 0.236236
H71   H     H_    0.341289 0.241428 0.270295 0.273753
H72   H     H_    0.257443 0.242641 0.184967 0.241407
C197  C     C_2   0.284249 0.693955 0.747171 0.367954
H73   H     H_    0.310524 0.716762 0.801007 0.100069
O57   O     O_2   0.294318 0.692286 0.700321 -0.561712
C198  C     C_2   0.726208 0.692852 0.262938 0.415126
H74   H     H_    0.681336 0.691865 0.197303 0.109852
O58   O     O_2   0.732760 0.715320 0.316136 -0.557180
C199  C     C_2   0.770017 0.200955 0.724568 0.431415
H75   H     H_    0.799802 0.221534 0.781752 0.085021
O59   O     O_2   0.773733 0.203155 0.670629 -0.560099
C200  C     C_2   0.215766 0.184131 0.256105 0.363361
H76   H     H_    0.184852 0.203284 0.196950 0.100021
O60   O     O_2   0.208561 0.183636 0.306321 -0.560693
C201  C     C_2   0.243405 0.605009 0.661767 0.434555
H77   H     H_    0.288635 0.614848 0.690601 0.144342
O61   O     O_2   0.222169 0.571312 0.619983 -0.580982
C202  C     C_2   0.831745 0.663846 0.442656 0.483250
H78   H     H_    0.790934 0.657135 0.430333 0.107274
O62   O     O_2   0.877315 0.677483 0.514329 -0.501257
C203  C     C_2   0.723642 0.115088 0.627611 0.482488
H79   H     H_    0.765276 0.127247 0.646823 0.178289
O63   O     O_2   0.701979 0.081358 0.585986 -0.579576
C204  C     C_2   0.272271 0.101300 0.363223 0.433308
H80   H     H_    0.227303 0.108210 0.337429 0.147265
O64   O     O_2   0.298706 0.069791 0.410981 -0.578938
C205  C     C_2   0.105319 0.614357 0.542601 0.555962
H81   H     H_    0.118251 0.603087 0.508812 0.107669
O65   O     O_2   0.053400 0.627120 0.498899 -0.537199
C206  C     C_2   0.934798 0.627271 0.480654 0.565639
H82   H     H_    0.932544 0.604437 0.517729 0.100150
O66   O     O_2   0.980534 0.649522 0.517670 -0.492417
C207  C     C_2   0.588700 0.119464 0.530042 0.532979
H83   H     H_    0.594814 0.105116 0.489934 0.138663
O67   O     O_2   0.539893 0.136142 0.493969 -0.526732
C208  C     C_2   0.407904 0.117914 0.467641 0.542520
H84   H     H_    0.399907 0.106679 0.507911 0.129924
O68   O     O_2   0.457989 0.133063 0.503776 -0.530405
C209  C     C_3   0.565032 0.681869 0.916484 -0.812275
H85   H     H_    0.524378 0.661946 0.889898 0.225243
H86   H     H_    0.552428 0.697376 0.858289 0.289941
H87   H     H_    0.604786 0.660412 0.948681 0.237027
C210  C     C_3   0.366795 0.673515 0.964956 -0.893077
H88   H     H_    0.377702 0.655354 0.019802 0.258597
H89   H     H_    0.317583 0.681435 0.918047 0.213153
H90   H     H_    0.372233 0.652451 0.928436 0.250033
C211  C     C_3   0.127365 0.170407 0.027132 -0.889384
H91   H     H_    0.119330 0.154661 0.972990 0.260414
H92   H     H_    0.176913 0.177747 0.079437 0.210139
H93   H     H_    0.116944 0.147335 0.056282 0.254358
C212  C     C_3   0.854594 0.168019 0.951645 -0.895127
H94   H     H_    0.887480 0.143475 0.001359 0.244112
H95   H     H_    0.820425 0.171709 0.955789 0.241692
H96   H     H_    0.826226 0.155541 0.884685 0.237403
C213  C     C_2   0.038047 0.575341 0.730979 0.452683
H97   H     H_    0.049125 0.541478 0.749824 0.035856
O69   O     O_2   0.989643 0.589375 0.702908 -0.515245
C214  C     C_2   0.951631 0.567413 0.255434 0.471688
H98   H     H_    0.940659 0.533322 0.251909 0.033407
O70   O     O_2   0.992516 0.577649 0.258861 -0.540224
C215  C     C_2   0.544663 0.071009 0.738873 0.463148
H99   H     H_    0.559256 0.037679 0.759142 0.025912
O71   O     O_2   0.495758 0.082217 0.712829 -0.522180
C216  C     C_2   0.465659 0.080247 0.273027 0.460047
H100  H     H_    0.455649 0.046305 0.254314 0.036934
O72   O     O_2   0.513767 0.096222 0.301593 -0.519620
C217  C     C_2   0.573534 0.637014 0.054740 0.439116
H101  H     H_    0.575068 0.620857 0.011180 0.079150
O73   O     O_2   0.603888 0.622175 0.128073 -0.557632
C218  C     C_2   0.486787 0.637717 0.072559 0.504093
H102  H     H_    0.483367 0.642272 0.119933 0.072133
O74   O     O_2   0.483170 0.601043 0.047980 -0.531922
C219  C     C_2   0.003728 0.138294 0.900018 0.470524
H103  H     H_    0.011957 0.146638 0.858755 0.088830
O75   O     O_2   0.002954 0.100108 0.915310 -0.549633
C220  C     C_2   0.912037 0.130818 0.903684 0.487504
H104  H     H_    0.924150 0.105701 0.949573 0.089025
O76   O     O_2   0.870632 0.124325 0.825474 -0.573376
C221  C     C_3   0.447855 0.876305 0.967745 -0.878984
H105  H     H_    0.464723 0.896035 0.943435 0.247432
H106  H     H_    0.399198 0.869361 0.908970 0.247894
H107  H     H_    0.453041 0.896686 0.015401 0.243407
C222  C     C_3   0.582821 0.871671 0.086022 -0.867470
H108  H     H_    0.572785 0.887600 0.121887 0.250543
H109  H     H_    0.630810 0.860685 0.136988 0.253393
H110  H     H_    0.577654 0.896503 0.043006 0.239816
C223  C     C_3   0.926124 0.369454 0.927373 -0.880840
H111  H     H_    0.936461 0.386101 0.891760 0.248966
H112  H     H_    0.876640 0.361289 0.877224 0.247201
H113  H     H_    0.936255 0.392562 0.975886 0.243617
C224  C     C_3   0.061731 0.368667 0.051332 -0.876385
H114  H     H_    0.048057 0.384823 0.082401 0.246050
H115  H     H_    0.109889 0.359071 0.106361 0.248245
H116  H     H_    0.057606 0.392935 0.008411 0.243860
C225  C     C_2   0.439849 0.826326 0.217816 0.365710
H117  H     H_    0.482031 0.838985 0.239043 0.107984
O77   O     O_2   0.426929 0.788553 0.194593 -0.546739
C226  C     C_2   0.563726 0.827915 0.794248 0.357681
H118  H     H_    0.525509 0.841419 0.782113 0.105394
O78   O     O_2   0.574146 0.789566 0.813253 -0.564502
C227  C     C_2   0.939616 0.326524 0.216756 0.363490
H119  H     H_    0.980179 0.339727 0.233744 0.105186
O79   O     O_2   0.928303 0.288157 0.197808 -0.539304
C228  C     C_2   0.060316 0.324710 0.785510 0.360066
H120  H     H_    0.018819 0.336635 0.766132 0.107733
O80   O     O_2   0.073189 0.286926 0.808495 -0.551196
C229  C     C_3   0.207457 0.868182 0.078541 -0.884973
H121  H     H_    0.174375 0.893193 0.060791 0.236209
H122  H     H_    0.226422 0.880990 0.051988 0.271916
H123  H     H_    0.182583 0.837249 0.047230 0.241764
C230  C     C_3   0.791584 0.868087 0.916651 -0.881633
H124  H     H_    0.824712 0.893078 0.932011 0.235038
H125  H     H_    0.774311 0.881054 0.944914 0.260860
H126  H     H_    0.815987 0.837293 0.948265 0.252109
C231  C     C_3   0.707681 0.368474 0.078035 -0.883891
H127  H     H_    0.675058 0.393593 0.061443 0.235351
H128  H     H_    0.726857 0.381536 0.051922 0.262589
H129  H     H_    0.682209 0.337882 0.045427 0.253008
C232  C     C_3   0.291493 0.369283 0.919075 -0.878760
H130  H     H_    0.324755 0.394395 0.935248 0.236404
H131  H     H_    0.273360 0.382191 0.946175 0.262079
H132  H     H_    0.315970 0.338545 0.951126 0.252423
C233  C     C_2   0.176503 0.867924 0.182225 0.460100
H133  H     H_    0.142077 0.851510 0.120200 0.093258
O81   O     O_2   0.159877 0.887553 0.212569 -0.581782
C234  C     C_2   0.818460 0.865101 0.808408 0.355032
H134  H     H_    0.852729 0.848359 0.870013 0.109400
O82   O     O_2   0.834806 0.884358 0.776491 -0.570781
C235  C     C_2   0.676330 0.364894 0.180842 0.353084
H135  H     H_    0.642670 0.347879 0.119343 0.109861
O83   O     O_2   0.658792 0.384307 0.210123 -0.575767
C236  C     C_2   0.320441 0.367407 0.813297 0.354737
H136  H     H_    0.354513 0.350601 0.874890 0.109332
O84   O     O_2   0.337241 0.387287 0.782528 -0.573923
C237  C     C_2   0.276679 0.862404 0.373868 0.599700
H137  H     H_    0.248092 0.884758 0.371330 0.101380
O85   O     O_2   0.297326 0.830891 0.422023 -0.513659
C238  C     C_2   0.715273 0.858645 0.617363 0.531624
H138  H     H_    0.745237 0.879538 0.618908 0.118838
O86   O     O_2   0.691229 0.827307 0.568749 -0.527870
C239  C     C_2   0.776531 0.359172 0.372832 0.515514
H139  H     H_    0.745434 0.379640 0.368048 0.115026
O87   O     O_2   0.799899 0.328455 0.423187 -0.527470
C240  C     C_2   0.218766 0.360762 0.621939 0.525333
H140  H     H_    0.248995 0.381997 0.624613 0.116952
O88   O     O_2   0.195460 0.329512 0.573119 -0.527312
C241  C     C_2   0.403941 0.875750 0.453811 0.538215
H141  H     H_    0.448749 0.867072 0.480372 0.003912
O89   O     O_2   0.398873 0.886072 0.504163 -0.565729
C242  C     C_2   0.590207 0.875161 0.542545 0.548959
H142  H     H_    0.545342 0.867588 0.517696 -0.002965
O90   O     O_2   0.594509 0.884519 0.490672 -0.567503
C243  C     C_2   0.903376 0.375788 0.453043 0.552460
H143  H     H_    0.948509 0.367645 0.480176 0.001910
O91   O     O_2   0.897716 0.386103 0.502742 -0.568248
C244  C     C_2   0.092629 0.375797 0.544280 0.551394
H144  H     H_    0.047609 0.367697 0.518510 0.000443
O92   O     O_2   0.097547 0.385607 0.493219 -0.565796

loop_
_geom_bond_atom_site_label_1
_geom_bond_atom_site_label_2
_geom_bond_distance
_ccdc_geom_bond_type
C59   C63   1.423063 A    
C93   C97   1.386271 A    
C140  C160  1.433557 A    
C195  H68   1.109328 S    
C224  H114  1.111251 S    
C102  C106  1.411092 A    
C91   C111  1.418655 A    
C60   C240  1.482322 S    
C96   C100  1.381567 A    
C127  C199  1.490463 S    
C105  C106  1.403626 A    
C126  C198  1.497416 S    
C47   C223  1.514756 S    
C237  H137  1.083724 S    
C95   C99   1.381792 A    
C160  C163  1.461367 S    
C114  C118  1.408889 A    
C55   C59   1.418920 A    
C196  H72   1.096595 S    
C179  H31   1.084999 S    
O45   C165  1.291914 A    
C60   C64   1.423040 A    
C130  C202  1.491557 S    
Zn6   O22   2.028950 S    
C180  H32   1.084997 S    
C233  H133  1.085284 S    
O16   C8    1.283898 A    
C241  O89   1.220132 D    
C210  H90   1.110182 S    
C155  C215  1.484573 S    
O4    Zn4   2.028680 S    
C106  C110  1.421417 A    
C49   C229  1.510667 S    
C204  H80   1.081661 S    
O46   Zn9   2.012900 S    
C231  H128  1.107757 S    
C30   C34   1.418953 A    
C42   C218  1.490356 S    
O38   Zn11  2.022933 S    
O4    C4    1.285910 A    
C3    C75   1.436386 S    
C120  C188  1.520186 S    
C31   C43   1.412241 A    
C195  H67   1.111384 S    
C101  C105  1.418316 A    
C129  C201  1.490039 S    
O34   C162  1.296160 A    
C221  H106  1.108837 S    
C172  H14   1.099377 S    
C90   C94   1.409090 A    
O48   C168  1.290313 A    
C197  H73   1.084836 S    
C121  C125  1.410865 A    
C173  H18   1.109998 S    
C235  H135  1.085312 S    
C218  O74   1.221336 D    
C198  H74   1.082601 S    
C214  O70   1.220632 D    
C209  H87   1.108583 S    
Zn1   O25   2.040515 S    
C25   C209  1.517304 S    
O35   Zn9   2.039730 S    
C229  H123  1.104247 S    
C123  C127  1.413005 A    
Zn3   O19   2.026619 S    
C196  H70   1.111441 S    
Zn4   O28   2.032509 S    
O37   C161  1.289292 A    
Zn5   O29   2.014232 S    
C121  C193  1.510341 S    
C142  C146  1.412625 A    
C192  H60   1.110137 S    
O15   C7    1.280805 A    
C35   C36   1.414224 A    
C239  O87   1.220879 D    
O11   Zn3   2.014195 S    
C203  H79   1.081134 S    
C28   C32   1.431976 A    
C202  H78   1.084961 S    
O9    C5    1.284867 A    
C243  O91   1.219919 D    
O10   Zn2   2.022353 S    
C5    C22   1.443476 S    
C134  C138  1.431919 A    
C89   C93   1.416331 A    
C226  H118  1.082769 S    
O6    Zn6   2.024882 S    
C234  O82   1.220130 D    
C8    C23   1.449833 S    
O19   C11   1.297982 A    
C213  H97   1.085357 S    
C92   C112  1.419563 A    
C224  H116  1.108661 S    
C244  H144  1.084884 S    
O47   Zn12  2.022609 S    
C176  H27   1.109455 S    
C126  C130  1.413509 A    
C188  H48   1.110112 S    
C122  C142  1.413441 A    
C137  C157  1.437588 A    
C17   C21   1.415635 A    
C79   C83   1.392248 A    
C19   C23   1.409591 A    
C65   C85   1.422225 A    
C20   C24   1.409563 A    
C123  C195  1.511859 S    
C67   C87   1.423502 A    
C182  H34   1.082907 S    
C98   H2    1.082318 S    
C57   C237  1.481885 S    
O13   Zn5   2.040561 S    
C184  O56   1.221528 D    
C26   C30   1.403198 A    
C54   C234  1.491264 S    
C43   C219  1.494170 S    
C115  C183  1.496246 S    
C230  H124  1.110223 S    
C30   C42   1.417230 A    
C232  H132  1.104601 S    
C157  C162  1.459125 S    
O3    C3    1.285481 A    
C21   C25   1.410702 A    
C193  H61   1.111362 S    
C172  H16   1.107401 S    
C33   C37   1.418568 A    
C63   C67   1.420624 A    
C175  H24   1.109608 S    
C35   C39   1.428758 A    
O42   C166  1.287394 A    
C136  C140  1.432072 A    
C212  H95   1.099884 S    
O23   C11   1.267681 A    
C223  H111  1.111345 S    
O39   Zn10  2.013209 S    
C136  C208  1.486838 S    
C107  C108  1.402336 A    
C82   C174  1.518205 S    
C217  H101  1.080120 S    
C26   C210  1.525357 S    
C225  H117  1.083870 S    
C83   C175  1.518197 S    
C81   C85   1.422130 A    
C173  H17   1.107251 S    
C24   C28   1.418966 A    
C59   C239  1.482691 S    
C176  H26   1.107427 S    
O47   C167  1.292236 A    
C191  H56   1.109225 S    
C52   C232  1.511277 S    
C52   C56   1.417080 A    
C206  H82   1.082805 S    
C232  H131  1.107883 S    
C171  H11   1.101914 S    
C78   C82   1.395590 A    
C194  H65   1.096189 S    
C124  C196  1.508547 S    
C83   C87   1.423669 A    
C189  H50   1.109183 S    
O45   Zn10  2.022609 S    
C90   C110  1.417045 A    
C211  H93   1.110359 S    
C169  H5    1.103417 S    
C70   C74   1.413670 A    
O20   C12   1.296880 A    
O8    C4    1.279613 A    
C112  C119  1.429148 A    
C92   C180  1.486348 S    
C20   C172  1.528498 S    
C181  H33   1.084997 S    
C113  C117  1.405174 A    
C187  H44   1.100797 S    
C149  C189  1.528678 S    
C242  H142  1.084342 S    
C222  H109  1.109182 S    
C185  H37   1.109018 S    
C151  C155  1.395585 A    
C190  H53   1.104856 S    
C28   C212  1.527729 S    
C22   C26   1.401382 A    
C115  C119  1.403716 A    
C116  C120  1.402846 A    
C131  C203  1.491014 S    
C238  H138  1.083540 S    
O48   Zn11  2.012900 S    
C153  C213  1.484658 S    
C68   C88   1.423820 A    
C76   C80   1.414410 A    
C104  C116  1.411311 A    
C230  H126  1.104220 S    
C107  C111  1.431378 A    
C89   C109  1.421384 A    
C186  H40   1.110092 S    
C200  O60   1.220236 D    
C43   C44   1.409386 A    
C92   C96   1.409920 A    
C193  H63   1.100348 S    
C241  H141  1.084436 S    
C128  C200  1.490615 S    
C102  C114  1.410663 A    
C204  O64   1.221164 D    
C177  O49   1.221229 D    
O25   C13   1.280117 A    
C220  H104  1.084781 S    
C224  H115  1.108883 S    
C73   C77   1.414026 A    
C38   C45   1.423969 A    
O27   C15   1.280549 A    
C203  O63   1.221078 D    
C122  C126  1.410850 A    
C223  H113  1.109248 S    
C75   C79   1.412634 A    
C27   C211  1.523280 S    
C216  O72   1.221011 D    
O33   Zn11  2.039730 S    
C201  O61   1.221186 D    
C53   C57   1.418772 A    
C72   C76   1.415095 A    
C11   C147  1.434974 S    
Zn2   O26   2.032509 S    
C61   C241  1.491353 S    
O16   Zn8   2.032545 S    
C65   C69   1.392263 A    
C20   C40   1.404447 A    
C173  H19   1.110387 S    
O14   C6    1.293342 A    
C67   C71   1.391751 A    
Zn6   O30   2.022399 S    
C36   C40   1.417346 A    
C118  C186  1.519808 S    
O43   Zn11  2.033561 S    
C174  H22   1.109838 S    
C141  C145  1.419281 A    
C100  H4    1.082777 S    
C53   C233  1.493432 S    
C144  C148  1.422156 A    
C171  H13   1.107540 S    
C1    C73   1.437645 S    
O10   C6    1.286399 A    
C99   H3    1.082714 S    
C6    C21   1.465206 S    
O40   Zn9   2.022933 S    
C101  C113  1.418273 A    
C150  C154  1.399317 A    
C79   C227  1.494862 S    
C152  C192  1.528483 S    
C133  C137  1.437964 A    
C56   C60   1.418646 A    
C226  O78   1.218420 D    
C187  H45   1.109946 S    
C180  O52   1.221533 D    
C219  O75   1.221295 D    
C49   C53   1.419764 A    
C240  H140  1.083508 S    
C169  H7    1.107621 S    
C147  C151  1.407865 A    
C210  H89   1.106952 S    
C51   C55   1.417172 A    
C145  C149  1.404885 A    
C132  C136  1.404658 A    
C231  H127  1.110287 S    
C170  H10   1.106879 S    
C183  H35   1.083056 S    
C125  C129  1.407100 A    
C119  C187  1.520254 S    
C227  O79   1.219153 D    
C151  C191  1.528542 S    
O41   C165  1.285539 A    
C4    C76   1.436001 S    
C18   C22   1.414176 A    
C87   C167  1.461747 S    
C47   C48   1.388276 A    
C221  H105  1.111228 S    
C124  C144  1.432418 A    
C233  O81   1.220105 D    
C33   C34   1.406004 A    
O15   Zn7   2.040561 S    
C222  H110  1.108490 S    
C86   C166  1.461917 S    
C154  C214  1.489477 S    
C205  O65   1.216285 D    
O5    C1    1.280185 A    
C201  H77   1.082172 S    
C148  C152  1.408398 A    
O24   C12   1.269752 A    
C110  C117  1.416371 A    
C150  C190  1.522688 S    
C198  O58   1.220590 D    
C186  H42   1.110010 S    
C41   C217  1.488414 S    
C209  H86   1.110498 S    
C66   C70   1.389773 A    
C111  C120  1.428631 A    
C229  H122  1.107500 S    
C54   C58   1.418435 A    
O17   C9    1.295425 A    
C15   C96   1.444918 S    
C185  H39   1.110872 S    
O44   C168  1.288025 A    
C113  C181  1.490809 S    
C138  C142  1.393055 A    
C77   C225  1.495460 S    
C192  H59   1.109194 S    
C58   C238  1.482262 S    
C228  H120  1.083460 S    
O42   Zn10  2.040010 S    
C179  O51   1.221516 D    
C202  O62   1.221128 D    
C29   C33   1.410805 A    
C18   C170  1.523223 S    
C130  C134  1.421003 A    
C2    C74   1.435855 S    
C32   C36   1.429097 A    
C84   C88   1.422523 A    
C90   C178  1.498731 S    
C188  H47   1.100670 S    
O33   C161  1.286634 A    
Zn7   O31   2.014232 S    
C155  C159  1.420181 A    
Zn8   O32   2.022399 S    
C244  O92   1.219763 D    
C85   C165  1.460698 S    
C116  C184  1.496459 S    
C39   C48   1.416260 A    
C197  O57   1.220294 D    
C50   C54   1.416823 A    
C196  H71   1.108330 S    
C211  H92   1.107995 S    
O34   Zn12  2.033285 S    
C135  C139  1.431789 A    
C108  C112  1.431554 A    
C159  C164  1.458413 S    
O1    C1    1.285784 A    
C98   C102  1.392471 A    
C19   C39   1.415178 A    
C152  C156  1.397051 A    
C52   C72   1.418564 A    
C45   C46   1.396727 A    
C14   C93   1.455497 S    
C80   C228  1.495284 S    
C41   C42   1.405740 A    
C68   C72   1.390627 A    
O37   Zn12  2.013209 S    
O7    C3    1.279257 A    
C17   C37   1.418253 A    
C176  H28   1.110212 S    
O21   C9    1.267852 A    
O28   C16   1.280761 A    
C231  H129  1.103871 S    
O30   C14   1.293225 A    
O35   C163  1.295096 A    
C207  O67   1.217207 D    
C134  C206  1.471189 S    
C221  H107  1.107960 S    
C236  O84   1.220128 D    
C172  H15   1.110022 S    
C135  C207  1.483895 S    
C64   C68   1.420627 A    
C89   C177  1.487088 S    
C125  C197  1.490310 S    
C212  H94   1.109183 S    
C97   C101  1.390324 A    
C133  C205  1.488271 S    
C138  C158  1.428180 A    
C188  H46   1.110148 S    
C13   C94   1.446602 S    
C100  C104  1.383950 A    
C238  O86   1.220840 D    
C214  H98   1.084822 S    
O6    C2    1.278232 A    
C208  O68   1.217141 D    
C215  H99   1.085004 S    
C66   C86   1.423815 A    
C91   C95   1.410195 A    
C103  C115  1.411577 A    
C132  C204  1.490680 S    
C175  H25   1.109384 S    
C114  C182  1.496427 S    
C78   C226  1.494788 S    
C58   C62   1.423204 A    
O26   C14   1.282623 A    
C191  H55   1.104803 S    
C174  H20   1.108345 S    
C199  O59   1.220175 D    
C25   C29   1.397555 A    
O3    Zn3   2.030227 S    
C206  O66   1.217781 D    
C27   C31   1.408642 A    
C158  C161  1.458883 S    
C63   C243  1.490346 S    
C194  H64   1.104085 S    
C10   C146  1.440147 S    
O13   C5    1.280272 A    
C29   C41   1.418552 A    
C18   C38   1.416838 A    
Zn3   O27   2.040515 S    
C124  C128  1.412966 A    
C91   C179  1.486888 S    
C234  H134  1.085359 S    
Zn4   O20   2.025067 S    
C189  H49   1.104757 S    
C34   C38   1.423815 A    
Zn5   O21   2.030490 S    
C213  O69   1.221166 D    
O43   C167  1.285856 A    
C50   C230  1.511314 S    
C105  C109  1.427704 A    
C178  H30   1.081406 S    
O12   Zn4   2.022353 S    
O39   C163  1.280853 A    
C199  H75   1.084220 S    
C88   C168  1.462127 S    
C183  O55   1.221443 D    
C187  H43   1.110117 S    
O12   C8    1.286161 A    
C207  H83   1.083259 S    
C62   C242  1.490188 S    
C104  C108  1.414271 A    
C242  O90   1.219685 D    
C222  H108  1.111424 S    
C229  H121  1.110094 S    
C46   C222  1.515173 S    
C190  H52   1.110270 S    
C103  C107  1.414235 A    
C84   C176  1.517868 S    
C182  O54   1.221441 D    
C175  H23   1.107365 S    
C40   C47   1.412485 A    
C139  C143  1.403448 A    
C184  H36   1.083126 S    
C9    C145  1.432349 S    
O46   C166  1.290771 A    
C170  H9    1.108463 S    
C49   C69   1.419963 A    
C177  H29   1.084975 S    
C12   C148  1.433326 S    
C51   C71   1.418156 A    
C230  H125  1.107737 S    
C77   C81   1.391837 A    
C48   C224  1.515794 S    
O41   Zn9   2.033561 S    
Zn2   O18   2.025067 S    
O40   C164  1.281717 A    
C193  H62   1.109130 S    
C219  H103  1.085240 S    
C153  C157  1.423977 A    
O14   Zn6   2.032545 S    
C208  H84   1.083696 S    
C220  O76   1.220550 D    
C69   C73   1.419041 A    
C212  H96   1.103552 S    
O11   C7    1.289164 A    
C223  H112  1.109590 S    
O1    Zn1   2.030227 S    
O9    Zn1   2.014195 S    
C192  H58   1.104965 S    
C99   C103  1.385016 A    
C217  O73   1.221474 D    
O5    Zn5   2.026439 S    
C225  O77   1.218540 D    
C61   C65   1.419692 A    
C23   C27   1.402575 A    
O18   C10   1.278387 A    
O7    Zn7   2.026439 S    
O44   Zn12  2.040010 S    
O8    Zn8   2.024882 S    
C117  C185  1.520142 S    
O2    Zn2   2.028680 S    
C239  H139  1.083378 S    
C174  H21   1.108776 S    
C137  C141  1.403072 A    
C191  H57   1.110706 S    
C131  C135  1.405073 A    
O38   C162  1.279127 A    
C127  C131  1.407948 A    
C121  C141  1.429616 A    
C140  C144  1.401612 A    
C171  H12   1.109010 S    
C82   C86   1.423910 A    
C194  H66   1.105790 S    
C154  C158  1.425304 A    
C156  C160  1.420457 A    
C81   C173  1.518422 S    
C129  C133  1.406569 A    
C189  H51   1.109724 S    
C123  C143  1.433749 A    
C97   H1    1.081311 S    
C122  C194  1.501347 S    
C32   C44   1.435056 A    
C240  O88   1.220846 D    
C169  H6    1.108946 S    
C210  H88   1.109135 S    
C74   C78   1.413378 A    
C37   C46   1.415063 A    
C181  O53   1.219977 D    
C51   C231  1.510966 S    
C195  H69   1.101140 S    
C50   C70   1.418164 A    
O2    C2    1.287123 A    
C243  H143  1.084907 S    
C16   C95   1.444812 S    
O31   C15   1.288631 A    
C109  C118  1.433305 A    
C190  H54   1.106943 S    
C218  H102  1.085050 S    
O32   C16   1.289513 A    
C7    C24   1.453351 S    
C143  C147  1.424692 A    
C44   C220  1.478622 S    
C178  O50   1.219870 D    
C94   C98   1.387318 A    
C17   C169  1.523809 S    
O22   C10   1.286804 A    
C205  H81   1.083926 S    
C236  H136  1.085391 S    
C19   C171  1.524567 S    
C139  C159  1.432267 A    
C237  O85   1.220829 D    
C156  C216  1.483620 S    
C64   C244  1.490588 S    
C186  H41   1.100453 S    
C209  H85   1.110180 S    
C31   C35   1.412355 A    
C215  O71   1.221093 D    
C200  H76   1.084415 S    
C211  H91   1.109156 S    
C45   C221  1.516096 S    
C149  C153  1.395466 A    
C185  H38   1.109714 S    
Zn7   O23   2.030490 S    
C62   C66   1.421022 A    
Zn8   O24   2.028950 S    
C55   C235  1.491635 S    
C232  H130  1.110184 S    
C228  O80   1.218513 D    
C56   C236  1.491348 S    
C146  C150  1.406988 A    
O29   C13   1.290170 A    
C227  H119  1.083593 S    
C128  C132  1.407671 A    
O36   C164  1.292628 A    
Zn1   O17   2.026619 S    
C235  O83   1.220072 D    
C216  H100  1.085386 S    
C71   C75   1.416491 A    
C170  H8    1.101558 S    
C57   C61   1.420966 A    
C80   C84   1.394075 A    
O36   Zn10  2.033285 S    
