data_mof_unit_31355.cif
_audit_creation_date              2012-12-10T20:53:10-0500
_audit_creation_method            fapswitch 2.2
_symmetry_space_group_name_H-M    P1
_symmetry_Int_Tables_number       1
_space_group_crystal_system       triclinic
_cell_length_a                    18.412415
_cell_length_b                    18.368013
_cell_length_c                    18.402883
_cell_angle_alpha                 59.453673
_cell_angle_beta                  59.601634
_cell_angle_gamma                 59.600177
_cell_volume                      4356.06101547

loop_
_atom_site_label
_atom_site_type_symbol
_atom_type_description
_atom_site_fract_x
_atom_site_fract_y
_atom_site_fract_z
_atom_type_partial_charge
Br1   Br    Br    0.283697 0.959247 0.372357 -0.595808
Br2   Br    Br    0.716297 0.040758 0.627618 -0.595765
Br3   Br    Br    0.959330 0.375113 0.283819 -0.607531
Br4   Br    Br    0.040683 0.624864 0.716186 -0.607555
Br5   Br    Br    0.357416 0.284152 0.961339 -0.626536
Br6   Br    Br    0.642611 0.715853 0.038660 -0.626535
C1    C     C_R   0.390341 0.110630 0.109612 0.894383
C2    C     C_R   0.323611 0.832214 0.971830 -0.146882
C3    C     C_R   0.039408 0.544026 0.906052 0.019995
C4    C     C_R   0.453268 0.093417 0.960784 0.011799
C5    C     C_R   0.546738 0.906583 0.039216 0.011830
C6    C     C_R   0.943761 0.948242 0.550879 -0.143353
C7    C     C_R   0.056235 0.051762 0.449120 -0.143370
C8    C     C_R   0.948291 0.550330 0.943787 -0.147881
C9    C     C_R   0.051706 0.449671 0.056216 -0.147891
C10   C     C_R   0.551645 0.943640 0.948318 -0.150359
C11   C     C_R   0.448354 0.056359 0.051684 -0.150389
C12   C     C_R   0.205206 0.244068 0.596705 -0.117897
C13   C     C_R   0.794802 0.755825 0.403450 -0.117851
C14   C     C_R   0.153993 0.615285 0.285722 -0.168429
C15   C     C_R   0.846019 0.384720 0.714291 -0.168452
C16   C     C_R   0.638724 0.253078 0.034741 -0.142404
C17   C     C_R   0.361284 0.746934 0.965324 -0.142407
C18   C     C_R   0.291929 0.195576 0.554445 -0.121124
C19   C     C_R   0.708104 0.804335 0.445738 -0.120734
C20   C     C_R   0.081802 0.589421 0.312699 0.130288
C21   C     C_R   0.609659 0.889369 0.890389 0.894382
C22   C     C_R   0.918222 0.410571 0.687302 0.130311
C23   C     C_R   0.577438 0.322208 0.990775 0.131009
C24   C     C_R   0.422582 0.677765 0.009251 0.131052
C25   C     C_R   0.318850 0.101804 0.581589 0.145972
C26   C     C_R   0.681135 0.898136 0.418410 0.146016
C27   C     C_R   0.044972 0.614319 0.249304 -0.093631
C28   C     C_R   0.955081 0.385641 0.750684 -0.093642
C29   C     C_R   0.555246 0.305474 0.939381 -0.128447
C30   C     C_R   0.444781 0.694417 0.060698 -0.128469
C31   C     C_R   0.258443 0.057238 0.652087 -0.132151
C32   C     C_R   0.110384 0.109851 0.390487 0.888902
C33   C     C_R   0.741467 0.942707 0.347682 -0.132481
C34   C     C_R   0.081420 0.662657 0.159644 -0.122589
C35   C     C_R   0.918653 0.337281 0.840340 -0.122606
C36   C     C_R   0.593404 0.220163 0.932777 -0.101091
C37   C     C_R   0.406618 0.779683 0.067397 -0.101192
C38   C     C_R   0.171795 0.105991 0.693948 -0.131559
C39   C     C_R   0.828087 0.893937 0.305788 -0.131591
C40   C     C_R   0.153682 0.687706 0.133090 -0.122179
C41   C     C_R   0.846380 0.312243 0.866904 -0.122161
C42   C     C_R   0.653591 0.151256 0.977548 -0.096324
C43   C     C_R   0.889614 0.890150 0.609513 0.888873
C44   C     C_R   0.346419 0.848629 0.022668 -0.096373
C45   C     C_R   0.145215 0.199255 0.666248 -0.114617
C46   C     C_R   0.854719 0.800646 0.333687 -0.114641
C47   C     C_R   0.988751 0.591085 0.464971 -0.266983
C48   C     C_R   0.011268 0.408912 0.535031 -0.266928
C49   C     C_R   0.588895 0.466869 0.948889 -0.268129
C50   C     C_R   0.411101 0.533137 0.051075 -0.268128
C51   C     C_R   0.466143 0.992332 0.589741 -0.244922
C52   C     C_R   0.533848 0.007637 0.410265 -0.244956
C53   C     C_R   0.946564 0.551596 0.555904 -0.050531
C54   C     C_R   0.109995 0.390651 0.110155 0.898536
C55   C     C_R   0.053448 0.448402 0.444097 -0.050496
C56   C     C_R   0.553088 0.554399 0.949268 -0.048107
C57   C     C_R   0.446909 0.445604 0.050708 -0.048098
C58   C     C_R   0.554895 0.943225 0.552695 -0.050033
C59   C     C_R   0.445101 0.056749 0.447308 -0.050002
C60   C     C_R   0.958685 0.458824 0.591783 -0.011770
C61   C     C_R   0.041331 0.541173 0.408218 -0.011766
C62   C     C_R   0.463278 0.587846 0.001600 -0.002836
C63   C     C_R   0.536721 0.412157 0.998368 -0.002825
C64   C     C_R   0.589179 0.950317 0.461863 -0.006744
C65   C     C_R   0.890007 0.609349 0.889842 0.898527
C66   C     C_R   0.410814 0.049646 0.538141 -0.006844
C67   C     C_R   0.110045 0.390723 0.389595 0.813567
C68   C     C_R   0.889958 0.609276 0.610405 0.813524
C69   C     C_R   0.390238 0.389984 0.108286 0.807917
C70   C     C_R   0.609762 0.610016 0.891711 0.807903
C71   C     C_R   0.389743 0.111416 0.390421 0.809821
C72   C     C_R   0.610257 0.888579 0.609580 0.809769
C73   C     C_R   0.187720 0.914947 0.419608 0.244342
C74   C     C_R   0.812271 0.085057 0.580382 0.244342
C75   C     C_R   0.915909 0.418878 0.188142 0.240757
C76   C     C_R   0.189713 0.664347 0.196129 -0.150935
C77   C     C_R   0.084097 0.581107 0.811861 0.240762
C78   C     C_R   0.412138 0.186997 0.916460 0.226230
C79   C     C_R   0.587884 0.813007 0.083536 0.226262
C80   C     C_R   0.218310 0.826648 0.423592 -0.150376
C81   C     C_R   0.781680 0.173352 0.576408 -0.150369
C82   C     C_R   0.828520 0.420901 0.219009 -0.141991
C83   C     C_R   0.171489 0.579077 0.780996 -0.141992
C84   C     C_R   0.415681 0.217026 0.828551 -0.150105
C85   C     C_R   0.584357 0.782978 0.171440 -0.150134
C86   C     C_R   0.159824 0.779851 0.466239 -0.185220
C87   C     C_R   0.810318 0.335635 0.803879 -0.150950
C88   C     C_R   0.840173 0.220143 0.533781 -0.185214
C89   C     C_R   0.782280 0.461744 0.160402 -0.184279
C90   C     C_R   0.217714 0.538265 0.839604 -0.184288
C91   C     C_R   0.461053 0.158558 0.781475 -0.184920
C92   C     C_R   0.538972 0.841446 0.218520 -0.184915
C93   C     C_R   0.070009 0.819714 0.507825 -0.127629
C94   C     C_R   0.929991 0.180283 0.492197 -0.127649
C95   C     C_R   0.821630 0.503813 0.070270 -0.127064
C96   C     C_R   0.178351 0.496219 0.929739 -0.127111
C97   C     C_R   0.505370 0.069239 0.820801 -0.132573
C98   C     C_R   0.676393 0.167754 0.028330 -0.146914
C99   C     C_R   0.494632 0.930762 0.179200 -0.132567
C100  C     C_R   0.035347 0.909499 0.505044 0.027050
C101  C     C_R   0.964649 0.090503 0.494960 0.027064
C102  C     C_R   0.910325 0.503343 0.035479 0.029374
C103  C     C_R   0.089669 0.496665 0.964526 0.029357
C104  C     C_R   0.503304 0.034890 0.910223 0.021106
C105  C     C_R   0.496696 0.965109 0.089779 0.021086
C106  C     C_R   0.093794 0.960016 0.456603 0.022376
C107  C     C_R   0.906199 0.039989 0.543393 0.022381
C108  C     C_R   0.960592 0.455971 0.093951 0.019985
H1    H     H_    0.815374 0.288753 0.530813 0.160126
H2    H     H_    0.342742 0.558347 0.092159 0.176121
H3    H     H_    0.440046 0.988120 0.658953 0.169123
H4    H     H_    0.559936 0.011846 0.341055 0.169094
H5    H     H_    0.288860 0.792912 0.394992 0.166582
H6    H     H_    0.711127 0.207086 0.605006 0.166581
H7    H     H_    0.795056 0.392217 0.289814 0.169443
H8    H     H_    0.204961 0.607745 0.710191 0.169436
H9    H     H_    0.384261 0.287262 0.795356 0.172381
H10   H     H_    0.615797 0.712745 0.204629 0.172387
H11   H     H_    0.028311 0.778801 0.541787 0.170005
H12   H     H_    0.184628 0.711235 0.469222 0.160135
H13   H     H_    0.971691 0.221195 0.458253 0.170002
H14   H     H_    0.781226 0.536261 0.028443 0.170664
H15   H     H_    0.218727 0.463816 0.971573 0.170665
H16   H     H_    0.541144 0.027798 0.779497 0.172216
H17   H     H_    0.458851 0.972205 0.220506 0.172215
H18   H     H_    0.181517 0.725464 0.063743 0.128927
H19   H     H_    0.818561 0.274467 0.936248 0.128941
H20   H     H_    0.682687 0.085180 0.972705 0.137353
H21   H     H_    0.317319 0.914669 0.027588 0.137389
H22   H     H_    0.078126 0.236582 0.698811 0.134525
H23   H     H_    0.285585 0.536902 0.814643 0.158365
H24   H     H_    0.921789 0.763308 0.301104 0.134543
H25   H     H_    0.245348 0.684218 0.175560 0.147255
H26   H     H_    0.754675 0.315771 0.824457 0.147228
H27   H     H_    0.723233 0.114435 0.062742 0.129317
H28   H     H_    0.276758 0.885562 0.937455 0.129371
H29   H     H_    0.184495 0.316329 0.575546 0.130257
H30   H     H_    0.815546 0.683543 0.424757 0.130240
H31   H     H_    0.182188 0.597775 0.334098 0.128561
H32   H     H_    0.817801 0.402254 0.665924 0.128548
H33   H     H_    0.656674 0.265170 0.074367 0.123841
H34   H     H_    0.714404 0.463115 0.185363 0.158355
H35   H     H_    0.343322 0.734904 0.925663 0.123830
H36   H     H_    0.337999 0.230829 0.500710 0.101290
H37   H     H_    0.662092 0.769073 0.499640 0.101091
H38   H     H_    0.988261 0.596170 0.269466 0.137876
H39   H     H_    0.011802 0.403779 0.730512 0.137865
H40   H     H_    0.508598 0.358454 0.904547 0.144905
H41   H     H_    0.491436 0.641405 0.095505 0.144863
H42   H     H_    0.278373 0.984920 0.674142 0.129234
H43   H     H_    0.721497 0.015046 0.325465 0.129229
H44   H     H_    0.053310 0.681147 0.110865 0.136369
H45   H     H_    0.536380 0.816976 0.286864 0.163730
H46   H     H_    0.946789 0.318762 0.889107 0.136382
H47   H     H_    0.576318 0.207406 0.893021 0.152247
H48   H     H_    0.423706 0.792375 0.107200 0.152278
H49   H     H_    0.125259 0.071470 0.747925 0.132384
H50   H     H_    0.874562 0.928464 0.251632 0.132371
H51   H     H_    0.463656 0.183031 0.713127 0.163731
H52   H     H_    0.980663 0.661765 0.437409 0.175969
H53   H     H_    0.019357 0.338231 0.562593 0.175931
H54   H     H_    0.657256 0.441655 0.907813 0.176115
O1    O     O_3   0.250000 0.250000 0.250000 -0.481521
O2    O     O_R   0.865800 0.694910 0.573470 -0.647301
O3    O     O_R   0.305090 0.426530 0.134200 -0.647407
O4    O     O_R   0.694910 0.573470 0.865800 -0.647406
O5    O     O_R   0.426530 0.134200 0.305090 -0.653396
O6    O     O_R   0.573470 0.865800 0.694910 -0.653394
O7    O     O_R   0.134190 0.426530 0.134200 -0.633289
O8    O     O_R   0.865810 0.573470 0.865800 -0.633258
O9    O     O_R   0.426530 0.134200 0.134190 -0.628200
O10   O     O_R   0.573470 0.865800 0.865810 -0.628183
O11   O     O_R   0.134200 0.134190 0.426530 -0.625633
O12   O     O_3   0.750000 0.750000 0.750000 -0.481528
O13   O     O_R   0.865800 0.865810 0.573470 -0.625590
O14   O     O_R   0.426530 0.305080 0.134210 -0.626193
O15   O     O_R   0.573470 0.694920 0.865790 -0.626206
O16   O     O_R   0.305080 0.134210 0.426530 -0.619761
O17   O     O_R   0.694920 0.865790 0.573470 -0.619761
O18   O     O_R   0.134210 0.426530 0.305080 -0.628701
O19   O     O_R   0.865790 0.573470 0.694920 -0.628678
O20   O     O_R   0.305080 0.134200 0.134200 -0.596043
O21   O     O_R   0.694920 0.865800 0.865800 -0.596055
O22   O     O_R   0.134200 0.134200 0.305080 -0.601847
O23   O     O_R   0.865800 0.865800 0.694920 -0.601873
O24   O     O_R   0.134200 0.305080 0.134200 -0.594622
O25   O     O_R   0.865800 0.694920 0.865800 -0.594633
O26   O     O_R   0.134200 0.305090 0.426530 -0.647273
Zn1   Zn    Zn3+2 0.206620 0.206630 0.380140 1.016132
Zn2   Zn    Zn3+2 0.793380 0.793370 0.619860 1.016138
Zn3   Zn    Zn3+2 0.206630 0.380140 0.206620 1.006187
Zn4   Zn    Zn3+2 0.793370 0.619860 0.793380 1.006193
Zn5   Zn    Zn3+2 0.380140 0.206620 0.206630 1.006706
Zn6   Zn    Zn3+2 0.619860 0.793380 0.793370 1.006701
Zn7   Zn    Zn3+2 0.206620 0.206620 0.206620 1.068586
Zn8   Zn    Zn3+2 0.793380 0.793380 0.793380 1.068566

loop_
_geom_bond_atom_site_label_1
_geom_bond_atom_site_label_2
_ccdc_geom_bond_type
C6    C100  A    
C49   C56   A    
C13   H30   S    
C16   C23   A    
C14   C76   A    
O5    Zn5   S    
C94   H13   S    
C9    C54   S    
C9    C103  A    
C21   O10   A    
C48   H53   S    
C7    C101  A    
C71   O16   A    
C67   O18   A    
C47   C53   A    
C36   H47   S    
C10   C104  A    
C93   H11   S    
O11   Zn1   S    
C34   C40   A    
C48   C60   A    
Br6   C79   S    
C15   C87   A    
C73   C106  A    
C97   C104  A    
C12   C18   A    
C20   C61   S    
C34   H44   S    
C12   H29   S    
C39   H50   S    
C5    C79   A    
C6    C107  A    
C74   C81   A    
O12   Zn8   S    
C44   H21   S    
C53   C60   A    
C40   H18   S    
C65   O25   A    
C90   C96   A    
C4    C11   A    
C42   C98   A    
C81   C88   A    
O20   Zn7   S    
C52   H4    S    
C2    C17   A    
C16   C98   A    
C65   O8    A    
C1    O9    A    
C8    C65   S    
C26   C33   A    
C102  C108  A    
C70   O4    A    
C29   C36   A    
C101  C107  A    
C20   C27   A    
C40   C76   A    
C13   C46   A    
O7    Zn3   S    
C57   C63   A    
C1    C11   S    
C75   C108  A    
Br3   C75   S    
C46   H24   S    
O24   Zn7   S    
C29   H40   S    
O18   Zn3   S    
O4    Zn4   S    
C80   H5    S    
O23   Zn8   S    
C58   C64   A    
C70   O15   A    
C84   C91   A    
O12   Zn2   S    
C83   C90   A    
C33   C39   A    
C7    C106  A    
C95   C102  A    
C8    C102  A    
O26   Zn1   S    
C17   H35   S    
C82   C89   A    
C22   C28   A    
C85   C92   A    
C67   O26   A    
C33   H43   S    
C31   H42   S    
C56   C70   S    
C28   C35   A    
C78   C84   A    
C49   H54   S    
C47   C61   A    
C11   C105  A    
C35   C41   A    
C12   C45   A    
C6    C43   S    
C96   H15   S    
C23   C63   S    
C3    C103  A    
C77   C83   A    
C9    C108  A    
C27   C34   A    
C59   C71   S    
C89   H34   S    
O19   Zn4   S    
C5    C105  A    
C17   C24   A    
C1    O20   A    
Br2   C74   S    
O1    Zn1   S    
C90   H23   S    
Br5   C78   S    
C52   C64   A    
C100  C106  A    
C39   C46   A    
C32   O22   A    
C50   C62   A    
O25   Zn8   S    
C25   C31   A    
C22   C60   S    
C3    C8    A    
C76   H25   S    
O12   Zn6   S    
C35   H46   S    
C5    C10   A    
C55   C61   A    
C52   C59   A    
C88   C94   A    
C54   O24   A    
C50   H2    S    
C50   C57   A    
C37   C44   A    
C72   O17   A    
C36   C42   A    
C16   H33   S    
C92   C99   A    
C53   C68   S    
C7    C32   S    
C91   C97   A    
C99   H17   S    
C18   H36   S    
C3    C77   A    
C43   O13   A    
C38   C45   A    
C25   C66   S    
C38   H49   S    
C15   C22   A    
C85   H10   S    
C69   O3    A    
Br1   C73   S    
C92   H45   S    
O17   Zn2   S    
O16   Zn1   S    
C2    C44   A    
C45   H22   S    
C57   C69   S    
C51   C58   A    
C51   H3    S    
C68   O19   A    
C28   H39   S    
C42   H20   S    
C93   C100  A    
O10   Zn6   S    
C94   C101  A    
C71   O5    A    
C32   O11   A    
C41   C87   A    
C98   H27   S    
C58   C72   S    
O14   Zn5   S    
O15   Zn6   S    
O8    Zn4   S    
C82   H7    S    
C96   C103  A    
C27   H38   S    
C86   H12   S    
C26   C64   S    
C88   H1    S    
O22   Zn7   S    
C43   O23   A    
C48   C55   A    
C56   C62   A    
O21   Zn8   S    
O13   Zn2   S    
C59   C66   A    
C23   C29   A    
O6    Zn6   S    
C95   H14   S    
C24   C30   A    
C19   H37   S    
C55   C67   S    
C15   H32   S    
C49   C63   A    
C31   C38   A    
C18   C25   A    
C81   H6    S    
O1    Zn3   S    
C87   H26   S    
C80   C86   A    
O1    Zn5   S    
O2    Zn2   S    
Br4   C77   S    
C14   C20   A    
C10   C21   S    
C91   H51   S    
C4    C78   A    
C4    C104  A    
C73   C80   A    
C51   C66   A    
C99   C105  A    
C13   C19   A    
C97   H16   S    
C24   C62   S    
C68   O2    A    
C75   C82   A    
O12   Zn4   S    
O1    Zn7   S    
C37   H48   S    
C47   H52   S    
C74   C107  A    
C30   H41   S    
O3    Zn3   S    
O9    Zn5   S    
C72   O6    A    
C54   O7    A    
C14   H31   S    
C30   C37   A    
C2    H28   S    
C21   O21   A    
C69   O14   A    
C79   C85   A    
C84   H9    S    
C41   H19   S    
C83   H8    S    
C89   C95   A    
C86   C93   A    
C19   C26   A    
