data_mof_unit_45842.cif
_audit_creation_date              2012-12-11T14:42:13-0500
_audit_creation_method            fapswitch 2.2
_symmetry_space_group_name_H-M    P1
_symmetry_Int_Tables_number       1
_space_group_crystal_system       triclinic
_cell_length_a                    18.933794
_cell_length_b                    11.028698
_cell_length_c                    18.859715
_cell_angle_alpha                 90.268742
_cell_angle_beta                  90.60686
_cell_angle_gamma                 89.950603
_cell_volume                      3937.92768134

loop_
_atom_site_label
_atom_site_type_symbol
_atom_type_description
_atom_site_fract_x
_atom_site_fract_y
_atom_site_fract_z
_atom_type_partial_charge
C1    C     C_R   0.728855 0.951753 0.852036 0.549736
C2    C     C_R   0.251753 0.397685 0.919858 -0.043538
C3    C     C_2   0.682406 0.701512 0.595606 0.254474
C4    C     C_R   0.248057 0.896025 0.080400 -0.046351
C5    C     C_R   0.751753 0.897685 0.919858 -0.043539
C6    C     C_R   0.794980 0.317699 0.046383 -0.115554
C7    C     C_R   0.205150 0.318705 0.953312 -0.112246
C8    C     C_R   0.294980 0.817699 0.046383 -0.115554
C9    C     C_R   0.705150 0.818705 0.953312 -0.112246
C10   C     C_R   0.799323 0.316127 0.972742 0.210268
C11   C     C_R   0.200698 0.316627 0.026956 0.211052
C12   C     C_R   0.299323 0.816127 0.972742 0.210267
C13   C     C_R   0.271080 0.951177 0.148105 0.544163
C14   C     C_R   0.700697 0.816627 0.026956 0.211052
C15   C     C_R   0.743833 0.373836 0.932829 -0.012823
C16   C     C_R   0.255836 0.374577 0.067415 -0.011813
C17   C     C_R   0.243833 0.873836 0.932829 -0.012824
C18   C     C_R   0.755836 0.874577 0.067415 -0.011813
C19   C     C_R   0.469605 0.266205 0.545129 -0.132300
C20   C     C_R   0.464866 0.272257 0.472892 -0.129872
C21   C     C_R   0.969605 0.766204 0.545129 -0.132300
C22   C     C_R   0.964866 0.772257 0.472892 -0.129872
C23   C     C_R   0.484589 0.172403 0.431003 0.031934
C24   C     C_R   0.228855 0.451752 0.852036 0.549736
C25   C     C_R   0.498174 0.162905 0.576248 0.036622
C26   C     C_R   0.984589 0.672403 0.431003 0.031934
C27   C     C_R   0.998174 0.662905 0.576248 0.036622
C28   C     C_R   0.507701 0.064971 0.462231 -0.150333
C29   C     C_R   0.514413 0.059921 0.535196 -0.130512
C30   C     C_R   0.007702 0.564971 0.462230 -0.150333
C31   C     C_R   0.014413 0.559921 0.535196 -0.130512
C32   C     C_R   0.791439 0.296808 0.529608 -0.109844
C33   C     C_R   0.228432 0.266561 0.480217 -0.158455
C34   C     C_R   0.291439 0.796807 0.529608 -0.109843
C35   C     C_R   0.771080 0.451177 0.148105 0.544163
C36   C     C_R   0.728432 0.766561 0.480217 -0.158455
C37   C     C_R   0.806422 0.332499 0.461531 0.017679
C38   C     C_R   0.221941 0.290439 0.552774 0.007423
C39   C     C_R   0.306422 0.832499 0.461531 0.017679
C40   C     C_R   0.721941 0.790439 0.552774 0.007423
C41   C     C_R   0.528029 0.178201 0.848362 0.550939
C42   C     C_R   0.472152 0.177809 0.151776 0.553644
C43   C     C_R   0.028029 0.678201 0.848362 0.550939
C44   C     C_R   0.972152 0.677809 0.151776 0.553644
C45   C     C_R   0.755621 0.403585 0.422986 0.001601
C46   C     C_R   0.690672 0.441946 0.042119 -0.144668
C47   C     C_R   0.253834 0.396399 0.581837 0.035129
C48   C     C_R   0.255621 0.903585 0.422986 0.001601
C49   C     C_R   0.753834 0.896399 0.581837 0.035129
C50   C     C_R   0.690462 0.430366 0.454512 -0.162869
C51   C     C_R   0.299908 0.463928 0.539694 -0.160842
C52   C     C_R   0.190462 0.930366 0.454512 -0.162869
C53   C     C_R   0.799907 0.963929 0.539694 -0.160842
C54   C     C_R   0.677916 0.396620 0.524625 -0.138676
C55   C     C_R   0.307254 0.437233 0.468019 -0.136866
C56   C     C_R   0.177916 0.896621 0.524625 -0.138676
C57   C     C_R   0.308538 0.444866 0.958718 -0.147358
C58   C     C_R   0.807253 0.937234 0.468019 -0.136866
C59   C     C_R   0.730311 0.334877 0.563292 0.001638
C60   C     C_R   0.269337 0.341308 0.437223 0.005182
C61   C     C_R   0.230311 0.834877 0.563292 0.001638
C62   C     C_R   0.769337 0.841308 0.437223 0.005182
C63   C     C_R   0.736562 0.353396 0.856446 0.573225
C64   C     C_R   0.263365 0.353303 0.143637 0.566088
C65   C     C_R   0.236562 0.853396 0.856446 0.573224
C66   C     C_R   0.763365 0.853303 0.143637 0.566087
C67   C     C_R   0.729201 0.951361 0.648771 0.561715
C68   C     C_R   0.190672 0.941947 0.042119 -0.144668
C69   C     C_R   0.273487 0.955921 0.353679 0.522092
C70   C     C_R   0.229201 0.451361 0.648771 0.561715
C71   C     C_R   0.773487 0.455921 0.353679 0.522091
C72   C     C_R   0.528949 0.175351 0.645596 0.537684
C73   C     C_R   0.467464 0.177169 0.356860 0.537640
C74   C     C_R   0.028949 0.675351 0.645596 0.537684
C75   C     C_R   0.967464 0.677168 0.356860 0.537640
C76   C     C_R   0.724909 0.310600 0.639189 0.559362
C77   C     C_R   0.274383 0.313523 0.361238 0.552946
C78   C     C_R   0.224909 0.810600 0.639189 0.559361
C79   C     C_R   0.808538 0.944866 0.958718 -0.147358
C80   C     C_R   0.774383 0.813523 0.361238 0.552945
C81   C     C_2   0.491285 0.170108 0.914905 -0.110159
C82   C     C_2   0.508823 0.168965 0.085205 -0.109612
C83   C     C_2   0.991285 0.670108 0.914905 -0.110159
C84   C     C_2   0.008823 0.668965 0.085205 -0.109612
C85   C     C_2   0.483229 0.097640 0.033675 -0.028644
C86   C     C_2   0.515981 0.097335 0.965848 -0.028638
C87   C     C_2   0.983229 0.597639 0.033675 -0.028644
C88   C     C_2   0.015981 0.597335 0.965848 -0.028637
C89   C     C_R   0.687957 0.429681 0.968827 -0.184366
C90   C     C_R   0.748057 0.396025 0.080400 -0.046351
C91   C     C_R   0.311263 0.431956 0.031917 -0.186650
C92   C     C_R   0.187957 0.929681 0.968827 -0.184366
C93   C     C_R   0.811263 0.931956 0.031917 -0.186650
C94   C     C_2   0.425420 0.011874 0.043074 0.368822
C95   C     C_2   0.573596 0.010864 0.956203 0.368750
C96   C     C_2   0.925420 0.511874 0.043074 0.368822
C97   C     C_2   0.073596 0.510864 0.956203 0.368750
C98   C     C_2   0.879470 0.303371 0.438283 0.241567
C99   C     C_2   0.182406 0.201512 0.595605 0.254475
C100  C     C_2   0.379470 0.803370 0.438283 0.241567
Cr1   Cr    Cr6+3 0.769270 0.163730 0.750710 1.076824
Cr2   Cr    Cr6+3 0.385840 0.322500 0.252290 1.037802
Cr3   Cr    Cr6+3 0.114160 0.822500 0.747710 1.051057
Cr4   Cr    Cr6+3 0.885840 0.822500 0.252290 1.037802
Cr5   Cr    Cr6+3 0.230730 0.163730 0.249290 1.077828
Cr6   Cr    Cr6+3 0.269270 0.663730 0.750710 1.076825
Cr7   Cr    Cr6+3 0.730730 0.663730 0.249290 1.077829
Cr8   Cr    Cr6+3 0.612620 0.009790 0.748780 1.096946
Cr9   Cr    Cr6+3 0.387380 0.009790 0.251220 1.073816
Cr10  Cr    Cr6+3 0.112620 0.509790 0.748780 1.096946
Cr11  Cr    Cr6+3 0.887380 0.509790 0.251220 1.073815
Cr12  Cr    Cr6+3 0.614160 0.322500 0.747710 1.051057
H1    H     H_    0.650576 0.481822 0.426109 0.134441
H2    H     H_    0.449716 0.235293 0.926338 0.090721
H3    H     H_    0.050853 0.733187 0.074183 0.087410
H4    H     H_    0.949716 0.735293 0.926338 0.090721
H5    H     H_    0.643030 0.466871 0.940263 0.173795
H6    H     H_    0.355843 0.469893 0.060841 0.171919
H7    H     H_    0.143030 0.966871 0.940263 0.173795
H8    H     H_    0.855843 0.969893 0.060841 0.171920
H9    H     H_    0.648812 0.488827 0.068251 0.211599
H10   H     H_    0.349947 0.493225 0.933178 0.214113
H11   H     H_    0.148812 0.988827 0.068251 0.211600
H12   H     H_    0.327383 0.541743 0.561206 0.144761
H13   H     H_    0.849947 0.993225 0.933178 0.214115
H14   H     H_    0.835548 0.272885 0.077358 0.206492
H15   H     H_    0.164887 0.273468 0.921960 0.209920
H16   H     H_    0.335548 0.772885 0.077358 0.206493
H17   H     H_    0.664887 0.773468 0.921960 0.209921
H18   H     H_    0.456209 0.345812 0.576164 0.142878
H19   H     H_    0.445018 0.355544 0.450072 0.152933
H20   H     H_    0.956209 0.845812 0.576164 0.142878
H21   H     H_    0.945017 0.855543 0.450072 0.152934
H22   H     H_    0.521679 0.986779 0.430357 0.129363
H23   H     H_    0.150576 0.981823 0.426109 0.134441
H24   H     H_    0.536967 0.979038 0.558712 0.147144
H25   H     H_    0.021679 0.486779 0.430357 0.129363
H26   H     H_    0.036967 0.479038 0.558711 0.147144
H27   H     H_    0.831585 0.247265 0.558817 0.160478
H28   H     H_    0.202168 0.188418 0.457097 0.111941
H29   H     H_    0.331584 0.747264 0.558817 0.160478
H30   H     H_    0.702169 0.688418 0.457097 0.111941
H31   H     H_    0.374060 0.029624 0.019393 0.074318
H32   H     H_    0.625036 0.028631 0.979746 0.071478
H33   H     H_    0.874060 0.529623 0.019393 0.074318
H34   H     H_    0.827381 0.041744 0.561206 0.144761
H35   H     H_    0.125036 0.528630 0.979746 0.071478
H36   H     H_    0.913301 0.372669 0.416661 0.148066
H37   H     H_    0.142013 0.145737 0.570565 0.091686
H38   H     H_    0.413301 0.872668 0.416661 0.148066
H39   H     H_    0.642014 0.645740 0.570566 0.091690
H40   H     H_    0.931227 0.155013 0.858101 0.362324
H41   H     H_    0.069170 0.155031 0.140602 0.361176
H42   H     H_    0.431228 0.655009 0.858104 0.362323
H43   H     H_    0.569170 0.655028 0.140601 0.361175
H44   H     H_    0.628598 0.422120 0.549153 0.140975
H45   H     H_    0.340851 0.494040 0.436257 0.194188
H46   H     H_    0.128598 0.922121 0.549153 0.140975
H47   H     H_    0.840850 0.994041 0.436256 0.194188
H48   H     H_    0.550853 0.233187 0.074183 0.087410
O1    O     O_R   0.784320 0.290430 0.830510 -0.412736
O2    O     O_R   0.456080 0.282180 0.333210 -0.526942
O3    O     O_R   0.043920 0.782180 0.666790 -0.533663
O4    O     O_R   0.956080 0.782180 0.333210 -0.526942
O5    O     O_R   0.679040 0.374160 0.674430 -0.466808
O6    O     O_R   0.320960 0.374160 0.325570 -0.496803
O7    O     O_R   0.179040 0.874160 0.674430 -0.466809
O8    O     O_R   0.820960 0.874160 0.325570 -0.496803
O9    O     O_3   0.665350 0.165340 0.749070 -0.306972
O10   O     O_3   0.334650 0.165340 0.250930 -0.297651
O11   O     O_3   0.165350 0.665340 0.749070 -0.306972
O12   O     O_R   0.215680 0.290430 0.169490 -0.413699
O13   O     O_3   0.834650 0.665340 0.250930 -0.297651
O14   O     O_R   0.762640 0.040960 0.825200 -0.468530
O15   O     O_R   0.237360 0.040960 0.174800 -0.465007
O16   O     O_R   0.262640 0.540960 0.825200 -0.468530
O17   O     O_R   0.737360 0.540960 0.174800 -0.465007
O18   O     O_R   0.667400 0.923970 0.829950 -0.477004
O19   O     O_R   0.332600 0.923970 0.170050 -0.483953
O20   O     O_R   0.167400 0.423970 0.829950 -0.477004
O21   O     O_R   0.832600 0.423970 0.170050 -0.483953
O22   O     O_R   0.553960 0.081340 0.821780 -0.448842
O23   O     O_R   0.284320 0.790430 0.830510 -0.412735
O24   O     O_R   0.446040 0.081340 0.178220 -0.445117
O25   O     O_R   0.053960 0.581340 0.821780 -0.448842
O26   O     O_R   0.946040 0.581340 0.178220 -0.445118
O27   O     O_R   0.543180 0.283240 0.826740 -0.522058
O28   O     O_R   0.456820 0.283240 0.173260 -0.520176
O29   O     O_R   0.043180 0.783240 0.826740 -0.522057
O30   O     O_R   0.956820 0.783240 0.173260 -0.520176
O31   O     O_R   0.678360 0.375140 0.822710 -0.501303
O32   O     O_R   0.321640 0.375140 0.177290 -0.508826
O33   O     O_R   0.178360 0.875140 0.822710 -0.501303
O34   O     O_R   0.715680 0.790430 0.169490 -0.413698
O35   O     O_R   0.821640 0.875140 0.177290 -0.508826
O36   O     O_R   0.785050 0.289380 0.670560 -0.509522
O37   O     O_R   0.214950 0.289380 0.329440 -0.498284
O38   O     O_R   0.285050 0.789380 0.670560 -0.509522
O39   O     O_R   0.714950 0.789380 0.329440 -0.498284
O40   O     O_R   0.763320 0.039990 0.676930 -0.537590
O41   O     O_R   0.236680 0.039990 0.323070 -0.520527
O42   O     O_R   0.263320 0.539990 0.676930 -0.537590
O43   O     O_R   0.736680 0.539990 0.323070 -0.520527
O44   O     O_R   0.668130 0.922920 0.670000 -0.478061
O45   O     O_R   0.554640 0.080370 0.673500 -0.510980
O46   O     O_R   0.331870 0.922920 0.330000 -0.532675
O47   O     O_R   0.168130 0.422920 0.670000 -0.478059
O48   O     O_R   0.831870 0.422920 0.330000 -0.532675
O49   O     O_2   0.436547 0.918875 0.075914 -0.375663
O50   O     O_2   0.562297 0.917500 0.923277 -0.374001
O51   O     O_2   0.936547 0.418875 0.075914 -0.375663
O52   O     O_2   0.062297 0.417500 0.923277 -0.374001
O53   O     O_2   0.903966 0.201959 0.446692 -0.555170
O54   O     O_2   0.196733 0.185376 0.658133 -0.466969
O55   O     O_2   0.403965 0.701958 0.446692 -0.555171
O56   O     O_R   0.445360 0.080370 0.326500 -0.515941
O57   O     O_2   0.696734 0.685374 0.658132 -0.466971
O58   O     O_2   0.917701 0.380606 0.907239 -0.248267
O59   O     O_2   0.929348 0.219779 0.995939 -0.221494
O60   O     O_3   0.881494 0.164455 0.872993 -0.514578
O61   O     O_2   0.081594 0.380066 0.091898 -0.250420
O62   O     O_2   0.071438 0.218320 0.002767 -0.221917
O63   O     O_3   0.118898 0.164707 0.125823 -0.513924
O64   O     O_2   0.417702 0.880606 0.907239 -0.248264
O65   O     O_2   0.429348 0.719779 0.995939 -0.221497
O66   O     O_3   0.381494 0.664455 0.872993 -0.514576
O67   O     O_R   0.054640 0.580370 0.673500 -0.510980
O68   O     O_2   0.581594 0.880066 0.091898 -0.250418
O69   O     O_2   0.571438 0.718321 0.002767 -0.221919
O70   O     O_3   0.618898 0.664707 0.125823 -0.513923
O71   O     O_R   0.945360 0.580370 0.326500 -0.515941
O72   O     O_R   0.543920 0.282180 0.666790 -0.533663
S1    S     S_3+6 0.883557 0.269840 0.937571 0.042861
S2    S     S_3+6 0.116588 0.269514 0.061542 0.042432
S3    S     S_3+6 0.383557 0.769840 0.937571 0.042862
S4    S     S_3+6 0.616587 0.769514 0.061542 0.042432

loop_
_geom_bond_atom_site_label_1
_geom_bond_atom_site_label_2
_ccdc_geom_bond_type
C70   O42   A    
C12   S3    S    
C87   C88   S    
C100  O55   D    
C58   C62   A    
Cr5   O12   S    
O61   S2    D    
C45   C71   S    
C43   C83   S    
Cr6   O11   S    
O59   S1    D    
C2    C7    A    
C42   C82   S    
C84   C87   D    
C48   C69   S    
C4    C8    A    
Cr9   O56   S    
Cr12  O27   S    
C14   S4    S    
C66   O35   A    
C39   C100  S    
C2    C57   A    
C21   H20   S    
C46   C89   A    
C85   C86   S    
Cr9   O10   S    
C7    C11   A    
C96   H33   S    
C99   H37   S    
C78   O7    A    
C50   C54   A    
H42   O66   S    
C28   H22   S    
C94   H31   S    
C45   C50   A    
C62   C80   S    
C28   C29   A    
C97   O52   D    
C92   H7    S    
H41   O63   S    
C48   C52   A    
Cr10  O67   S    
C54   H44   S    
C30   C31   A    
C49   C53   A    
C15   C89   A    
C43   O25   A    
C33   H28   S    
C40   C49   A    
Cr11  O21   S    
Cr11  O71   S    
C41   O27   A    
C63   O1    A    
C1    O18   A    
C4    C13   S    
C36   H30   S    
Cr3   O3    S    
C56   H46   S    
C67   O44   A    
C76   O36   A    
C44   O30   A    
C57   H10   S    
C54   C59   A    
C8    H16   S    
C19   C20   A    
Cr11  O26   S    
C12   C17   A    
C24   O20   A    
Cr2   O32   S    
C73   O56   A    
O70   S4    S    
Cr10  O47   S    
Cr3   O29   S    
C93   H8    S    
C5    C79   A    
C27   C74   S    
C72   O72   A    
C81   C86   D    
Cr1   O36   S    
C3    O57   D    
Cr6   O38   S    
Cr10  O11   S    
Cr11  O48   S    
C19   H18   S    
Cr5   O37   S    
C83   C88   D    
C21   C27   A    
C41   C81   S    
C95   H32   S    
Cr2   O6    S    
C96   O51   D    
C55   C60   A    
Cr7   O17   S    
Cr3   O11   S    
C51   H12   S    
C97   H35   S    
Cr1   O14   S    
C17   C92   A    
C23   C73   S    
C36   C62   A    
C68   H11   S    
C37   C98   S    
C64   O32   A    
C65   O33   A    
C35   O17   A    
C25   C29   A    
C69   O41   A    
C60   C77   S    
C1    O14   A    
Cr1   O40   S    
Cr5   O10   S    
C22   H21   S    
C27   C31   A    
C34   C39   A    
O65   S3    D    
O60   S1    S    
C36   C40   A    
C6    H14   S    
C32   H27   S    
C67   O40   A    
C4    C68   A    
C38   C99   S    
C47   C51   A    
Cr7   O13   S    
C100  H38   S    
C77   O6    A    
C6    C90   A    
C80   O39   A    
C34   C61   A    
Cr2   O28   S    
O66   S3    S    
C75   O4    A    
C64   O12   A    
C71   O43   A    
C9    C14   A    
C47   C70   S    
Cr7   O43   S    
C73   O2    A    
O63   S2    S    
Cr6   O42   S    
C82   H48   S    
C85   C94   S    
Cr9   O19   S    
Cr5   O41   S    
Cr12  O9    S    
C20   C23   A    
Cr10  O20   S    
C61   C78   S    
C8    C12   A    
Cr4   O30   S    
C87   C96   S    
C26   C75   S    
C69   O46   A    
C91   H6    S    
Cr8   O18   S    
C76   O5    A    
C46   H9    S    
C25   C72   S    
C32   C37   A    
C31   H26   S    
C75   O71   A    
C33   C60   A    
C38   C47   A    
Cr4   O13   S    
C16   C91   A    
C57   C91   A    
Cr9   O24   S    
C71   O48   A    
C98   O53   D    
C89   H5    S    
C3    C40   S    
C26   C30   A    
C84   H3    S    
C2    C24   S    
C34   H29   S    
C1    C5    S    
C41   O22   A    
C23   C28   A    
C52   H23   S    
C20   H19   S    
C37   C45   A    
C24   O16   A    
C66   O34   A    
Cr2   O2    S    
C65   O23   A    
C42   O28   A    
C13   O15   A    
C18   C66   S    
O62   S2    D    
C10   S1    S    
C15   C63   S    
C49   C67   S    
C74   O67   A    
Cr11  O13   S    
C95   O50   D    
C17   C65   S    
C83   H4    S    
O64   S3    D    
C88   C97   S    
O58   S1    D    
C5    C9    A    
Cr8   O45   S    
C44   C84   S    
C6    C10   A    
C53   C58   A    
C79   C93   A    
C72   O45   A    
C46   C90   A    
C99   O54   D    
C9    H17   S    
C35   O21   A    
C82   C85   D    
Cr3   O33   S    
C58   H47   S    
H43   O70   S    
C3    H39   S    
C33   C38   A    
Cr12  O72   S    
Cr8   O22   S    
C10   C15   A    
C81   H2    S    
C42   O24   A    
C21   C22   A    
C50   H1    S    
O69   S4    D    
Cr1   O1    S    
C70   O47   A    
Cr4   O8    S    
Cr8   O44   S    
C13   O19   A    
Cr12  O31   S    
Cr7   O39   S    
Cr4   O4    S    
C74   O3    A    
C98   H36   S    
Cr2   O10   S    
C11   S2    S    
C63   O31   A    
Cr12  O5    S    
H40   O60   S    
Cr10  O25   S    
C53   H34   S    
C68   C92   A    
Cr4   O35   S    
C14   C18   A    
C78   O38   A    
C51   C55   A    
Cr1   O9    S    
C79   H13   S    
Cr9   O46   S    
C19   C25   A    
Cr3   O7    S    
Cr6   O23   S    
O68   S4    D    
C11   C16   A    
C86   C95   S    
C22   C26   A    
C35   C90   S    
C55   H45   S    
C29   H24   S    
C43   O29   A    
C94   O49   D    
Cr5   O15   S    
C30   H25   S    
C18   C93   A    
Cr6   O16   S    
C56   C61   A    
C16   C64   S    
C32   C59   A    
C7    H15   S    
Cr8   O9    S    
C77   O37   A    
C59   C76   S    
C80   O8    A    
Cr7   O34   S    
C52   C56   A    
C44   O26   A    
C39   C48   A    
