data_mof_unit_17597.cif
_audit_creation_date              2012-12-10T17:05:13-0500
_audit_creation_method            fapswitch 2.2
_symmetry_space_group_name_H-M    P1
_symmetry_Int_Tables_number       1
_space_group_crystal_system       triclinic
_cell_length_a                    10.766761
_cell_length_b                    10.924316
_cell_length_c                    9.906792
_cell_angle_alpha                 110.751646
_cell_angle_beta                  98.139259
_cell_angle_gamma                 92.94904
_cell_volume                      1072.14350392

loop_
_atom_site_label
_atom_site_type_symbol
_atom_type_description
_atom_site_fract_x
_atom_site_fract_y
_atom_site_fract_z
_atom_type_partial_charge
C1    C     C_R   0.485090 0.253451 0.440959 0.849530
C2    C     C_3   0.876657 0.497360 0.497389 0.066920
C3    C     C_3   0.943272 0.642632 0.559670 0.014381
C4    C     C_3   0.903739 0.423474 0.340809 -0.398825
C5    C     C_2   0.464725 0.112295 0.410263 -0.361023
C6    C     C_2   0.453851 0.071348 0.520556 -0.173428
C7    C     C_2   0.518181 0.890245 0.595988 -0.002131
C8    C     C_2   0.449451 0.932161 0.499608 -0.234043
C9    C     C_2   0.509336 0.516362 0.081791 0.231207
C10   C     C_2   0.485929 0.492322 0.920459 -0.087801
C11   C     C_R   0.259981 0.496839 0.500862 0.777396
C12   C     C_R   0.512114 0.747120 0.560129 0.824805
C13   C     C_R   0.739160 0.496744 0.498278 0.796268
C14   C     C_3   0.078871 0.439346 0.618389 0.044611
C15   C     C_3   0.932858 0.420958 0.593922 -0.438467
C16   C     C_3   0.083106 0.640814 0.535678 -0.023030
C17   C     C_3   0.046705 0.410268 0.346577 -0.068967
C18   C     C_3   0.121962 0.497799 0.504604 0.091217
Cu1   Cu    Cu3+1 0.522160 0.521810 0.644910 0.910539
Cu2   Cu    Cu3+1 0.477840 0.478190 0.355090 0.909491
H1    H     H_    0.872912 0.477448 0.267772 0.158638
H2    H     H_    0.089402 0.662194 0.434644 0.158673
H3    H     H_    0.391394 0.862648 0.400744 0.168903
H4    H     H_    0.457969 0.141916 0.631100 0.176887
H5    H     H_    0.460583 0.042303 0.299349 0.159924
H6    H     H_    0.406575 0.423093 0.850494 0.133237
H7    H     H_    0.637976 0.610911 0.921060 0.208016
H8    H     H_    0.113364 0.340870 0.594862 0.149645
H9    H     H_    0.378344 0.371326 0.064926 0.165835
H10   H     H_    0.898490 0.314276 0.539537 0.149339
H11   H     H_    0.898381 0.452393 0.700546 0.194303
H12   H     H_    0.940733 0.683760 0.679248 0.175210
H13   H     H_    0.076809 0.448565 0.264537 0.172862
H14   H     H_    0.847164 0.325060 0.292033 0.187208
N1    N     N_2   0.444530 0.445420 0.137360 -0.308337
N2    N     N_2   0.555520 0.554510 0.862630 -0.291651
O1    O     O_R   0.511820 0.332340 0.577400 -0.574738
O2    O     O_R   0.474400 0.295500 0.332650 -0.573274
O3    O     O_R   0.336400 0.518400 0.622370 -0.573250
O4    O     O_R   0.298980 0.481560 0.377620 -0.586554
O5    O     O_R   0.525600 0.704500 0.667350 -0.557718
O6    O     O_R   0.488180 0.667660 0.422600 -0.591045
O7    O     O_R   0.701020 0.518440 0.622380 -0.592436
O8    O     O_R   0.663600 0.481600 0.377630 -0.601828
C19   C     C_3   0.127938 0.516341 0.784005 -0.883064
H15   H     H_    0.075195 0.602061 0.828961 0.228680
H16   H     H_    0.111786 0.450594 0.844966 0.213568
H17   H     H_    0.229405 0.550895 0.812499 0.268616
C20   C     C_3   0.876461 0.735933 0.494286 -0.951953
H18   H     H_    0.778869 0.743457 0.517327 0.228012
H19   H     H_    0.926974 0.836812 0.544790 0.247255
H20   H     H_    0.873606 0.702167 0.374224 0.234021
C21   C     C_3   0.600821 0.989669 0.734721 -0.393929
C22   C     C_3   0.687978 0.933300 0.828596 -0.821099
H21   H     H_    0.632794 0.886984 0.887843 0.264012
H22   H     H_    0.744464 0.861265 0.760868 0.249698
H23   H     H_    0.754379 0.014627 0.912403 0.226373
H24   H     H_    0.662421 0.055021 0.701525 0.214717
H25   H     H_    0.539007 0.051793 0.805388 0.201822
C23   C     C_3   0.609388 0.630620 0.175785 -0.285101
C24   C     C_3   0.566865 0.764365 0.182963 -0.859314
H26   H     H_    0.582508 0.787115 0.085901 0.233131
H27   H     H_    0.464946 0.765678 0.189171 0.256836
H28   H     H_    0.621588 0.843943 0.281100 0.244635
H29   H     H_    0.637668 0.636930 0.286758 0.260537
H30   H     H_    0.700379 0.616689 0.135015 0.126432
C25   C     C_3   0.170985 0.754540 0.657527 -0.871633
H31   H     H_    0.175965 0.748887 0.766994 0.249687
H32   H     H_    0.267703 0.757293 0.632033 0.233843
H33   H     H_    0.137057 0.850342 0.663995 0.228765
C26   C     C_3   0.071077 0.263796 0.294018 -0.891080
H34   H     H_    0.028251 0.214080 0.176660 0.236002
H35   H     H_    0.173465 0.252998 0.303933 0.241874
H36   H     H_    0.028351 0.211159 0.356420 0.232158

loop_
_geom_bond_atom_site_label_1
_geom_bond_atom_site_label_2
_ccdc_geom_bond_type
C24   H28   S    
C2    C4    S    
C21   H24   S    
C11   C18   S    
C21   C22   S    
C12   O5    A    
C2    C15   S    
H7    N2    S    
C26   H36   S    
Cu2   O2    S    
C9    C10   S    
C14   C18   S    
Cu2   O6    S    
Cu1   Cu2   S    
C1    O1    A    
C25   H33   S    
C6    H4    S    
C9    C23   S    
C13   O7    A    
C6    C8    S    
C17   C18   S    
C21   H25   S    
C23   H30   S    
C26   H34   S    
C16   C25   S    
C19   H15   S    
C11   O3    A    
C4    H1    S    
C25   H32   S    
C10   H6    S    
C7    C12   S    
C17   H13   S    
C1    O2    A    
C5    H5    S    
C5    C6    D    
Cu1   O3    S    
Cu2   O8    S    
Cu1   O7    S    
C23   H29   S    
C17   C26   S    
C14   C19   S    
C2    C3    S    
Cu1   N2    S    
C19   H16   S    
C4    H14   S    
C3    C20   S    
C24   H26   S    
Cu2   O4    S    
C1    C5    S    
C4    C17   S    
C12   O6    A    
C11   O4    A    
H9    N1    S    
Cu1   O5    S    
C7    C8    D    
C8    H3    S    
C15   H10   S    
C16   C18   S    
C20   H18   S    
C19   H17   S    
C26   H35   S    
C24   H27   S    
C2    C13   S    
C7    C21   S    
C14   C15   S    
C23   C24   S    
C9    N1    D    
C10   N2    D    
Cu1   O1    S    
C3    H12   S    
C14   H8    S    
C22   H21   S    
Cu2   N1    S    
C15   H11   S    
C13   O8    A    
C3    C16   S    
C25   H31   S    
C20   H20   S    
C16   H2    S    
C22   H22   S    
C20   H19   S    
C22   H23   S    
