data_mof_unit_59963.cif
_audit_creation_date              2012-12-10T17:02:28-0500
_audit_creation_method            fapswitch 2.2
_symmetry_space_group_name_H-M    P1
_symmetry_Int_Tables_number       1
_space_group_crystal_system       triclinic
_cell_length_a                    11.003785
_cell_length_b                    11.096792
_cell_length_c                    9.908741
_cell_angle_alpha                 110.939549
_cell_angle_beta                  98.580496
_cell_angle_gamma                 87.952013
_cell_volume                      1117.16740859

loop_
_atom_site_label
_atom_site_type_symbol
_atom_type_description
_atom_site_fract_x
_atom_site_fract_y
_atom_site_fract_z
_atom_type_partial_charge
C1    C     C_R   0.492382 0.254241 0.440574 0.829875
C2    C     C_R   0.506980 0.745674 0.559429 0.830928
C3    C     C_2   0.479314 0.114355 0.402490 -0.044595
C4    C     C_2   0.520213 0.885362 0.597596 -0.043519
C5    C     C_2   0.532144 0.055552 0.493025 0.172714
C6    C     C_2   0.467309 0.944550 0.507476 0.170642
C7    C     C_2   0.481509 0.520731 0.072382 0.300417
C8    C     C_2   0.522320 0.472452 0.919608 0.309842
C9    C     C_R   0.263062 0.500148 0.501663 0.801290
C10   C     C_R   0.737204 0.500025 0.498566 0.803131
C11   C     C_R   0.145103 0.694781 0.737652 0.063288
C12   C     C_R   0.857680 0.299781 0.264695 0.056026
C13   C     C_R   0.094639 0.751639 0.866986 0.329919
C14   C     C_R   0.911994 0.235897 0.138948 0.320795
C15   C     C_R   0.968108 0.755174 0.860653 0.299760
C16   C     C_R   0.038746 0.233212 0.149133 0.301909
C17   C     C_R   0.895276 0.688119 0.729427 -0.285191
C18   C     C_R   0.108771 0.305953 0.279230 -0.273757
C19   C     C_R   0.946466 0.592643 0.614132 -0.003376
C20   C     C_R   0.055155 0.404246 0.389179 -0.002237
C21   C     C_R   0.075653 0.595979 0.617289 0.017887
C22   C     C_R   0.925626 0.401289 0.384224 0.020640
C23   C     C_R   0.871265 0.497633 0.497228 -0.107074
C24   C     C_R   0.129461 0.501078 0.503696 -0.103726
Cu1   Cu    Cu3+1 0.521920 0.521810 0.644910 0.934774
Cu2   Cu    Cu3+1 0.478080 0.478190 0.355090 0.940223
H1    H     H_    0.799027 0.709943 0.723254 0.191158
H2    H     H_    0.205438 0.285687 0.289337 0.182984
N1    N     N_2   0.445130 0.445420 0.137360 -0.157621
N2    N     N_2   0.554870 0.554580 0.862640 -0.172076
O1    O     O_R   0.511700 0.332340 0.577400 -0.580798
O2    O     O_R   0.488300 0.667660 0.422600 -0.586728
O3    O     O_R   0.474680 0.295500 0.332650 -0.590757
O4    O     O_R   0.525320 0.704500 0.667350 -0.587055
O5    O     O_R   0.338170 0.518410 0.622370 -0.562868
O6    O     O_R   0.661830 0.481590 0.377630 -0.563810
O7    O     O_R   0.301150 0.481570 0.377630 -0.576269
O8    O     O_R   0.698850 0.518430 0.622370 -0.593559
Br1   Br    Br    0.118688 0.125212 0.989940 -0.488728
Br2   Br    Br    0.893408 0.856756 0.027356 -0.483567
C25   C     C_3   0.254246 0.765827 0.724386 -0.715436
H3    H     H_    0.337757 0.747044 0.791101 0.271977
H4    H     H_    0.267008 0.742562 0.609323 0.193392
H5    H     H_    0.238692 0.871444 0.766918 0.251931
C26   C     C_3   0.744740 0.233732 0.276724 -0.722687
H6    H     H_    0.730571 0.258425 0.391504 0.196334
H7    H     H_    0.663632 0.255047 0.208579 0.264441
H8    H     H_    0.756310 0.127427 0.235260 0.251529
Br3   Br    Br    0.198149 0.829889 0.049297 -0.546676
Br4   Br    Br    0.814626 0.143720 0.956362 -0.553100
C27   C     C_3   0.329443 0.921682 0.460068 -0.812468
H9    H     H_    0.285525 0.989780 0.409970 0.269310
H10   H     H_    0.307818 0.822038 0.383458 0.248619
H11   H     H_    0.284007 0.937349 0.557569 0.229078
C28   C     C_3   0.670431 0.076149 0.537381 -0.819020
H12   H     H_    0.714449 0.006647 0.585340 0.268953
H13   H     H_    0.714426 0.060940 0.438983 0.231007
H14   H     H_    0.693473 0.175010 0.614889 0.244085
C29   C     C_3   0.574939 0.962325 0.752589 -0.797064
H15   H     H_    0.518761 0.947000 0.829581 0.244988
H16   H     H_    0.669169 0.928126 0.774348 0.279577
H17   H     H_    0.576706 0.067104 0.774481 0.267749
C30   C     C_3   0.428061 0.036000 0.246505 -0.790134
H18   H     H_    0.483979 0.054273 0.171018 0.242256
H19   H     H_    0.431153 0.931169 0.225176 0.270923
H20   H     H_    0.332320 0.065288 0.222089 0.280834
C31   C     C_3   0.574150 0.339643 0.866717 -0.796553
H21   H     H_    0.612793 0.311677 0.960721 0.233324
H22   H     H_    0.652030 0.338572 0.807371 0.259893
H23   H     H_    0.501735 0.269337 0.795071 0.229017
C32   C     C_3   0.471672 0.664198 0.144527 -0.761804
H24   H     H_    0.460342 0.713240 0.063768 0.221048
H25   H     H_    0.554936 0.705581 0.224190 0.232632
H26   H     H_    0.387017 0.685006 0.195642 0.264950
C33   C     C_3   0.671703 0.620915 0.930567 -0.478497
H27   H     H_    0.748724 0.557783 0.889511 0.220049
H28   H     H_    0.674061 0.708863 0.903011 0.237780
H29   H     H_    0.686072 0.650705 0.051199 0.181742
C34   C     C_3   0.386806 0.321778 0.049249 -0.489508
H30   H     H_    0.313272 0.305612 0.105545 0.248268
H31   H     H_    0.342149 0.319678 0.940114 0.185172
H32   H     H_    0.453276 0.242671 0.039691 0.191191

loop_
_geom_bond_atom_site_label_1
_geom_bond_atom_site_label_2
_ccdc_geom_bond_type
Cu1   O1    S    
C28   H12   S    
C30   H19   S    
Cu2   O2    S    
C7    N1    D    
C25   H3    S    
C2    C4    S    
C1    O3    A    
C7    C8    S    
C26   H6    S    
C19   C21   A    
C1    C3    S    
C7    C32   S    
C5    C6    S    
C12   C22   A    
C1    O1    A    
C2    O2    A    
C20   C24   A    
Cu2   N1    S    
C6    C27   S    
Cu1   O4    S    
C2    O4    A    
C30   H20   S    
C29   H15   S    
C25   H4    S    
C31   H21   S    
C26   H7    S    
C29   H16   S    
C27   H9    S    
C17   H1    S    
C18   H2    S    
C4    C6    D    
C34   H31   S    
Cu1   Cu2   S    
C11   C21   A    
C30   H18   S    
C31   H22   S    
C19   C23   A    
C33   H27   S    
Cu1   O8    S    
C34   H32   S    
Cu2   O3    S    
N1    C34   S    
C9    O7    A    
C9    C24   S    
C33   H28   S    
Cu1   O5    S    
C13   Br3   S    
Cu2   O6    S    
C12   C14   A    
C13   C15   A    
C25   H5    S    
C14   C16   A    
C28   H14   S    
C32   H25   S    
C26   H8    S    
Cu1   N2    S    
C15   C17   A    
C29   H17   S    
C5    C28   S    
C20   C22   A    
C12   C26   S    
C3    C5    D    
C32   H26   S    
Cu2   O7    S    
C3    C30   S    
C10   C23   S    
C10   O8    A    
C27   H11   S    
C8    N2    D    
C31   H23   S    
C28   H13   S    
C32   H24   S    
N2    C33   S    
C11   C13   A    
C14   Br4   S    
C4    C29   S    
C17   C19   A    
C11   C25   S    
C18   C20   A    
C33   H29   S    
C15   Br2   S    
C16   Br1   S    
C34   H30   S    
C8    C31   S    
C16   C18   A    
C21   C24   A    
C9    O5    A    
C22   C23   A    
C10   O6    A    
C27   H10   S    
