data_mof_unit_16299.cif
_audit_creation_date              2012-12-10T17:59:16-0500
_audit_creation_method            fapswitch 2.2
_symmetry_space_group_name_H-M    P1
_symmetry_Int_Tables_number       1
_space_group_crystal_system       triclinic
_cell_length_a                    10.824855
_cell_length_b                    9.579595
_cell_length_c                    10.776593
_cell_angle_alpha                 90.311957
_cell_angle_beta                  91.315703
_cell_angle_gamma                 90.082873
_cell_volume                      1117.19563068

loop_
_atom_site_label
_atom_site_type_symbol
_atom_type_description
_atom_site_fract_x
_atom_site_fract_y
_atom_site_fract_z
_atom_type_partial_charge
C1    C     C_R   0.262278 0.499937 0.499558 0.832156
C2    C     C_3   0.636969 0.516328 0.938839 -0.098639
C3    C     C_R   0.063803 0.373150 0.501416 -0.130014
C4    C     C_R   0.064038 0.626725 0.496082 -0.125246
C5    C     C_R   0.936031 0.373230 0.501509 -0.129341
C6    C     C_R   0.936265 0.626780 0.496135 -0.101589
C7    C     C_R   0.871698 0.500055 0.499266 -0.047982
C8    C     C_R   0.128340 0.499910 0.499014 -0.021607
C9    C     C_R   0.418922 0.073625 0.425990 -0.097410
C10   C     C_R   0.418663 0.925187 0.426275 -0.101550
C11   C     C_R   0.581897 0.926802 0.573145 0.419922
C12   C     C_R   0.581152 0.074595 0.574129 0.426175
C13   C     C_R   0.492757 0.499526 0.260522 0.863302
C14   C     C_R   0.737740 0.500055 0.499823 0.811538
C15   C     C_R   0.501765 0.500258 0.740416 0.783234
C16   C     C_3   0.419839 0.626542 0.068686 0.258760
C17   C     C_3   0.441014 0.357855 0.068171 0.257132
C18   C     C_3   0.415008 0.618192 0.925945 -0.412956
C19   C     C_3   0.443867 0.360735 0.925381 -0.365642
C20   C     C_3   0.628098 0.511719 0.083695 -0.544325
C21   C     C_3   0.492031 0.498570 0.123138 -0.056106
C22   C     C_3   0.501778 0.500133 0.879425 -0.118207
Cu1   Cu    Cu3+1 0.500020 0.640660 0.500000 1.017631
Cu2   Cu    Cu3+1 0.500020 0.359340 0.500000 1.017074
H1    H     H_    0.470543 0.723717 0.095616 0.119754
H2    H     H_    0.502131 0.271249 0.100373 0.146909
H3    H     H_    0.318884 0.597039 0.891853 0.232968
H4    H     H_    0.348932 0.348526 0.884766 0.217399
H5    H     H_    0.439926 0.721534 0.887391 0.171301
H6    H     H_    0.497318 0.269126 0.892543 0.207268
H7    H     H_    0.669465 0.607073 0.127849 0.174216
H8    H     H_    0.682478 0.424725 0.125371 0.228120
H9    H     H_    0.111732 0.273970 0.503381 0.165842
H10   H     H_    0.112148 0.725873 0.493682 0.164772
H11   H     H_    0.888015 0.274055 0.503301 0.197393
H12   H     H_    0.888429 0.725940 0.493485 0.194532
H13   H     H_    0.353824 0.128668 0.366473 0.197795
H14   H     H_    0.353362 0.869200 0.366960 0.192362
N1    N     N_R   0.500030 0.852070 0.500030 -0.221001
N2    N     N_R   0.500030 0.147930 0.500030 -0.220219
O1    O     O_R   0.319660 0.618740 0.499990 -0.584612
O2    O     O_R   0.319660 0.381260 0.499990 -0.584125
O3    O     O_R   0.499990 0.618790 0.317690 -0.582736
O4    O     O_R   0.499990 0.381210 0.317690 -0.575974
O5    O     O_R   0.680370 0.618830 0.500010 -0.545335
O6    O     O_R   0.680370 0.381170 0.500010 -0.555685
O7    O     O_R   0.500030 0.618780 0.682310 -0.551404
O8    O     O_R   0.500030 0.381220 0.682310 -0.555485
Cl1   Cl    Cl    0.692136 0.841590 0.666535 -0.539711
Cl2   Cl    Cl    0.686746 0.161757 0.673400 -0.565261
Cl3   Cl    Cl    0.267617 0.647793 0.128847 -0.537060
Cl4   Cl    Cl    0.289501 0.313355 0.119899 -0.544656
C23   C     C_2   0.695218 0.656026 0.907233 0.412604
H15   H     H_    0.644378 0.751958 0.921226 0.120051
O9    O     O_2   0.802073 0.664428 0.873497 -0.474377
C24   C     C_2   0.720180 0.400530 0.890149 0.546081
H16   H     H_    0.756336 0.409388 0.797381 0.114337
O10   O     O_2   0.746385 0.297140 0.951136 -0.502378

loop_
_geom_bond_atom_site_label_1
_geom_bond_atom_site_label_2
_ccdc_geom_bond_type
C2    C22   S    
C12   Cl2   S    
C11   C12   A    
C4    C8    A    
C12   N2    A    
C6    C7    A    
Cu1   O5    S    
C1    C8    S    
Cu2   O2    S    
C9    C10   A    
C23   O9    D    
Cu1   O1    S    
C16   Cl3   S    
C15   O7    A    
C10   H14   S    
Cu2   O6    S    
C9    H13   S    
C13   C21   S    
C14   O6    A    
C18   H5    S    
C2    C24   S    
C23   H15   S    
C24   H16   S    
C11   N1    A    
C19   H4    S    
C16   C21   S    
C15   O8    A    
Cu1   N1    S    
C17   H2    S    
C5    H11   S    
C17   Cl4   S    
C4    C6    A    
Cu2   N2    S    
C24   O10   D    
C14   O5    A    
C9    N2    A    
C20   H8    S    
Cu2   O4    S    
C4    H10   S    
Cu1   O7    S    
C3    H9    S    
Cu1   Cu2   S    
C2    C20   S    
Cu2   O8    S    
C1    O2    A    
C13   O3    A    
C19   C22   S    
Cu1   O3    S    
C20   C21   S    
C16   C18   S    
C3    C8    A    
C15   C22   S    
C1    O1    A    
C16   H1    S    
C5    C7    A    
C11   Cl1   S    
C17   C19   S    
C13   O4    A    
C18   C22   S    
C19   H6    S    
C20   H7    S    
C7    C14   S    
C17   C21   S    
C18   H3    S    
C6    H12   S    
C10   N1    A    
C3    C5    A    
C2    C23   S    
