data_mof_unit_7939.cif
_audit_creation_date              2012-10-26T20:18:14-0400
_audit_creation_method            fapswitch 2.2
_symmetry_space_group_name_H-M    P1
_symmetry_Int_Tables_number       1
_space_group_crystal_system       triclinic
_cell_length_a                    23.581681
_cell_length_b                    8.714245
_cell_length_c                    7.417969
_cell_angle_alpha                 102.833026
_cell_angle_beta                  93.91191
_cell_angle_gamma                 92.490735
_cell_volume                      1480.13363966

loop_
_atom_site_label
_atom_site_type_symbol
_atom_type_description
_atom_site_fract_x
_atom_site_fract_y
_atom_site_fract_z
_atom_type_partial_charge
C1    C     C_R   0.497091 0.200225 0.454544 0.547806
C2    C     C_R   0.707214 0.604015 0.635137 -0.012106
C3    C     C_R   0.233661 0.402491 0.366942 -0.010098
C4    C     C_R   0.766338 0.597533 0.633044 -0.010096
C5    C     C_R   0.209155 0.494844 0.517141 0.177157
C6    C     C_R   0.790844 0.505162 0.482859 0.177149
C7    C     C_2   0.486299 0.035130 0.438024 -0.033754
C8    C     C_2   0.513700 0.964870 0.561976 -0.033757
C9    C     C_R   0.391059 0.499244 0.502926 0.528078
C10   C     C_R   0.608941 0.500757 0.497074 0.528069
C11   C     C_R   0.884144 0.642740 0.516291 0.419553
C12   C     C_R   0.502909 0.799775 0.545456 0.547806
C13   C     C_R   0.115856 0.357265 0.483701 0.419555
C14   C     C_R   0.877027 0.361621 0.451176 0.388947
C15   C     C_R   0.122973 0.638385 0.548832 0.388948
C16   C     C_R   0.936449 0.355820 0.438516 -0.001357
C17   C     C_R   0.063550 0.644186 0.561488 -0.001357
C18   C     C_R   0.970007 0.499737 0.493366 -0.036617
C19   C     C_R   0.029992 0.500269 0.506635 -0.036617
C20   C     C_R   0.943610 0.643597 0.534452 0.026573
C21   C     C_R   0.056390 0.356409 0.465545 0.026573
C22   C     C_R   0.963742 0.212670 0.380084 0.010596
C23   C     C_R   0.244285 0.587581 0.664041 -0.008663
C24   C     C_R   0.036257 0.787336 0.619919 0.010596
C25   C     C_R   0.023293 0.214811 0.401422 -0.033153
C26   C     C_R   0.976707 0.785195 0.598576 -0.033154
C27   C     C_2   0.932393 0.063277 0.277907 0.300349
C28   C     C_2   0.067605 0.936729 0.722098 0.300349
C29   C     C_2   0.337744 0.715172 0.805004 0.288254
C30   C     C_2   0.662256 0.284797 0.195028 0.288255
C31   C     C_2   0.315671 0.276712 0.215586 0.288066
C32   C     C_2   0.684327 0.723336 0.784372 0.288055
C33   C     C_2   0.436858 0.961329 0.305627 0.230519
C34   C     C_R   0.755714 0.412407 0.335970 -0.008674
C35   C     C_2   0.563141 0.038671 0.694374 0.230518
C36   C     C_R   0.303573 0.595721 0.658736 -0.008441
C37   C     C_R   0.696426 0.404265 0.341277 -0.008449
C38   C     C_R   0.328543 0.496886 0.509302 -0.043449
C39   C     C_R   0.671457 0.503117 0.490698 -0.043455
C40   C     C_R   0.292785 0.396010 0.364846 -0.012088
Cu1   Cu    Cu3+1 0.506340 0.517380 0.684380 1.001999
Cu2   Cu    Cu3+1 0.493660 0.482620 0.315620 1.002004
H1    H     H_    0.224809 0.658923 0.779611 0.193918
H2    H     H_    0.620063 0.242457 0.217967 0.142921
H3    H     H_    0.358041 0.236174 0.233468 0.120617
H4    H     H_    0.641950 0.763834 0.766499 0.120620
H5    H     H_    0.206101 0.331541 0.253333 0.197006
H6    H     H_    0.793898 0.668495 0.746645 0.197019
H7    H     H_    0.429605 0.996618 0.174911 0.124526
H8    H     H_    0.570394 0.003384 0.825091 0.124536
H9    H     H_    0.775190 0.341053 0.220408 0.193926
H10   H     H_    0.455083 0.379753 0.948696 0.243525
H11   H     H_    0.544916 0.620247 0.051304 0.243521
H12   H     H_    0.890629 0.064345 0.207896 0.182888
H13   H     H_    0.109369 0.935661 0.792116 0.182885
H14   H     H_    0.044143 0.105565 0.359331 0.215267
H15   H     H_    0.955857 0.894441 0.640664 0.215267
H16   H     H_    0.379935 0.757526 0.782069 0.142921
N1    N     N_R   0.851931 0.503219 0.481279 -0.394821
N2    N     N_R   0.148068 0.496787 0.518721 -0.394822
N3    N     N_2   0.484110 0.456420 0.038520 -0.248311
N4    N     N_2   0.515890 0.543580 0.961480 -0.248314
O1    O     O_R   0.504120 0.286130 0.619770 -0.467674
O2    O     O_2   0.141303 0.219422 0.465480 -0.451637
O3    O     O_2   0.844850 0.228358 0.444109 -0.472546
O4    O     O_2   0.155151 0.771649 0.555912 -0.472550
O5    O     O_2   0.954009 0.936725 0.263317 -0.500194
O6    O     O_2   0.045990 0.063281 0.736681 -0.500194
O7    O     O_2   0.318521 0.770776 0.952729 -0.450211
O8    O     O_2   0.681480 0.229164 0.047312 -0.450195
O9    O     O_2   0.286809 0.219292 0.071311 -0.460118
O10   O     O_2   0.713196 0.780828 0.928611 -0.460086
O11   O     O_2   0.402020 0.869182 0.345981 -0.452114
O12   O     O_R   0.495880 0.713870 0.380230 -0.467674
O13   O     O_2   0.597980 0.130818 0.654020 -0.452120
O14   O     O_R   0.493410 0.256770 0.308360 -0.541855
O15   O     O_R   0.506590 0.743230 0.691640 -0.541856
O16   O     O_R   0.423230 0.514630 0.655730 -0.522262
O17   O     O_R   0.576770 0.485370 0.344270 -0.522263
O18   O     O_R   0.412530 0.485280 0.344320 -0.479199
O19   O     O_R   0.587470 0.514720 0.655680 -0.479207
O20   O     O_2   0.858698 0.780583 0.534500 -0.451635

loop_
_geom_bond_atom_site_label_1
_geom_bond_atom_site_label_2
_ccdc_geom_bond_type
Cu2   O18   S    
C12   O12   A    
C34   C37   A    
Cu1   Cu2   S    
C25   H14   S    
C27   H12   S    
C7    C8    D    
C32   O10   D    
C13   N2    A    
C14   N1    A    
C29   C36   S    
C35   O13   D    
C34   H9    S    
C19   C21   A    
C24   C26   A    
H10   N3    S    
Cu1   O15   S    
C33   H7    S    
C23   H1    S    
C31   C40   S    
C2    C32   S    
C18   C19   A    
C15   N2    A    
C2    C39   A    
C22   C25   A    
C31   O9    D    
Cu2   O17   S    
C7    C33   S    
C30   H2    S    
Cu1   N4    S    
C11   N1    A    
C1    O1    A    
C30   O8    D    
C28   H13   S    
C29   O7    D    
C11   O20   S    
C11   C20   A    
Cu2   O12   S    
C17   C24   A    
C4    C6    A    
Cu1   O16   S    
C15   O4    S    
C6    C34   A    
C30   C37   S    
C10   C39   S    
C9    O18   A    
C2    C4    A    
H11   N4    S    
C5    C23   A    
C8    C12   S    
Cu1   O19   S    
C12   O15   A    
C35   H8    S    
C13   C21   A    
Cu2   N3    S    
C33   O11   D    
C3    C40   A    
C22   C27   S    
C14   C16   A    
Cu1   O1    S    
C4    H6    S    
C15   C17   A    
C21   C25   A    
C16   C22   A    
C5    N2    S    
C28   O6    D    
C1    C7    S    
C1    O14   A    
C32   H4    S    
C6    N1    S    
C24   C28   S    
C3    C5    A    
C10   O17   A    
C10   O19   A    
Cu2   O14   S    
C36   C38   A    
C37   C39   A    
C38   C40   A    
C13   O2    S    
C20   C26   A    
C3    H5    S    
C9    C38   S    
C17   C19   A    
C14   O3    S    
C18   C20   A    
C9    O16   A    
N3    N4    D    
C26   H15   S    
C27   O5    D    
C29   H16   S    
C16   C18   A    
C23   C36   A    
C31   H3    S    
C8    C35   S    
