data_mof_unit_57750.cif
_audit_creation_date              2012-12-10T16:48:08-0500
_audit_creation_method            fapswitch 2.2
_symmetry_space_group_name_H-M    P1
_symmetry_Int_Tables_number       1
_space_group_crystal_system       triclinic
_cell_length_a                    15.856101
_cell_length_b                    8.685688
_cell_length_c                    7.453467
_cell_angle_alpha                 103.043826
_cell_angle_beta                  93.8566
_cell_angle_gamma                 92.278075
_cell_volume                      996.154939842

loop_
_atom_site_label
_atom_site_type_symbol
_atom_type_description
_atom_site_fract_x
_atom_site_fract_y
_atom_site_fract_z
_atom_type_partial_charge
C1    C     C_R   0.497475 0.199733 0.453236 0.879982
C2    C     C_R   0.502525 0.800267 0.546764 0.879982
C3    C     C_R   0.340058 0.499640 0.502813 0.816154
C4    C     C_R   0.659942 0.500360 0.497187 0.816154
C5    C     C_2   0.496264 0.031772 0.427006 -0.351421
C6    C     C_2   0.503735 0.968228 0.572994 -0.351420
C7    C     C_3   0.970112 0.406264 0.606862 -0.271983
C8    C     C_3   0.029888 0.593735 0.393138 -0.271983
C9    C     C_3   0.023077 0.353022 0.438780 -0.053401
C10   C     C_3   0.976923 0.646978 0.561220 -0.053401
C11   C     C_1   0.250756 0.499761 0.508930 -0.119197
C12   C     C_1   0.749243 0.500239 0.491070 -0.119197
C13   C     C_3   0.031384 0.554775 0.674696 0.009541
C14   C     C_3   0.968616 0.445225 0.325304 0.009541
C15   C     C_3   0.083697 0.499979 0.507835 0.105584
C16   C     C_3   0.916303 0.500021 0.492165 0.105584
C17   C     C_1   0.175351 0.499759 0.510505 0.046072
C18   C     C_1   0.824649 0.500241 0.489495 0.046072
Cu1   Cu    Cu3+1 0.509330 0.517380 0.684380 0.985058
Cu2   Cu    Cu3+1 0.490670 0.482620 0.315620 0.985058
H1    H     H_    0.944894 0.328350 0.692371 0.178726
H2    H     H_    0.055106 0.671650 0.307629 0.178726
H3    H     H_    0.489222 0.960064 0.286373 0.182843
H4    H     H_    0.510778 0.039936 0.713627 0.182843
H5    H     H_    0.434395 0.377651 0.948918 0.231476
H6    H     H_    0.565605 0.622348 0.051082 0.231476
N1    N     N_2   0.476600 0.456420 0.038510 -0.208467
N2    N     N_2   0.523400 0.543580 0.961490 -0.208467
O1    O     O_R   0.506070 0.286130 0.619780 -0.585792
O2    O     O_R   0.493930 0.713870 0.380220 -0.585791
O3    O     O_R   0.490300 0.256770 0.308360 -0.583818
O4    O     O_R   0.509700 0.743230 0.691640 -0.583818
O5    O     O_R   0.386960 0.514660 0.655680 -0.575299
O6    O     O_R   0.613040 0.485340 0.344320 -0.575299
O7    O     O_R   0.371190 0.485310 0.344260 -0.568422
O8    O     O_R   0.628810 0.514690 0.655740 -0.568422
C19   C     C_1   0.048658 0.190635 0.372458 0.260549
N3    N     N_1   0.068751 0.062614 0.320214 -0.269379
C20   C     C_1   0.951342 0.809365 0.627542 0.260549
N4    N     N_1   0.931249 0.937385 0.679786 -0.269379
C21   C     C_2   0.936289 0.382791 0.127715 0.354353
H7    H     H_    0.980737 0.343655 0.024775 0.065330
O9    O     O_2   0.860662 0.375312 0.081753 -0.528489
C22   C     C_2   0.063711 0.617209 0.872285 0.354353
H8    H     H_    0.019263 0.656345 0.975225 0.065330
O10   O     O_2   0.139338 0.624688 0.918247 -0.528489

loop_
_geom_bond_atom_site_label_1
_geom_bond_atom_site_label_2
_ccdc_geom_bond_type
C8    H2    S    
C9    C14   S    
C4    O8    A    
C15   C17   S    
C19   N3    T    
Cu2   N1    S    
H5    N1    S    
C21   H7    S    
H6    N2    S    
Cu1   Cu2   S    
C5    H3    S    
C3    O7    A    
C2    O2    A    
Cu2   O6    S    
C1    O1    A    
C9    C15   S    
C6    H4    S    
C10   C16   S    
C13   C22   S    
Cu1   N2    S    
C21   O9    D    
C2    C6    S    
C14   C21   S    
C1    C5    S    
Cu1   O4    S    
C16   C18   S    
C7    C16   S    
C22   O10   D    
C8    C15   S    
C4    O6    A    
Cu1   O8    S    
C13   C15   S    
C1    O3    A    
C5    C6    D    
C14   C16   S    
C4    C12   S    
C3    O5    A    
Cu1   O1    S    
C7    C13   S    
C3    C11   S    
C22   H8    S    
C2    O4    A    
C9    C19   S    
Cu1   O5    S    
C12   C18   T    
C20   N4    T    
C7    C9    S    
C11   C17   T    
Cu2   O2    S    
C8    C14   S    
C7    H1    S    
Cu2   O7    S    
Cu2   O3    S    
C8    C10   S    
C10   C20   S    
N1    N2    D    
C10   C13   S    
