data_mof_unit_43113.cif
_audit_creation_date              2012-12-10T18:38:36-0500
_audit_creation_method            fapswitch 2.2
_symmetry_space_group_name_H-M    P1
_symmetry_Int_Tables_number       1
_space_group_crystal_system       triclinic
_cell_length_a                    15.84232
_cell_length_b                    15.098172
_cell_length_c                    14.041439
_cell_angle_alpha                 89.0756
_cell_angle_beta                  90.473461
_cell_angle_gamma                 93.768567
_cell_volume                      3350.78699646

loop_
_atom_site_label
_atom_site_type_symbol
_atom_type_description
_atom_site_fract_x
_atom_site_fract_y
_atom_site_fract_z
_atom_type_partial_charge
C1    C     C_R   0.503824 0.329971 0.501179 0.766081
C2    C     C_R   0.498164 0.669337 0.499082 0.774006
C3    C     C_R   0.522109 0.183346 0.590164 0.082029
C4    C     C_R   0.418633 0.803994 0.460005 0.061553
C5    C     C_R   0.508371 0.232445 0.504105 -0.081176
C6    C     C_R   0.491671 0.764939 0.496427 -0.045719
C7    C     C_R   0.496852 0.186968 0.418367 -0.235057
C8    C     C_R   0.560670 0.817179 0.530454 -0.257261
C9    C     C_R   0.492772 0.095358 0.417454 -0.215595
C10   C     C_R   0.559211 0.908448 0.528762 -0.203420
C11   C     C_R   0.490007 0.046672 0.502781 0.061238
C12   C     C_R   0.487240 0.949342 0.496942 0.042332
C13   C     C_R   0.573521 0.534584 0.108614 -0.282465
C14   C     C_R   0.457881 0.431015 0.893200 -0.294575
C15   C     C_R   0.565234 0.545216 0.208199 0.276638
C16   C     C_R   0.448933 0.438796 0.793236 0.268624
C17   C     C_R   0.435036 0.457072 0.204868 0.272681
C18   C     C_R   0.557522 0.555362 0.791887 0.277077
C19   C     C_R   0.441507 0.451686 0.104751 -0.300571
C20   C     C_R   0.558451 0.554537 0.892674 -0.291916
C21   C     C_R   0.510153 0.490106 0.054292 0.093062
C22   C     C_R   0.509932 0.491151 0.945711 0.092145
C23   C     C_R   0.339988 0.499031 0.499684 0.805904
C24   C     C_R   0.659916 0.500894 0.500332 0.806015
C25   C     C_3   0.967975 0.433958 0.550742 0.105893
C26   C     C_3   0.031864 0.573061 0.448578 0.104090
C27   C     C_3   0.022424 0.427161 0.460229 -0.247875
C28   C     C_3   0.977316 0.579791 0.539070 -0.247754
C29   C     C_1   0.250346 0.499903 0.498937 -0.197541
C30   C     C_1   0.749529 0.502457 0.500924 -0.189519
C31   C     C_3   0.029302 0.508848 0.588764 0.198717
C32   C     C_3   0.970486 0.498183 0.410540 0.195014
C33   C     C_3   0.083207 0.502789 0.498858 0.084127
C34   C     C_3   0.916714 0.504154 0.500461 0.084598
C35   C     C_1   0.174860 0.501140 0.498652 -0.060992
C36   C     C_1   0.825078 0.503749 0.500928 -0.057534
C37   C     C_R   0.500500 0.090405 0.591170 0.087162
C38   C     C_R   0.415493 0.897957 0.462237 0.096776
Cu1   Cu    Cu3+1 0.500000 0.499990 0.596430 0.909930
Cu2   Cu    Cu3+1 0.500000 0.500010 0.403570 0.912397
H1    H     H_    0.041938 0.365365 0.427416 0.139091
H2    H     H_    0.957677 0.641481 0.571990 0.140330
H3    H     H_    0.388866 0.421239 0.065326 0.127978
H4    H     H_    0.598943 0.603894 0.928765 0.129384
H5    H     H_    0.492171 0.222196 0.351023 0.162240
H6    H     H_    0.616574 0.786988 0.557254 0.133941
H7    H     H_    0.488156 0.061929 0.349682 0.141617
H8    H     H_    0.614070 0.947850 0.554651 0.147601
H9    H     H_    0.628775 0.565310 0.073771 0.129039
H10   H     H_    0.422702 0.376810 0.929185 0.134674
N1    N     N_R   0.500000 0.500020 0.258690 -0.188611
N2    N     N_R   0.500000 0.499980 0.741310 -0.192908
O1    O     O_R   0.500010 0.371450 0.581430 -0.600472
O2    O     O_R   0.499990 0.628550 0.418570 -0.596413
O3    O     O_R   0.500010 0.371460 0.418560 -0.586348
O4    O     O_R   0.499990 0.628540 0.581440 -0.595871
O5    O     O_R   0.379080 0.499990 0.581420 -0.579626
O6    O     O_R   0.620920 0.500010 0.418580 -0.593300
O7    O     O_R   0.379080 0.500000 0.418550 -0.587514
O8    O     O_R   0.620920 0.500000 0.581450 -0.582271
C39   C     C_3   0.346900 0.426476 0.241618 -0.349823
C40   C     C_3   0.341454 0.336092 0.293948 -0.302469
C41   C     C_3   0.250943 0.294283 0.295368 -0.915383
H11   H     H_    0.208124 0.339568 0.329587 0.260263
H12   H     H_    0.228216 0.280059 0.221795 0.256565
H13   H     H_    0.249051 0.230835 0.336702 0.245213
H14   H     H_    0.382632 0.289969 0.258520 0.203844
H15   H     H_    0.360959 0.343550 0.368893 0.250922
H16   H     H_    0.316642 0.479268 0.278999 0.205225
H17   H     H_    0.302137 0.419014 0.180373 0.158791
C42   C     C_3   0.624507 0.618622 0.746183 -0.370282
C43   C     C_3   0.713945 0.587613 0.764097 -0.371594
C44   C     C_3   0.781097 0.649799 0.715875 -0.864531
H18   H     H_    0.769532 0.653168 0.637822 0.251927
H19   H     H_    0.780306 0.717534 0.745419 0.250223
H20   H     H_    0.844617 0.624673 0.728628 0.245531
H21   H     H_    0.727992 0.585193 0.841715 0.210524
H22   H     H_    0.718345 0.519862 0.735773 0.241819
H23   H     H_    0.616780 0.627793 0.669727 0.250798
H24   H     H_    0.620074 0.685688 0.776693 0.162085
C45   C     C_3   0.927056 0.356253 0.608731 -0.399239
C46   C     C_3   0.989560 0.285462 0.630680 -0.338884
C47   C     C_3   0.949017 0.211039 0.693141 -0.855246
H25   H     H_    0.929132 0.237742 0.762120 0.254119
H26   H     H_    0.892976 0.178676 0.656554 0.252382
H27   H     H_    0.995485 0.160446 0.707578 0.241283
H28   H     H_    0.010645 0.256697 0.563220 0.214945
H29   H     H_    0.045846 0.315774 0.668116 0.225892
H30   H     H_    0.903085 0.382463 0.676100 0.197265
H31   H     H_    0.872568 0.325945 0.567655 0.196703
C48   C     C_3   0.071781 0.651295 0.390655 -0.405226
C49   C     C_3   0.008328 0.721442 0.369228 -0.331977
C50   C     C_3   0.048099 0.797027 0.307774 -0.872491
H32   H     H_    0.104686 0.828590 0.344008 0.251288
H33   H     H_    0.066859 0.771648 0.237751 0.253725
H34   H     H_    0.001568 0.847958 0.295451 0.243651
H35   H     H_    0.952186 0.691032 0.331283 0.222572
H36   H     H_    0.986900 0.749314 0.436997 0.214036
H37   H     H_    0.126056 0.682016 0.431753 0.198125
H38   H     H_    0.095877 0.625585 0.323103 0.203758
C51   C     C_3   0.935619 0.490292 0.309540 -0.884264
H39   H     H_    0.988679 0.491873 0.258324 0.230751
H40   H     H_    0.897002 0.426652 0.302713 0.236658
H41   H     H_    0.895170 0.545869 0.293189 0.228144
C52   C     C_3   0.063597 0.517682 0.689829 -0.893787
H42   H     H_    0.010293 0.516345 0.740710 0.230158
H43   H     H_    0.103984 0.462425 0.706769 0.239139
H44   H     H_    0.102110 0.581422 0.696314 0.235751
C53   C     C_3   0.485414 0.038543 0.684687 -0.436038
C54   C     C_3   0.414535 0.075897 0.743408 -0.355304
C55   C     C_3   0.392398 0.016815 0.830019 -0.856766
H45   H     H_    0.368793 0.949494 0.807198 0.252497
H46   H     H_    0.448913 0.011369 0.876575 0.254254
H47   H     H_    0.342086 0.046115 0.871534 0.240383
H48   H     H_    0.433617 0.143380 0.768923 0.210779
H49   H     H_    0.356920 0.081006 0.698634 0.217215
H50   H     H_    0.465743 0.967955 0.671623 0.217186
H51   H     H_    0.544901 0.037380 0.726827 0.186505
C56   C     C_3   0.334777 0.942487 0.435106 -0.431405
C57   C     C_3   0.277138 0.947611 0.521729 -0.339661
C58   C     C_3   0.198081 0.995994 0.496983 -0.858196
H52   H     H_    0.215796 0.065130 0.472880 0.252701
H53   H     H_    0.161256 0.960764 0.439821 0.252580
H54   H     H_    0.157629 0.998280 0.560984 0.241602
H55   H     H_    0.257789 0.879865 0.548856 0.212004
H56   H     H_    0.312089 0.983664 0.579507 0.226136
H57   H     H_    0.348777 0.010248 0.405979 0.205544
H58   H     H_    0.300227 0.907538 0.376329 0.198289
C59   C     C_3   0.565797 0.226937 0.676792 -0.407171
C60   C     C_3   0.654730 0.267831 0.653098 -0.310610
C61   C     C_3   0.694223 0.316285 0.738748 -0.846625
H59   H     H_    0.653087 0.368513 0.762170 0.262456
H60   H     H_    0.703019 0.268830 0.798717 0.246355
H61   H     H_    0.756793 0.348191 0.718962 0.231586
H62   H     H_    0.695752 0.214417 0.632449 0.202662
H63   H     H_    0.652885 0.315684 0.592552 0.223248
H64   H     H_    0.526285 0.276503 0.707816 0.214156
H65   H     H_    0.574818 0.178902 0.735555 0.191169
C62   C     C_3   0.345152 0.745586 0.419720 -0.408138
C63   C     C_3   0.353209 0.737143 0.311381 -0.313109
C64   C     C_3   0.275205 0.687911 0.268605 -0.886750
H66   H     H_    0.261774 0.623127 0.305770 0.257144
H67   H     H_    0.219799 0.728606 0.274884 0.258734
H68   H     H_    0.285938 0.675802 0.192002 0.241969
H69   H     H_    0.361693 0.803862 0.276924 0.204050
H70   H     H_    0.409458 0.700380 0.294671 0.242068
H71   H     H_    0.342399 0.678596 0.453209 0.189690
H72   H     H_    0.283442 0.771200 0.437882 0.192291
C65   C     C_3   0.626671 0.614961 0.251867 -0.377804
C66   C     C_3   0.615557 0.707748 0.208396 -0.398790
C67   C     C_3   0.669653 0.779192 0.260788 -0.847687
H73   H     H_    0.650039 0.781817 0.336428 0.258065
H74   H     H_    0.737543 0.765199 0.257748 0.250577
H75   H     H_    0.661416 0.844964 0.226705 0.244626
H76   H     H_    0.634036 0.709996 0.132219 0.215719
H77   H     H_    0.548130 0.723398 0.212847 0.223427
H78   H     H_    0.618569 0.621809 0.328125 0.260438
H79   H     H_    0.692515 0.596188 0.240547 0.172262
C68   C     C_3   0.382547 0.374433 0.749432 -0.382176
C69   C     C_3   0.292816 0.394372 0.779336 -0.360565
C70   C     C_3   0.227580 0.324513 0.741381 -0.880394
H80   H     H_    0.222885 0.330008 0.662531 0.255758
H81   H     H_    0.245081 0.256690 0.761841 0.256738
H82   H     H_    0.164989 0.334654 0.772700 0.238796
H83   H     H_    0.287927 0.394595 0.858213 0.212137
H84   H     H_    0.277743 0.460900 0.751470 0.237136
H85   H     H_    0.383405 0.373029 0.671929 0.254666
H86   H     H_    0.395134 0.306135 0.773934 0.151028

loop_
_geom_bond_atom_site_label_1
_geom_bond_atom_site_label_2
_ccdc_geom_bond_type
C39   H17   S    
C25   C31   S    
C41   H12   S    
C26   C32   S    
C51   H39   S    
C44   H19   S    
C44   H18   S    
C55   H45   S    
C15   C65   S    
C61   H61   S    
C17   N1    A    
C42   H23   S    
C45   C46   S    
C49   H36   S    
Cu1   O1    S    
C27   C33   S    
C23   O7    A    
C52   H43   S    
C62   H71   S    
C40   C41   S    
C40   H14   S    
C1    C5    S    
C7    H5    S    
C19   C21   A    
C64   H67   S    
C8    C10   A    
C57   H56   S    
C46   H28   S    
Cu1   O5    S    
C68   H86   S    
C18   C20   A    
C23   O5    A    
C67   H75   S    
C11   C37   A    
C1    O1    A    
C54   C55   S    
C58   H54   S    
C43   H22   S    
C20   H4    S    
C59   H65   S    
C68   C69   S    
C53   H51   S    
C67   H73   S    
C31   C33   S    
C69   H84   S    
C48   H38   S    
C65   H79   S    
C37   C53   S    
C25   C34   S    
C45   H30   S    
C56   H58   S    
Cu1   N2    S    
C41   H13   S    
C28   C34   S    
C51   H40   S    
Cu2   O7    S    
C66   H77   S    
C21   C22   S    
C16   C68   S    
C25   C45   S    
C31   C52   S    
C23   C29   S    
C2    C6    S    
C42   H24   S    
C70   H81   S    
C19   H3    S    
C49   H35   S    
C70   H80   S    
C8    H6    S    
C52   H44   S    
C62   H72   S    
Cu2   O6    S    
C53   H50   S    
C63   C64   S    
C4    C6    A    
C2    O2    A    
C64   H68   S    
C63   H70   S    
Cu1   Cu2   S    
C5    C7    A    
C57   H55   S    
C17   C19   A    
C6    C8    A    
C3    C5    A    
C26   C48   S    
C32   C34   S    
C18   N2    A    
C43   H21   S    
C27   H1    S    
C26   C33   S    
C47   H25   S    
C24   O8    A    
Cu2   O3    S    
C13   C21   A    
C55   H46   S    
Cu1   O4    S    
C69   H83   S    
C9    C11   A    
C58   H52   S    
C10   C12   A    
C13   H9    S    
C38   C56   S    
C24   O6    A    
C47   H26   S    
C60   H62   S    
C4    C38   A    
C9    H7    S    
C50   H34   S    
C15   N1    A    
C66   H76   S    
C13   C15   A    
C10   H8    S    
C44   H20   S    
C14   C16   A    
C45   H31   S    
C17   C39   S    
C61   H59   S    
C54   H49   S    
C48   C49   S    
C70   H82   S    
C57   C58   S    
C62   C63   S    
C59   C60   S    
C52   H42   S    
C39   H16   S    
C18   C42   S    
C7    C9    A    
C27   C32   S    
C3    C59   S    
C26   C28   S    
C28   C31   S    
C60   H63   S    
C16   N2    A    
C20   C22   A    
C43   C44   S    
C61   H60   S    
C63   H69   S    
C56   C57   S    
C40   H15   S    
C25   C27   S    
Cu2   N1    S    
C50   H32   S    
C29   C35   T    
Cu2   O2    S    
C66   C67   S    
C30   C36   T    
C69   C70   S    
C14   C22   A    
C60   C61   S    
C1    O3    A    
C42   C43   S    
C2    O4    A    
C64   H66   S    
C4    C62   S    
C14   H10   S    
C46   H29   S    
Cu1   O8    S    
C28   H2    S    
C49   C50   S    
C33   C35   S    
C68   H85   S    
C55   H47   S    
C34   C36   S    
C67   H74   S    
C12   C38   A    
C39   C40   S    
C24   C30   S    
C58   H53   S    
C41   H11   S    
C47   H27   S    
C59   H64   S    
C3    C37   A    
C50   H33   S    
C46   C47   S    
C53   C54   S    
C32   C51   S    
C51   H41   S    
C48   H37   S    
C65   C66   S    
C65   H78   S    
C54   H48   S    
C11   C12   S    
C56   H57   S    
