data_mof_unit_28950.cif
_audit_creation_date              2012-12-11T15:15:44-0500
_audit_creation_method            fapswitch 2.2
_symmetry_space_group_name_H-M    P1
_symmetry_Int_Tables_number       1
_space_group_crystal_system       triclinic
_cell_length_a                    18.827546
_cell_length_b                    18.806193
_cell_length_c                    20.393907
_cell_angle_alpha                 106.910572
_cell_angle_beta                  106.456353
_cell_angle_gamma                 110.98497
_cell_volume                      5812.16711569

loop_
_atom_site_label
_atom_site_type_symbol
_atom_type_description
_atom_site_fract_x
_atom_site_fract_y
_atom_site_fract_z
_atom_type_partial_charge
C1    C     C_R   0.088346 0.088976 0.355689 -0.148949
C2    C     C_R   0.245353 0.069887 0.544175 -0.130352
C3    C     C_R   0.549223 0.692088 0.391866 -0.113766
C4    C     C_R   0.617301 0.676509 0.414572 -0.125331
C5    C     C_R   0.686599 0.712675 0.399983 -0.186677
C6    C     C_R   0.151415 0.222648 0.708516 -0.142748
C7    C     C_R   0.764186 0.927315 0.509867 -0.130966
C8    C     C_R   0.999619 0.763680 0.431823 -0.156041
C9    C     C_R   0.226555 0.274158 0.710049 0.046271
C10   C     C_R   0.947935 0.709613 0.452051 0.086350
C11   C     C_R   0.253829 0.997437 0.534042 0.073906
C12   C     C_R   0.017842 0.977279 0.725156 0.035846
C13   C     C_R   0.860003 0.568654 0.444087 -0.252356
C14   C     C_R   0.916724 0.617594 0.422582 0.109704
C15   C     C_R   0.759773 0.996064 0.553004 0.071543
C16   C     C_R   0.948383 0.579202 0.376963 -0.267163
C17   C     C_R   0.933972 0.497102 0.362438 0.149763
C18   C     C_R   0.885259 0.451862 0.392137 0.026798
C19   C     C_R   0.837897 0.808235 0.280746 0.015307
C20   C     C_R   0.844542 0.485997 0.429554 0.134150
C21   C     C_R   0.974073 0.462775 0.324883 -0.211384
C22   C     C_R   0.973970 0.388606 0.324450 -0.212510
C23   C     C_R   0.933692 0.348463 0.361511 0.154355
C24   C     C_R   0.884566 0.376884 0.391296 0.020247
C25   C     C_R   0.842415 0.335645 0.427421 0.064709
C26   C     C_R   0.755590 0.779633 0.273034 -0.081860
C27   C     C_R   0.790945 0.363134 0.454613 0.004139
C28   C     C_R   0.794001 0.439437 0.456688 -0.276902
C29   C     C_R   0.950028 0.287239 0.377115 -0.257935
C30   C     C_R   0.921470 0.257679 0.425241 0.117328
C31   C     C_R   0.947719 0.194740 0.519421 -0.134891
C32   C     C_R   0.861388 0.275421 0.443717 -0.261527
C33   C     C_R   0.407241 0.069688 0.620483 -0.262662
C34   C     C_R   0.331055 0.994213 0.571580 0.116151
C35   C     C_R   0.331210 0.916220 0.551376 -0.259138
C36   C     C_R   0.407216 0.914195 0.567324 0.140958
C37   C     C_R   0.962608 0.218672 0.464200 0.070855
C38   C     C_R   0.483681 0.991120 0.606842 0.026252
C39   C     C_R   0.483878 0.068819 0.637248 0.145230
C40   C     C_R   0.407506 0.837189 0.537185 -0.209094
C41   C     C_R   0.482005 0.837088 0.538983 -0.210042
C42   C     C_R   0.556572 0.913980 0.571127 0.142456
C43   C     C_R   0.760002 0.800805 0.345520 0.018725
C44   C     C_R   0.558585 0.991006 0.608777 0.026159
C45   C     C_R   0.633328 0.068583 0.641196 0.143814
C46   C     C_R   0.634809 0.144867 0.678724 -0.219964
C47   C     C_R   0.560231 0.144992 0.676734 -0.225930
C48   C     C_R   0.229142 0.229334 0.644495 -0.146944
C49   C     C_R   0.626408 0.915701 0.559543 -0.269024
C50   C     C_R   0.697091 0.993471 0.583221 0.112885
C51   C     C_R   0.702587 0.069211 0.628902 -0.257793
C52   C     C_R   0.280775 0.365429 0.759527 0.145129
C53   C     C_R   0.249824 0.412858 0.797980 -0.191053
C54   C     C_R   0.303808 0.496871 0.851036 -0.169018
C55   C     C_R   0.025899 0.201274 0.454821 -0.129821
C56   C     C_R   0.389462 0.534266 0.866575 0.227040
C57   C     C_R   0.418516 0.489953 0.822803 -0.176113
C58   C     C_R   0.364495 0.405691 0.769688 -0.183782
C59   C     C_R   0.921776 0.756663 0.495751 -0.151320
C60   C     C_R   0.586420 0.741090 0.095834 -0.168694
C61   C     C_R   0.662246 0.779984 0.160496 -0.204652
C62   C     C_R   0.616462 0.654369 0.182203 -0.150224
C63   C     C_R   0.539844 0.616155 0.118605 -0.189160
C64   C     C_R   0.525184 0.658666 0.074377 0.226395
C65   C     C_2   0.452054 0.610097 0.937706 -0.232667
C66   C     C_2   0.448273 0.612351 0.002950 -0.230676
C67   C     C_R   0.831812 0.066839 0.570336 -0.143701
C68   C     C_R   0.678201 0.735974 0.202701 0.157814
C69   C     C_R   0.114383 0.030977 0.241336 0.144942
C70   C     C_R   0.176006 0.928761 0.479617 -0.132289
C71   C     C_R   0.130539 0.966125 0.206199 -0.186256
C72   C     C_R   0.165257 0.970876 0.154689 -0.164988
C73   C     C_R   0.182893 0.039919 0.136530 0.229197
C74   C     C_R   0.173111 0.107707 0.176262 -0.184248
C75   C     C_R   0.138968 0.103249 0.228192 -0.179927
C76   C     C_R   0.178442 0.032638 0.917070 -0.161604
C77   C     C_R   0.140448 0.036450 0.849717 -0.187782
C78   C     C_R   0.022139 0.897857 0.803687 -0.174680
C79   C     C_R   0.023244 0.949598 0.293215 -0.128255
C80   C     C_R   0.059795 0.894344 0.871302 -0.183955
C81   C     C_R   0.032558 0.051863 0.717821 -0.128181
C82   C     C_R   0.136286 0.963245 0.929863 0.228693
C83   C     C_2   0.198865 0.038267 0.069426 -0.223567
C84   C     C_2   0.162500 0.965379 0.006144 -0.224145
C85   C     C_R   0.060650 0.970379 0.793666 0.144514
C86   C     C_R   0.071250 0.023383 0.290843 0.033634
C87   C     C_R   0.735273 0.314690 0.482510 0.144213
C88   C     C_R   0.676393 0.228474 0.436185 -0.166739
C89   C     C_R   0.623359 0.182701 0.461840 -0.106419
C90   C     C_R   0.628179 0.222614 0.533596 -0.089271
C91   C     C_R   0.686339 0.308291 0.580029 -0.125829
C92   C     C_R   0.962633 0.910657 0.653412 -0.129174
C93   C     C_R   0.739614 0.354361 0.554637 -0.161620
C94   C     C_R   0.861207 0.775819 0.219848 0.130166
C95   C     C_R   0.898478 0.723570 0.223442 -0.169587
C96   C     C_R   0.920887 0.692189 0.166008 -0.130087
C97   C     C_R   0.905894 0.712468 0.104503 -0.098293
C98   C     C_R   0.868155 0.763875 0.100207 -0.112902
C99   C     C_R   0.845523 0.795261 0.157484 -0.143415
C100  C     C_R   0.688324 0.765244 0.363049 0.119997
C101  C     C_R   0.619214 0.779675 0.339354 -0.132082
C102  C     C_R   0.550145 0.743557 0.354224 -0.120054
H1    H     H_    0.136876 0.153985 0.379159 0.093631
H2    H     H_    0.010312 0.496243 0.300531 0.126708
H3    H     H_    0.729112 0.863656 0.501676 0.120921
H4    H     H_    0.010458 0.366239 0.300082 0.127949
H5    H     H_    0.992400 0.270190 0.358416 0.115133
H6    H     H_    0.836004 0.249128 0.477513 0.133149
H7    H     H_    0.758933 0.463821 0.481623 0.134861
H8    H     H_    0.408102 0.130090 0.639947 0.117902
H9    H     H_    0.272878 0.857110 0.517171 0.118939
H10   H     H_    0.349275 0.777572 0.507680 0.129195
H11   H     H_    0.480078 0.777392 0.510927 0.126673
H12   H     H_    0.872145 0.732583 0.512584 0.080585
H13   H     H_    0.621913 0.856488 0.526355 0.134052
H14   H     H_    0.757548 0.129585 0.649797 0.119526
H15   H     H_    0.692211 0.204813 0.704846 0.131716
H16   H     H_    0.561348 0.205031 0.701318 0.130060
H17   H     H_    0.184696 0.384785 0.789042 0.113303
H18   H     H_    0.707827 0.844866 0.178386 0.119548
H19   H     H_    0.627528 0.620697 0.215610 0.127225
H20   H     H_    0.484608 0.518059 0.834314 0.114397
H21   H     H_    0.575370 0.775181 0.062881 0.121509
H22   H     H_    0.902453 0.198396 0.540947 0.099017
H23   H     H_    0.158944 0.862596 0.457876 0.096315
H24   H     H_    0.510927 0.650954 0.938966 0.136907
H25   H     H_    0.280092 0.530918 0.883515 0.118969
H26   H     H_    0.493009 0.552339 0.102468 0.117973
H27   H     H_    0.115536 0.911121 0.217527 0.116239
H28   H     H_    0.961087 0.845588 0.760927 0.111309
H29   H     H_    0.133068 0.905389 0.008333 0.128488
H30   H     H_    0.186755 0.161843 0.163535 0.111839
H31   H     H_    0.239222 0.085256 0.959811 0.114004
H32   H     H_    0.128067 0.154521 0.255267 0.112201
H33   H     H_    0.222694 0.098207 0.066043 0.129442
H34   H     H_    0.073892 0.115716 0.762111 0.096904
H35   H     H_    0.175418 0.919172 0.127397 0.111954
H36   H     H_    0.026379 0.839929 0.879695 0.110269
H37   H     H_    0.052987 0.210892 0.416143 0.094449
H38   H     H_    0.856772 0.130311 0.613051 0.089114
H39   H     H_    0.014493 0.888186 0.260630 0.120075
H40   H     H_    0.270956 0.255795 0.620960 0.091542
H41   H     H_    0.021745 0.746544 0.389399 0.082045
H42   H     H_    0.671444 0.196861 0.380139 0.119615
H43   H     H_    0.578241 0.116354 0.425936 0.114299
H44   H     H_    0.586547 0.187181 0.552980 0.122052
H45   H     H_    0.940648 0.844039 0.637902 0.098713
H46   H     H_    0.690040 0.339037 0.635673 0.106515
H47   H     H_    0.784572 0.420635 0.591348 0.110029
H48   H     H_    0.909395 0.706533 0.270228 0.114171
H49   H     H_    0.949753 0.652053 0.169138 0.109670
H50   H     H_    0.923513 0.688365 0.060194 0.101579
H51   H     H_    0.856972 0.779900 0.052756 0.110943
H52   H     H_    0.818609 0.836823 0.154286 0.108885
H53   H     H_    0.393068 0.564485 0.001234 0.136545
H54   H     H_    0.389532 0.370817 0.739937 0.111779
H55   H     H_    0.173135 0.091644 0.842059 0.119356
H56   H     H_    0.292555 0.134643 0.582465 0.094559
H57   H     H_    0.619220 0.819325 0.310031 0.117692
H58   H     H_    0.497341 0.755446 0.336576 0.114222
H59   H     H_    0.495717 0.664192 0.403337 0.101605
H60   H     H_    0.616295 0.636261 0.443322 0.111287
H61   H     H_    0.738424 0.699306 0.416900 0.113604
H62   H     H_    0.122721 0.241725 0.744452 0.087049
H63   H     H_    0.832214 0.595991 0.476626 0.114639
H64   H     H_    0.989754 0.614527 0.357382 0.114429
N1    N     N_R   0.052580 0.056040 0.395500 -0.037740
N2    N     N_R   0.890210 0.849400 0.355780 -0.066351
N3    N     N_R   0.997110 0.161140 0.539580 -0.040464
N4    N     N_R   0.841950 0.845400 0.395490 -0.065842
N5    N     N_R   0.045360 0.165140 0.499870 -0.040065
N6    N     N_R   0.877490 0.041510 0.539580 -0.040258
N7    N     N_R   0.009820 0.969030 0.355780 -0.041960
N8    N     N_R   0.158050 0.154600 0.604510 -0.035963
N9    N     N_R   0.954640 0.834860 0.500130 -0.037083
N10   N     N_R   0.122510 0.958490 0.460420 -0.040666
N11   N     N_R   0.990180 0.030970 0.644220 -0.038205
N12   N     N_R   0.947420 0.943960 0.604500 -0.038939
N13   N     N_R   0.165270 0.045500 0.500140 -0.039801
N14   N     N_R   0.109790 0.150600 0.644220 -0.036548
N15   N     N_R   0.002890 0.838860 0.460420 -0.036596
N16   N     N_R   0.834730 0.954500 0.499860 -0.043476
Ni1   Ni    Ni4+2 0.104370 0.104380 0.500010 0.211139
Ni2   Ni    Ni4+2 0.895630 0.895620 0.499990 0.206824
Ni3   Ni    Ni4+2 0.006300 0.904810 0.408930 0.206405
Ni4   Ni    Ni4+2 0.993700 0.095190 0.591070 0.208860

loop_
_geom_bond_atom_site_label_1
_geom_bond_atom_site_label_2
_ccdc_geom_bond_type
C8    N15   A    
C87   C88   A    
C101  C102  A    
C74   H30   S    
C41   C42   A    
C79   N7    A    
C93   H47   S    
C95   C96   A    
C6    C9    A    
C97   C98   A    
C90   C91   A    
C11   C70   A    
N10   Ni3   S    
C40   H10   S    
C45   C46   A    
C52   C53   A    
C89   H43   S    
C62   H19   S    
N7    Ni3   S    
C33   C39   A    
C12   C85   S    
C18   C24   A    
C23   C29   A    
N5    Ni1   S    
N3    Ni4   S    
C59   N9    A    
C38   C39   A    
C78   C80   A    
C71   H27   S    
C45   C51   A    
N16   Ni2   S    
C56   C65   S    
C99   H52   S    
C55   H37   S    
C56   C57   A    
C18   C20   A    
C17   C18   A    
C34   C35   A    
C73   C74   A    
C15   C50   S    
C16   H64   S    
C69   C71   A    
C19   C26   A    
C57   H20   S    
C21   H2    S    
N10   N13   A    
N1    Ni1   S    
C66   H53   S    
C35   C36   A    
N6    Ni4   S    
C16   C17   A    
C23   C24   A    
C7    H3    S    
C24   C25   A    
C1    H1    S    
C83   H33   S    
C63   H26   S    
C7    N16   A    
N9    N15   A    
N4    Ni2   S    
C25   C32   A    
C7    C15   A    
C98   H51   S    
C77   C85   A    
C13   C14   A    
C61   H18   S    
N3    N5    A    
C9    C52   S    
C42   C44   A    
C2    C11   A    
C55   N5    A    
C91   H46   S    
C43   N4    A    
C26   C43   A    
C50   C51   A    
N13   Ni1   S    
C47   H16   S    
C52   C58   A    
C54   C56   A    
C75   H32   S    
C74   C75   A    
C36   C40   A    
C43   C100  S    
C80   C82   A    
C10   C14   S    
C76   C82   A    
N15   Ni3   S    
C4    C5    A    
C31   N3    A    
C53   C54   A    
C96   H49   S    
C17   C21   A    
N11   Ni4   S    
C31   C37   A    
C30   C37   S    
C60   C61   A    
C60   C64   A    
C64   C66   S    
C60   H21   S    
C38   C44   A    
C29   C30   A    
C91   C93   A    
C13   H63   S    
C83   C84   D    
C5    C100  A    
C2    H56   S    
C15   C67   A    
C96   C97   A    
C62   C63   A    
C33   C34   A    
C48   H40   S    
C95   H48   S    
C76   C77   A    
C27   C87   S    
C67   H38   S    
C101  H57   S    
C19   C94   S    
C58   H54   S    
N11   N12   A    
C48   N8    A    
C92   N12   A    
C78   C85   A    
C40   C41   A    
C49   H13   S    
C6    H62   S    
C65   C66   D    
C82   C84   S    
C32   H6    S    
C67   N6    A    
C49   C50   A    
C4    H60   S    
C2    N13   A    
C102  H58   S    
C3    C4    A    
C5    H61   S    
C35   H9    S    
C44   C45   A    
C70   H23   S    
C81   H34   S    
C39   C47   A    
C1    C86   A    
C46   C47   A    
C72   H35   S    
N2    Ni3   S    
C13   C20   A    
C6    N14   A    
C12   C92   A    
C11   C34   S    
C41   H11   S    
C72   C73   A    
N8    Ni1   S    
C31   H22   S    
C76   H31   S    
C53   H17   S    
C62   C68   A    
C28   H7    S    
C25   C27   A    
C20   C28   A    
C54   H25   S    
C84   H29   S    
C51   H14   S    
N1    N7    A    
N14   Ni4   S    
C26   C68   S    
C65   H24   S    
C36   C38   A    
C10   C59   A    
C78   H28   S    
C81   N11   A    
C71   C72   A    
C90   H44   S    
C22   H4    S    
C30   C32   A    
C61   C68   A    
C57   C58   A    
C79   H39   S    
C94   C99   A    
C59   H12   S    
C80   H36   S    
C87   C93   A    
N2    N4    A    
C100  C101  A    
C97   H50   S    
C88   H42   S    
C12   C81   A    
C69   C75   A    
C8    H41   S    
C14   C16   A    
N8    N14   A    
C94   C95   A    
C3    C102  A    
C3    H59   S    
C42   C49   A    
C63   C64   A    
C37   C55   A    
N6    N16   A    
C88   C89   A    
C46   H15   S    
C9    C48   A    
C8    C10   A    
C98   C99   A    
C19   N2    A    
C27   C28   A    
C1    N1    A    
C22   C23   A    
C29   H5    S    
C33   H8    S    
C89   C90   A    
C21   C22   A    
C70   N10   A    
C73   C83   S    
C79   C86   A    
N12   Ni2   S    
C69   C86   S    
C77   H55   S    
N9    Ni2   S    
C92   H45   S    
