data_mof_unit_14526.cif
_audit_creation_date              2013-03-05T16:09:10-0500
_audit_creation_method            fapswitch 2.2
_symmetry_space_group_name_H-M    P1
_symmetry_Int_Tables_number       1
_space_group_crystal_system       triclinic
_cell_length_a                    8.408597
_cell_length_b                    15.066926
_cell_length_c                    19.022829
_cell_angle_alpha                 100.031936
_cell_angle_beta                  93.894248
_cell_angle_gamma                 98.435165
_cell_volume                      2336.68251149

loop_
_atom_site_label
_atom_site_type_symbol
_atom_site_description
_atom_site_fract_x
_atom_site_fract_y
_atom_site_fract_z
_atom_type_partial_charge
P1    P     P_3+3 0.033440 0.421460 0.337070 0.520747
O1    O     O_2   0.865600 0.448450 0.327030 -0.369759
O2    O     O_3   0.118270 0.449980 0.414460 -0.367055
O3    O     O_3   0.656870 0.615610 0.375490 -0.375311
O4    O     O_2   0.766481 0.554880 0.251639 -0.375145
O5    O     O_3   0.015522 0.301495 0.312227 -0.550025
O6    O     O_3   0.630474 0.697527 0.248863 -0.496449
C1    C     C_3   0.714924 0.859167 0.275833 -1.017187
P2    P     P_3+3 0.679060 0.710980 0.562120 0.526879
P3    P     P_3+3 0.119534 0.780862 0.424752 0.500459
O7    O     O_2   0.853830 0.724300 0.541460 -0.338925
O8    O     O_3   0.080790 0.663040 0.412350 -0.373687
O9    O     O_2   0.972515 0.819764 0.455018 -0.390482
O10   O     O_3   0.715963 0.744305 0.655703 -0.592269
O11   O     O_3   0.129825 0.813783 0.340576 -0.593401
C2    C     C_3   0.075781 0.739914 0.283464 0.368403
C3    C     C_3   0.141136 0.761270 0.212830 -0.590939
C4    C     C_3   0.121104 0.752991 0.686648 0.377686
H1    H     H_    0.009022 0.723252 0.652054 0.154752
C5    C     C_3   0.087446 0.773088 0.765351 -1.082302
H2    H     H_    0.201486 0.800550 0.800347 0.259195
Ba1   Ba    Ba6+2 0.852320 0.543020 0.467270 1.607333
C6    C     C_3   0.909104 0.264831 0.249596 0.364960
C7    C     C_3   0.005067 0.246573 0.184114 -0.845263
C8    C     C_3   0.690775 0.672875 0.693854 0.322733
C9    C     C_3   0.653009 0.714657 0.769135 -0.693492
P4    P     P_3+3 0.156270 0.578610 0.662940 0.473200
O12   O     O_2   0.324110 0.551580 0.673010 -0.357156
O13   O     O_3   0.071440 0.550090 0.585550 -0.367676
O14   O     O_3   0.532840 0.384460 0.624520 -0.394954
O15   O     O_3   0.237044 0.695466 0.677185 -0.573027
P5    P     P_3+3 0.060460 0.218881 0.583156 0.427609
O16   O     O_3   0.607840 0.389380 0.460620 -0.371890
O17   O     O_3   0.108920 0.337040 0.587660 -0.461773
O18   O     O_2   0.184125 0.175683 0.537620 -0.386599
O19   O     O_3   0.104450 0.197788 0.669938 -0.515919
Ba2   Ba    Ba6+2 0.337520 0.457050 0.532740 1.603766
P6    P     P_3+3 0.620295 0.594473 0.281635 0.518572
C10   C     C_3   0.650227 0.774055 0.305088 0.478511
O20   O     O_3   0.581870 0.610700 0.539390 -0.352528
C11   C     C_3   0.443747 0.321665 0.310087 0.435138
C12   C     C_3   0.427860 0.294072 0.228608 -0.895085
H3    H     H_    0.361614 0.223344 0.211771 0.295880
P7    P     P_3+3 0.509128 0.275152 0.432306 0.500539
O21   O     O_2   0.335870 0.275730 0.458590 -0.392919
O22   O     O_3   0.487331 0.248431 0.338718 -0.478988
C13   C     C_3   0.117520 0.280447 0.719762 0.558204
C14   C     C_3   0.131705 0.263294 0.796768 -0.867803
P8    P     P_3+3 0.570004 0.391780 0.718310 0.395753
C15   C     C_3   0.534385 0.208199 0.716641 0.322726
O23   O     O_2   0.462941 0.460155 0.750442 -0.376329
O24   O     O_3   0.487542 0.291843 0.748379 -0.577909
C16   C     C_3   0.483697 0.139498 0.765912 -0.704690
N1    N     N_R   0.169137 0.567359 0.970463 -0.034046
N2    N     N_R   0.217756 0.568557 0.039028 -0.071446
C17   C     C_2   0.301553 0.518280 0.298289 -0.348099
C18   C     C_3   0.428986 0.514842 0.245935 0.176528
C19   C     C_2   0.362575 0.527498 0.172687 -0.198530
C20   C     C_2   0.201323 0.508216 0.152702 -0.007276
C21   C     C_2   0.091121 0.483083 0.208175 -0.234182
C22   C     C_1   0.151041 0.480773 0.274884 0.211512
N3    N     N_R   0.006809 0.451045 0.042719 -0.020283
N4    N     N_R   0.960020 0.448965 0.973593 -0.058007
C23   C     C_R   0.041562 0.506157 0.935035 0.193475
C24   C     C_R   0.138620 0.510060 0.076832 0.181941
C25   C     C_R   0.094047 0.538598 0.806414 -0.163965
C26   C     C_R   0.038550 0.526994 0.731955 0.077742
C27   C     C_R   0.782332 0.442083 0.754536 0.137834
C28   C     C_R   0.835290 0.453784 0.827592 -0.242353
C29   C     C_R   0.992277 0.499784 0.855366 0.026843
C30   C     C_R   0.887217 0.473974 0.707497 -0.440935
H4    H     H_    0.447038 0.543445 0.134205 0.177957
H5    H     H_    0.963302 0.461186 0.192004 0.199728
C31   C     C_R   0.852537 0.167339 0.540016 0.109925
C32   C     C_R   0.777438 0.077424 0.543341 -0.037103
C33   C     C_R   0.636160 0.891777 0.538475 -0.083596
C34   C     C_R   0.789524 0.927725 0.574200 -0.066159
C35   C     C_R   0.858779 0.018495 0.576829 -0.094448
C36   C     C_R   0.569648 0.797460 0.529594 0.197781
C37   C     C_R   0.407249 0.769070 0.503049 -0.382051
C38   C     C_R   0.609433 0.189512 0.470809 0.200044
C39   C     C_R   0.532623 0.099616 0.472539 -0.061634
C40   C     C_R   0.618048 0.043789 0.509681 0.040997
C41   C     C_R   0.374300 0.062162 0.439392 -0.047788
C42   C     C_R   0.296994 0.980386 0.453165 -0.111549
C43   C     C_R   0.382781 0.921418 0.483145 -0.032194
C44   C     C_R   0.545433 0.952444 0.510936 0.030211
C45   C     C_R   0.313282 0.829669 0.479675 0.324065
C46   C     C_R   0.771133 0.218415 0.498932 -0.454791
H6    H     H_    0.738597 0.768545 0.349567 0.108448
H7    H     H_    0.004372 0.824096 0.773247 0.263221
H8    H     H_    0.030376 0.710261 0.782103 0.262475
H9    H     H_    0.820743 0.310008 0.239069 0.111972
C47   C     C_2   0.818700 0.174741 0.259964 0.599286
H10   H     H_    0.883579 0.126779 0.281675 0.001148
O25   O     O_2   0.673687 0.153991 0.243114 -0.543069
H11   H     H_    0.089587 0.308324 0.180239 0.225045
C48   C     C_2   0.895891 0.218617 0.115540 0.630443
H12   H     H_    0.876013 0.148158 0.087572 0.040641
O26   O     O_2   0.826247 0.274247 0.091772 -0.569807
H13   H     H_    0.077779 0.191834 0.189641 0.188038
H14   H     H_    0.802505 0.642878 0.697597 0.048516
H15   H     H_    0.591169 0.618580 0.668503 0.175951
H16   H     H_    0.828133 0.850121 0.251364 0.253973
H17   H     H_    0.717880 0.786065 0.784675 0.247328
C49   C     C_2   0.700344 0.661808 0.824788 0.557678
H18   H     H_    0.644193 0.592067 0.821636 0.113734
O27   O     O_2   0.800929 0.697562 0.874828 -0.562152
H19   H     H_    0.522245 0.718081 0.768415 0.196656
C50   C     C_2   0.491799 0.785778 0.333226 0.402589
H20   H     H_    0.451979 0.851842 0.340991 0.083732
O28   O     O_2   0.407359 0.720949 0.349106 -0.626987
H21   H     H_    0.740144 0.920033 0.319769 0.227577
H22   H     H_    0.326170 0.336523 0.327766 0.088363
H23   H     H_    0.537544 0.383436 0.326331 0.088756
H24   H     H_    0.361882 0.340086 0.203152 0.184461
H25   H     H_    0.548681 0.297211 0.208528 0.261727
H26   H     H_    0.626501 0.871430 0.233874 0.304469
H27   H     H_    0.259843 0.737252 0.209218 0.187619
H28   H     H_    0.223477 0.329083 0.711898 0.154479
H29   H     H_    0.011344 0.314390 0.712824 0.019670
H30   H     H_    0.259140 0.275849 0.819740 0.264904
H31   H     H_    0.066823 0.310327 0.831359 0.222937
H32   H     H_    0.079776 0.191960 0.799239 0.289567
C51   C     C_2   0.712492 0.215434 0.709524 0.509121
H33   H     H_    0.764362 0.255509 0.672376 -0.127792
O29   O     O_2   0.796639 0.172449 0.740922 -0.586076
C52   C     C_2   0.449349 0.173751 0.642616 0.551982
H34   H     H_    0.463234 0.216271 0.602481 0.043308
O30   O     O_2   0.369758 0.097230 0.625822 -0.555318
H35   H     H_    0.518007 0.071672 0.745934 0.225759
H36   H     H_    0.350894 0.129668 0.768576 0.241319
H37   H     H_    0.942921 0.727146 0.278364 0.137679
H38   H     H_    0.542534 0.165509 0.821264 0.240990
C53   C     C_2   0.257908 0.589457 0.830615 0.629600
H39   H     H_    0.296202 0.653738 0.814174 0.001239
O31   O     O_2   0.354392 0.557936 0.866032 -0.573774
H40   H     H_    0.752151 0.427583 0.862935 0.178444
H41   H     H_    0.337193 0.540784 0.355294 0.178592
C54   C     C_2   0.835495 0.448782 0.631120 0.818362
H42   H     H_    0.835728 0.379825 0.604223 -0.149267
O32   O     O_2   0.772817 0.501215 0.600540 -0.549310
H43   H     H_    0.856932 0.886295 0.601312 0.205306
H44   H     H_    0.979166 0.040525 0.603463 0.216578
H45   H     H_    0.171586 0.959724 0.432674 0.153800
H46   H     H_    0.117708 0.675994 0.292307 0.139984
C55   C     C_2   0.291538 0.092997 0.379549 0.623441
H47   H     H_    0.181295 0.121606 0.386757 0.010584
O33   O     O_2   0.337837 0.078152 0.319838 -0.512644
H48   H     H_    0.354812 0.697914 0.497756 0.182028
C56   C     C_2   0.861941 0.291166 0.468876 0.683127
H49   H     H_    0.934635 0.351627 0.499360 0.081921
O34   O     O_2   0.841927 0.286100 0.404884 -0.574943
C57   C     C_2   0.034951 0.711824 0.146291 0.465786
H50   H     H_    0.071647 0.721378 0.094148 0.065291
O35   O     O_2   0.909242 0.661069 0.149189 -0.521088
C58   C     C_2   0.167611 0.861977 0.211242 0.683814
H51   H     H_    0.066823 0.899268 0.211641 -0.001575
O36   O     O_2   0.303319 0.902579 0.208886 -0.546194
C59   C     C_2   0.192144 0.841175 0.666040 0.513440
H52   H     H_    0.295986 0.884137 0.698324 0.039974
O37   O     O_2   0.137248 0.864598 0.612488 -0.609134

loop_
_geom_bond_atom_site_label_1
_geom_bond_atom_site_label_2
_geom_bond_distance
_ccdc_geom_bond_type
C40   C44   1.426341 A    
C58   H51   1.083086 S    
Ba1   O13   2.786490 S    
P4    O13   1.551708 S    
O17   Ba2   2.822602 S    
C11   C12   1.524523 S    
C55   H47   1.085274 S    
C33   C36   1.425167 A    
C11   H22   1.106583 S    
C19   H4    1.086214 S    
C52   H34   1.080517 S    
C9    C49   1.497567 S    
C14   H31   1.110189 S    
C38   C39   1.419352 A    
C1    H26   1.111359 S    
C53   H39   1.080378 S    
C34   C35   1.396641 A    
C37   H48   1.082413 S    
C5    H8    1.104760 S    
P3    C45   1.853680 S    
C49   O27   1.220657 D    
C7    C48   1.501426 S    
P5    O19   1.759949 S    
C31   C46   1.401052 A    
P8    C27   1.868380 S    
C54   O32   1.216925 D    
C4    H1    1.100536 S    
Ba2   O20   2.839738 S    
P3    O11   1.760827 S    
C14   H30   1.105935 S    
C43   C45   1.408126 A    
C8    H14   1.103940 S    
C13   H29   1.103406 S    
C26   C30   1.402051 A    
C49   H18   1.076718 S    
C3    C57   1.509038 S    
O11   C2    1.410269 S    
O8    Ba1   2.822025 S    
C21   H5    1.083661 S    
C17   C18   1.511941 S    
O19   C13   1.412763 S    
C2    H46   1.108190 S    
P1    O1    1.533765 D    
P2    C36   1.866084 S    
C50   H20   1.085349 S    
C27   C28   1.402951 A    
C41   C42   1.381990 A    
C10   C50   1.491752 S    
C2    C3    1.552414 S    
P8    O23   1.540390 D    
O1    Ba1   2.814696 S    
C15   O24   1.421533 S    
C11   O22   1.396184 S    
C16   H35   1.112687 S    
C1    C10   1.528149 S    
C23   C29   1.526462 S    
C3    C58   1.506844 S    
C10   H6    1.110003 S    
C57   O35   1.220902 D    
C38   C46   1.403876 A    
C25   C26   1.433379 A    
C20   C21   1.511536 S    
C58   O36   1.220690 D    
O4    P6    1.544111 D    
C28   C29   1.418200 A    
C11   H23   1.111345 S    
C2    H37   1.100097 S    
C9    H17   1.112480 S    
N2    C24   1.360348 A    
P7    O22   1.746277 S    
C5    H7    1.110269 S    
C15   C16   1.547398 S    
C31   C32   1.422114 A    
P4    O15   1.758588 S    
C7    H11   1.101445 S    
P5    O18   1.542645 D    
C4    C59   1.502096 S    
C33   C34   1.402148 A    
P7    C38   1.864779 S    
C15   C51   1.502623 S    
C17   H41   1.085656 S    
C43   C44   1.413033 A    
C8    H15   1.099977 S    
P1    Ba1   3.399798 S    
C8    C9    1.534361 S    
C42   C43   1.394138 A    
Ba1   Ba2   4.614797 S    
P2    O20   1.581083 S    
O16   Ba2   2.950332 S    
C25   C53   1.476065 S    
O14   Ba2   2.782905 S    
P1    C22   1.855746 S    
C21   C22   1.341303 D    
P1    O2    1.551706 S    
P5    O17   1.752739 S    
P2    O10   1.756530 S    
C34   H43   1.073848 S    
N3    N4    1.340394 A    
C35   H44   1.079247 S    
P6    C18   1.868133 S    
O3    Ba1   2.783567 S    
C13   C14   1.531022 S    
C33   C44   1.417425 A    
C56   H49   1.069673 S    
P8    O24   1.767175 S    
Ba1   O20   2.951320 S    
C16   H36   1.110532 S    
C54   H42   1.075540 S    
C47   O25   1.219615 D    
C1    H16   1.103425 S    
C9    H19   1.107559 S    
C57   H50   1.085407 S    
P3    O8    1.728338 S    
C1    H21   1.111906 S    
C12   H24   1.102830 S    
C13   H28   1.103594 S    
O14   P8    1.771610 S    
O3    P6    1.755617 S    
C48   H12   1.084936 S    
C39   C41   1.424760 A    
P2    O7    1.540706 D    
C51   H33   1.080485 S    
C36   C37   1.400862 A    
C15   C52   1.504429 S    
C12   H3    1.109585 S    
Ba2   O21   2.845516 S    
P4    O12   1.534081 D    
P7    O21   1.572788 D    
C41   C55   1.472278 S    
C28   H40   1.082556 S    
C53   O31   1.219808 D    
Ba1   O16   2.840289 S    
N1    N2    1.336373 A    
N3    C24   1.360996 A    
C55   O33   1.220197 D    
O16   P7    1.771537 S    
C16   H38   1.111601 S    
C42   H45   1.080012 S    
P3    O9    1.547572 D    
C52   O30   1.222899 D    
C14   H32   1.109392 S    
C12   H25   1.106877 S    
C30   C54   1.455253 S    
O7    Ba1   2.845443 S    
C48   O26   1.220646 D    
C6    C47   1.506694 S    
C7    H13   1.111067 S    
C59   H52   1.086938 S    
C19   C20   1.357693 D    
C37   C45   1.400361 A    
C20   C24   1.508849 S    
P5    C31   1.875631 S    
C32   C40   1.426253 A    
C18   C19   1.519163 S    
C25   C29   1.446580 A    
N1    C23   1.360274 A    
O12   Ba2   2.815176 S    
P4    Ba2   3.400431 S    
C27   C30   1.393572 A    
O5    C6    1.416411 S    
O6    P6    1.764189 S    
C4    C5    1.529055 S    
C56   O34   1.204986 D    
O10   C8    1.398543 S    
C47   H10   1.086019 S    
P2    Ba1   3.410289 S    
C32   C35   1.406400 A    
C50   O28   1.215706 D    
P4    C26   1.901217 S    
C3    H27   1.112936 S    
C6    C7    1.536463 S    
N4    C23   1.365961 A    
C6    H9    1.109562 S    
C46   C56   1.464084 S    
C5    H2    1.111228 S    
O2    Ba2   2.787147 S    
C39   C40   1.427601 A    
O13   Ba2   2.952107 S    
P1    O5    1.768036 S    
C51   O29   1.220098 D    
O6    C10   1.411053 S    
C17   C22   1.321096 D    
O2    Ba1   2.951176 S    
C4    O15   1.396927 S    
C59   O37   1.218421 D    
