data_mof_unit_10540.cif
_audit_creation_date              2013-03-05T15:43:16-0500
_audit_creation_method            fapswitch 2.2
_symmetry_space_group_name_H-M    P1
_symmetry_Int_Tables_number       1
_space_group_crystal_system       monoclinic
_cell_length_a                    12.778811
_cell_length_b                    12.778809
_cell_length_c                    26.980624
_cell_angle_alpha                 90.0
_cell_angle_beta                  90.0
_cell_angle_gamma                 120.000189
_cell_volume                      3815.59806743

loop_
_atom_site_label
_atom_site_type_symbol
_atom_site_description
_atom_site_fract_x
_atom_site_fract_y
_atom_site_fract_z
_atom_type_partial_charge
O1    O     O_R   0.460870 0.120930 0.805240 -0.518138
O2    O     O_R   0.660060 0.539130 0.694760 -0.521467
O3    O     O_R   0.879070 0.339940 0.805240 -0.518138
O4    O     O_R   0.460870 0.120930 0.694760 -0.521467
O5    O     O_R   0.660060 0.539130 0.805240 -0.518138
O6    O     O_R   0.879070 0.339940 0.694760 -0.521467
O7    O     O_R   0.120930 0.460870 0.305240 -0.518138
O8    O     O_R   0.539130 0.660060 0.194760 -0.521468
O9    O     O_R   0.339940 0.879070 0.305240 -0.518138
O10   O     O_R   0.120930 0.460870 0.194760 -0.521467
O11   O     O_R   0.539130 0.660060 0.305240 -0.518138
O12   O     O_R   0.339940 0.879070 0.194760 -0.521467
O13   O     O_R   0.498910 0.350470 0.801870 -0.504419
O14   O     O_R   0.851560 0.501090 0.698130 -0.505269
O15   O     O_R   0.649530 0.148440 0.801870 -0.504419
O16   O     O_R   0.498910 0.350470 0.698130 -0.505269
O17   O     O_R   0.851560 0.501090 0.801870 -0.504419
O18   O     O_R   0.649530 0.148440 0.698130 -0.505269
O19   O     O_R   0.350470 0.498910 0.301870 -0.504419
O20   O     O_R   0.501090 0.851560 0.198130 -0.505269
O21   O     O_R   0.148440 0.649530 0.301870 -0.504419
O22   O     O_R   0.350470 0.498910 0.198130 -0.505269
O23   O     O_R   0.501090 0.851560 0.301870 -0.504420
O24   O     O_R   0.148440 0.649530 0.198130 -0.505269
C1    C     C_R   0.557378 0.455617 0.821811 0.540756
C2    C     C_R   0.891274 0.437541 0.676639 0.539493
C3    C     C_R   0.544383 0.101761 0.821811 0.540756
C4    C     C_R   0.562459 0.453733 0.676639 0.539494
C5    C     C_R   0.898239 0.442622 0.821811 0.540756
C6    C     C_R   0.546267 0.108726 0.676639 0.539493
C7    C     C_R   0.455617 0.557378 0.321811 0.540756
C8    C     C_R   0.437541 0.891274 0.176639 0.539493
C9    C     C_R   0.101761 0.544383 0.321811 0.540756
C10   C     C_R   0.453733 0.562459 0.176639 0.539494
C11   C     C_R   0.442621 0.898238 0.321811 0.540756
C12   C     C_R   0.108726 0.546267 0.176639 0.539493
C13   C     C_R   0.022110 0.528438 0.970315 0.037323
C14   C     C_R   0.534953 0.042690 0.521645 0.032272
C15   C     C_R   0.471562 0.493672 0.970315 0.037323
C16   C     C_R   0.957310 0.492263 0.521645 0.032272
C17   C     C_R   0.506328 0.977890 0.970315 0.037324
C18   C     C_R   0.507737 0.465046 0.521645 0.032272
C19   C     C_R   0.528438 0.022109 0.470315 0.037323
C20   C     C_R   0.042690 0.534953 0.021645 0.032272
C21   C     C_R   0.493672 0.471562 0.470315 0.037322
C22   C     C_R   0.492263 0.957310 0.021645 0.032272
C23   C     C_R   0.977890 0.506328 0.470315 0.037323
C24   C     C_R   0.465047 0.507737 0.021645 0.032271
C25   C     C_R   0.910724 0.637727 0.980831 0.023373
C26   C     C_R   0.651322 0.938817 0.532409 0.021983
C27   C     C_R   0.362272 0.272996 0.980831 0.023374
C28   C     C_R   0.061182 0.712506 0.532408 0.021985
C29   C     C_R   0.727003 0.089276 0.980831 0.023374
C30   C     C_R   0.287494 0.348676 0.532408 0.021985
C31   C     C_R   0.637726 0.910722 0.480832 0.023373
C32   C     C_R   0.938817 0.651322 0.032409 0.021985
C33   C     C_R   0.272996 0.362272 0.480831 0.023374
C34   C     C_R   0.712505 0.061182 0.032408 0.021985
C35   C     C_R   0.089276 0.727004 0.480831 0.023373
C36   C     C_R   0.348676 0.287494 0.032408 0.021985
C37   C     C_R   0.924552 0.556443 0.899170 -0.144055
C38   C     C_R   0.593714 0.018414 0.604650 -0.153512
C39   C     C_R   0.443556 0.368108 0.899170 -0.144056
C40   C     C_R   0.981585 0.575299 0.604650 -0.153512
C41   C     C_R   0.631892 0.075448 0.899170 -0.144056
C42   C     C_R   0.424700 0.406286 0.604650 -0.153512
C43   C     C_R   0.556440 0.924548 0.399170 -0.144053
C44   C     C_R   0.018415 0.593713 0.104650 -0.153512
C45   C     C_R   0.368108 0.443557 0.399170 -0.144056
C46   C     C_R   0.575299 0.981585 0.104650 -0.153513
C47   C     C_R   0.075448 0.631892 0.399170 -0.144055
C48   C     C_R   0.406286 0.424701 0.104650 -0.153512
C49   C     C_R   0.077470 0.536344 0.124158 -0.008310
C50   C     C_R   0.486550 0.957519 0.370052 -0.015168
C51   C     C_R   0.463655 0.541125 0.124158 -0.008310
C52   C     C_R   0.042479 0.529030 0.370052 -0.015168
C53   C     C_R   0.458875 0.922530 0.124158 -0.008309
C54   C     C_R   0.470970 0.513449 0.370052 -0.015168
C55   C     C_R   0.536345 0.077469 0.624158 -0.008310
C56   C     C_R   0.957521 0.486551 0.870052 -0.015168
C57   C     C_R   0.541125 0.463655 0.624158 -0.008310
C58   C     C_R   0.529029 0.042479 0.870052 -0.015168
C59   C     C_R   0.922531 0.458875 0.624158 -0.008309
C60   C     C_R   0.513449 0.470970 0.870052 -0.015168
H1    H     H_    0.988457 0.637385 0.130628 0.119485
H2    H     H_    0.588814 0.870022 0.381991 0.146454
H3    H     H_    0.362614 0.351071 0.130628 0.119485
H4    H     H_    0.129970 0.718792 0.381990 0.146457
H5    H     H_    0.648928 0.011543 0.130628 0.119485
H6    H     H_    0.281208 0.411180 0.381990 0.146458
H7    H     H_    0.637385 0.988456 0.630628 0.119485
H8    H     H_    0.870029 0.588820 0.881990 0.146457
H9    H     H_    0.351071 0.362614 0.630628 0.119485
H10   H     H_    0.718791 0.129970 0.881990 0.146457
H11   H     H_    0.011543 0.648929 0.630628 0.119485
H12   H     H_    0.411179 0.281208 0.881990 0.146457
C61   C     C_R   0.953190 0.576162 0.949934 -0.001945
C62   C     C_R   0.593156 0.998627 0.553127 -0.003210
C63   C     C_R   0.423837 0.377028 0.949934 -0.001944
C64   C     C_R   0.001372 0.594529 0.553126 -0.003211
C65   C     C_R   0.622972 0.046810 0.949934 -0.001944
C66   C     C_R   0.405471 0.406843 0.553126 -0.003211
C67   C     C_R   0.576161 0.953188 0.449934 -0.001942
C68   C     C_R   0.998628 0.593156 0.053127 -0.003211
C69   C     C_R   0.377027 0.423837 0.449934 -0.001945
C70   C     C_R   0.594528 0.001372 0.053127 -0.003211
C71   C     C_R   0.046810 0.622972 0.449934 -0.001945
C72   C     C_R   0.406843 0.405471 0.053127 -0.003211
Cr1   Cr    Cr6+3 0.487630 0.241180 0.750000 1.004169
Cr2   Cr    Cr6+3 0.753550 0.512370 0.750000 1.004170
Cr3   Cr    Cr6+3 0.758820 0.246450 0.750000 1.004169
Cr4   Cr    Cr6+3 0.241180 0.487630 0.250000 1.004169
Cr5   Cr    Cr6+3 0.512370 0.753550 0.250000 1.004169
Cr6   Cr    Cr6+3 0.246450 0.758820 0.250000 1.004169
O25   O     O_3   0.666667 0.333333 0.750000 -0.239476
O26   O     O_3   0.333333 0.666667 0.250000 -0.239477
C73   C     C_R   0.032975 0.447582 0.889684 -0.145853
C74   C     C_R   0.482108 0.123183 0.592531 -0.136186
C75   C     C_R   0.552418 0.585393 0.889684 -0.145853
C76   C     C_R   0.876818 0.358924 0.592531 -0.136185
C77   C     C_R   0.414606 0.967025 0.889684 -0.145853
C78   C     C_R   0.641075 0.517893 0.592531 -0.136185
C79   C     C_R   0.447583 0.032975 0.389684 -0.145854
C80   C     C_R   0.123183 0.482107 0.092531 -0.136185
C81   C     C_R   0.585393 0.552417 0.389684 -0.145853
C82   C     C_R   0.358924 0.876818 0.092531 -0.136185
C83   C     C_R   0.967025 0.414606 0.389685 -0.145853
C84   C     C_R   0.517893 0.641076 0.092531 -0.136185
C85   C     C_R   0.066129 0.468531 0.939553 0.011746
C86   C     C_R   0.481447 0.106899 0.541651 0.004907
C87   C     C_R   0.531470 0.597599 0.939553 0.011746
C88   C     C_R   0.893102 0.374548 0.541651 0.004907
C89   C     C_R   0.402400 0.933871 0.939553 0.011746
C90   C     C_R   0.625452 0.518554 0.541651 0.004907
C91   C     C_R   0.468531 0.066129 0.439553 0.011746
C92   C     C_R   0.106899 0.481447 0.041650 0.004906
C93   C     C_R   0.597599 0.531469 0.439553 0.011746
C94   C     C_R   0.374547 0.893102 0.041651 0.004907
C95   C     C_R   0.933871 0.402401 0.439553 0.011746
C96   C     C_R   0.518554 0.625452 0.041650 0.004907
C97   C     C_R   0.152550 0.425955 0.010724 -0.134129
C98   C     C_R   0.421451 0.134496 0.459908 -0.132745
C99   C     C_R   0.574047 0.726595 0.010724 -0.134129
C100  C     C_R   0.865505 0.286954 0.459908 -0.132746
C101  C     C_R   0.273404 0.847451 0.010724 -0.134129
C102  C     C_R   0.713046 0.578550 0.459908 -0.132745
C103  C     C_R   0.425956 0.152550 0.510724 -0.134128
C104  C     C_R   0.134496 0.421450 0.959908 -0.132745
C105  C     C_R   0.726595 0.574045 0.510724 -0.134129
C106  C     C_R   0.286953 0.865505 0.959908 -0.132745
C107  C     C_R   0.847452 0.273405 0.510725 -0.134130
C108  C     C_R   0.578551 0.713046 0.959908 -0.132745
H13   H     H_    0.198148 0.381858 0.026135 0.124494
H14   H     H_    0.375173 0.168238 0.436922 0.117611
H15   H     H_    0.618143 0.816291 0.026135 0.124494
H16   H     H_    0.831764 0.206933 0.436922 0.117613
H17   H     H_    0.183709 0.801853 0.026135 0.124494
H18   H     H_    0.793066 0.624828 0.436922 0.117610
H19   H     H_    0.381860 0.198149 0.526134 0.124494
H20   H     H_    0.168237 0.375171 0.936922 0.117612
H21   H     H_    0.816290 0.618142 0.526134 0.124494
H22   H     H_    0.206933 0.831764 0.936922 0.117611
H23   H     H_    0.801853 0.183709 0.526135 0.124493
H24   H     H_    0.624831 0.793067 0.936922 0.117611
C109  C     C_3   0.910750 0.732259 0.064790 -0.285231
C110  C     C_3   0.791100 0.659010 0.092317 -0.428991
H25   H     H_    0.768456 0.721429 0.111971 0.145243
H26   H     H_    0.717649 0.603005 0.065942 0.167438
H27   H     H_    0.796228 0.597671 0.119999 0.150810
H28   H     H_    0.985056 0.784481 0.091472 0.126994
H29   H     H_    0.908541 0.804602 0.042994 0.135378
C111  C     C_3   0.683477 0.830856 0.459287 -0.271823
C112  C     C_3   0.803291 0.905271 0.432163 -0.455138
H30   H     H_    0.873872 0.966246 0.458674 0.138361
H31   H     H_    0.831327 0.843876 0.415319 0.137635
H32   H     H_    0.795577 0.960730 0.402314 0.150404
H33   H     H_    0.694954 0.775816 0.487916 0.160365
H34   H     H_    0.614813 0.761477 0.434543 0.150288
C113  C     C_3   0.267738 0.178490 0.064790 -0.285232
C114  C     C_3   0.340986 0.132088 0.092317 -0.428992
H35   H     H_    0.278566 0.047024 0.111970 0.145242
H36   H     H_    0.396991 0.114641 0.065942 0.167438
H37   H     H_    0.402325 0.198555 0.119999 0.150811
H38   H     H_    0.215516 0.200574 0.091471 0.126994
H39   H     H_    0.195395 0.103938 0.042994 0.135378
C115  C     C_3   0.169142 0.852621 0.459286 -0.271823
C116  C     C_3   0.094725 0.898019 0.432163 -0.455142
H40   H     H_    0.033778 0.907661 0.458676 0.138353
H41   H     H_    0.156121 0.987433 0.415305 0.137640
H42   H     H_    0.039237 0.834827 0.402324 0.150404
H43   H     H_    0.224183 0.919139 0.487915 0.160365
H44   H     H_    0.238519 0.853335 0.434542 0.150288
C117  C     C_3   0.821510 0.089250 0.064790 -0.285232
C118  C     C_3   0.867910 0.208900 0.092317 -0.428991
H45   H     H_    0.885360 0.282352 0.065942 0.167438
H46   H     H_    0.801441 0.203773 0.119998 0.150811
H47   H     H_    0.952972 0.231544 0.111972 0.145243
H48   H     H_    0.799426 0.014944 0.091471 0.126994
H49   H     H_    0.896062 0.091460 0.042994 0.135378
C119  C     C_3   0.147379 0.316520 0.459286 -0.271824
C120  C     C_3   0.101982 0.196707 0.432162 -0.455142
H50   H     H_    0.092340 0.126117 0.458674 0.138353
H51   H     H_    0.012569 0.168689 0.415304 0.137638
H52   H     H_    0.165175 0.204412 0.402324 0.150406
H53   H     H_    0.080860 0.305041 0.487915 0.160364
H54   H     H_    0.146665 0.385185 0.434542 0.150288
C121  C     C_3   0.732262 0.910752 0.564790 -0.285233
C122  C     C_3   0.659015 0.791102 0.592317 -0.428990
H55   H     H_    0.597678 0.796231 0.620001 0.150810
H56   H     H_    0.603008 0.717651 0.565943 0.167438
H57   H     H_    0.721436 0.768459 0.611970 0.145242
H58   H     H_    0.804605 0.908544 0.542994 0.135379
H59   H     H_    0.784483 0.985059 0.591471 0.126994
C123  C     C_3   0.830858 0.683478 0.959286 -0.271823
C124  C     C_3   0.905274 0.803292 0.932163 -0.455140
H60   H     H_    0.960762 0.795589 0.902324 0.150404
H61   H     H_    0.843879 0.831311 0.915305 0.137639
H62   H     H_    0.966222 0.873881 0.958676 0.138353
H63   H     H_    0.761480 0.614814 0.934542 0.150287
H64   H     H_    0.775816 0.694954 0.987915 0.160365
C125  C     C_3   0.178490 0.267737 0.564790 -0.285231
C126  C     C_3   0.132086 0.340984 0.592317 -0.428991
H65   H     H_    0.198552 0.402321 0.620000 0.150811
H66   H     H_    0.114641 0.396989 0.565942 0.167438
H67   H     H_    0.047021 0.278563 0.611969 0.145242
H68   H     H_    0.103938 0.195393 0.542993 0.135377
H69   H     H_    0.200575 0.215515 0.591471 0.126995
C127  C     C_3   0.852621 0.169141 0.959286 -0.271823
C128  C     C_3   0.898017 0.094724 0.932163 -0.455141
H70   H     H_    0.834826 0.039237 0.902324 0.150404
H71   H     H_    0.987432 0.156119 0.915305 0.137639
H72   H     H_    0.907658 0.033777 0.958676 0.138353
H73   H     H_    0.853334 0.238518 0.934542 0.150288
H74   H     H_    0.919139 0.224183 0.987914 0.160364
C129  C     C_3   0.089248 0.821510 0.564790 -0.285231
C130  C     C_3   0.208899 0.867913 0.592317 -0.428991
H75   H     H_    0.203770 0.801447 0.620000 0.150811
H76   H     H_    0.282350 0.885358 0.565942 0.167438
H77   H     H_    0.231543 0.952978 0.611970 0.145242
H78   H     H_    0.091458 0.896062 0.542993 0.135379
H79   H     H_    0.014942 0.799425 0.591471 0.126994
C131  C     C_3   0.316520 0.147379 0.959286 -0.271823
C132  C     C_3   0.196706 0.101982 0.932162 -0.455140
H80   H     H_    0.204410 0.165173 0.902324 0.150404
H81   H     H_    0.168686 0.012568 0.915305 0.137638
H82   H     H_    0.126117 0.092341 0.958675 0.138354
H83   H     H_    0.385184 0.146665 0.934542 0.150287
H84   H     H_    0.305043 0.080861 0.987915 0.160364
H85   H     H_    0.173838 0.441998 0.107533 0.135985
H86   H     H_    0.394859 0.059787 0.367009 0.122449
H87   H     H_    0.558003 0.731840 0.107533 0.135985
H88   H     H_    0.940215 0.335070 0.367009 0.122449
H89   H     H_    0.268160 0.826163 0.107533 0.135985
H90   H     H_    0.664929 0.605143 0.367009 0.122450
H91   H     H_    0.441999 0.173838 0.607533 0.135985
H92   H     H_    0.059785 0.394857 0.867009 0.122449
H93   H     H_    0.731840 0.558003 0.607533 0.135984
H94   H     H_    0.335070 0.940215 0.867009 0.122449
H95   H     H_    0.826163 0.268160 0.607533 0.135985
H96   H     H_    0.605144 0.664929 0.867009 0.122449

loop_
_geom_bond_atom_site_label_1
_geom_bond_atom_site_label_2
_geom_bond_distance
_ccdc_geom_bond_type
C111  H33   1.102733 S    
C20   C92   1.411778 A    
C16   C23   1.404342 A    
C33   C69   1.426636 A    
O4    Cr1   2.043056 S    
C11   C50   1.468968 S    
C109  H29   1.107855 S    
C109  C110  1.527862 S    
C39   H12   1.076911 S    
C29   C34   1.425909 A    
C47   C71   1.407524 A    
O17   C5    1.284206 A    
C120  H50   1.108794 S    
C42   C66   1.412314 A    
C118  H46   1.108116 S    
C96   C99   1.397525 A    
C41   C65   1.407524 A    
C14   C62   1.417917 A    
O4    C6    1.274525 A    
C103  H19   1.076241 S    
O17   Cr2   1.930934 S    
C17   C89   1.421959 A    
C20   C68   1.417918 A    
C43   C67   1.407521 A    
C24   C72   1.417917 A    
C112  H30   1.108808 S    
C130  H75   1.108113 S    
C36   C113  1.527303 S    
O24   Cr6   1.930933 S    
C2    C59   1.459449 S    
O9    Cr6   2.043052 S    
C14   C86   1.411779 A    
C111  C112  1.525796 S    
C51   C84   1.398072 A    
C128  H72   1.108796 S    
C123  H63   1.106203 S    
C124  H61   1.109730 S    
C29   C127  1.522507 S    
C47   C52   1.403103 A    
C73   H92   1.084655 S    
C87   C108  1.397291 A    
C118  H47   1.109948 S    
O21   C9    1.284203 A    
O5    Cr2   2.043056 S    
C94   C101  1.397524 A    
C88   C107  1.397525 A    
C132  H80   1.109227 S    
C130  H76   1.108071 S    
C55   C74   1.398073 A    
C31   C67   1.426639 A    
C121  H59   1.109747 S    
C119  H53   1.102732 S    
O7    Cr4   2.043055 S    
C35   C115  1.522506 S    
C83   H88   1.084655 S    
C104  H20   1.084098 S    
C115  H43   1.102734 S    
O3    C5    1.288492 A    
C78   C90   1.387867 A    
C116  H42   1.109225 S    
O13   Cr1   1.930933 S    
C9    C52   1.468969 S    
C97   C104  1.386739 A    
O1    Cr1   2.043054 S    
C8    C53   1.459451 S    
C38   C62   1.412312 A    
C99   H15   1.076241 S    
C74   H91   1.085044 S    
O6    Cr3   2.043055 S    
C129  H79   1.109746 S    
C48   C72   1.412315 A    
C29   C65   1.426637 A    
C122  H55   1.108114 S    
C85   C104  1.397292 A    
C32   C109  1.527300 S    
C1    C60   1.468967 S    
C39   C63   1.407525 A    
C129  C130  1.527861 S    
O10   Cr4   2.043057 S    
O18   C6    1.290487 A    
C73   C85   1.395742 A    
C58   C77   1.392271 A    
C127  H74   1.102732 S    
C101  C106  1.386738 A    
C36   C72   1.420290 A    
C114  H37   1.108113 S    
C77   H94   1.084654 S    
C22   C94   1.411778 A    
Cr5   O26   1.981640 S    
C26   C121  1.527304 S    
C49   C80   1.398071 A    
C75   H96   1.084656 S    
C16   C88   1.411778 A    
O19   C7    1.284204 A    
O12   C8    1.274527 A    
C46   C53   1.391838 A    
C110  H26   1.108071 S    
C44   H1    1.078380 S    
O7    C9    1.288492 A    
O13   C1    1.284203 A    
C45   C54   1.403104 A    
C81   H90   1.084655 S    
C83   C95   1.395742 A    
C120  H51   1.109730 S    
C48   C51   1.391839 A    
C106  H22   1.084101 S    
C18   C66   1.417917 A    
C13   C61   1.409642 A    
C127  C128  1.525797 S    
C128  H70   1.109224 S    
C21   C69   1.409641 A    
O16   Cr1   1.930935 S    
O12   Cr6   2.043054 S    
C112  H31   1.109740 S    
C27   C63   1.426636 A    
O22   C10   1.290486 A    
C26   C62   1.420289 A    
C84   H87   1.085045 S    
C24   C96   1.411777 A    
C121  C122  1.527863 S    
O15   Cr3   1.930931 S    
C93   C102  1.397292 A    
O18   Cr3   1.930933 S    
C32   C68   1.420289 A    
C79   H86   1.084655 S    
C46   C70   1.412315 A    
C124  H62   1.108796 S    
O3    Cr3   2.043053 S    
C37   C56   1.403103 A    
C80   C92   1.387868 A    
C123  C124  1.525796 S    
C119  C120  1.525798 S    
C30   C125  1.527302 S    
O20   Cr5   1.930936 S    
C126  H67   1.109944 S    
C132  H81   1.109730 S    
C44   C49   1.391839 A    
C117  H49   1.107854 S    
C90   C105  1.397524 A    
C25   C61   1.426639 A    
C75   C87   1.395742 A    
C28   C64   1.420289 A    
C35   C71   1.426637 A    
C113  C114  1.527861 S    
C79   C91   1.395741 A    
C34   C70   1.420289 A    
C18   C21   1.404345 A    
C59   C76   1.398073 A    
C100  H16   1.084100 S    
C126  H66   1.108070 S    
C124  H60   1.109224 S    
C25   C123  1.522507 S    
C40   C59   1.391840 A    
C16   C64   1.417918 A    
C125  C126  1.527863 S    
C74   C86   1.387868 A    
C28   C35   1.425910 A    
O23   Cr5   1.930934 S    
C102  C105  1.386740 A    
C101  H17   1.076240 S    
C95   C100  1.397291 A    
C38   C55   1.391840 A    
C78   H93   1.085045 S    
O15   C3    1.284205 A    
C17   C22   1.404345 A    
C132  H82   1.108795 S    
C38   H7    1.078379 S    
C21   C93   1.421958 A    
C131  C132  1.525796 S    
C43   C50   1.403104 A    
O8    C10   1.274523 A    
O14   C2    1.290489 A    
C19   C91   1.421958 A    
C80   H85   1.085046 S    
C127  H73   1.106202 S    
C108  H24   1.084100 S    
O8    Cr5   2.043058 S    
C42   H9    1.078381 S    
O5    C1    1.288490 A    
C6    C55   1.459449 S    
Cr3   O25   1.981646 S    
C41   H10   1.076910 S    
C107  H23   1.076241 S    
C33   C119  1.522506 S    
C122  H57   1.109944 S    
C110  H25   1.109945 S    
C120  H52   1.109224 S    
C46   H5    1.078379 S    
C105  H21   1.076240 S    
C45   H6    1.076911 S    
C76   H95   1.085046 S    
C31   C111  1.522505 S    
Cr4   O26   1.981640 S    
C48   H3    1.078381 S    
C114  H35   1.109943 S    
C91   C98   1.397291 A    
C7    C54   1.468967 S    
O9    C11   1.288492 A    
C113  H38   1.109746 S    
O20   C8    1.290488 A    
C112  H32   1.109238 S    
C111  H34   1.106202 S    
C109  H28   1.109748 S    
O14   Cr2   1.930936 S    
C56   C73   1.392271 A    
O2    Cr2   2.043057 S    
C43   H2    1.076910 S    
C45   C69   1.407523 A    
C114  H36   1.108069 S    
C4    C57   1.459452 S    
C76   C88   1.387867 A    
C98   C103  1.386739 A    
C30   C66   1.420289 A    
C3    C58   1.468967 S    
C37   C61   1.407524 A    
C89   C106  1.397292 A    
C131  H83   1.106203 S    
C40   H11   1.078380 S    
O21   Cr6   1.930931 S    
C19   C67   1.409643 A    
C119  H54   1.106203 S    
Cr6   O26   1.981645 S    
C121  H58   1.107856 S    
C37   H8    1.076911 S    
C117  H48   1.109746 S    
C102  H18   1.084100 S    
C100  C107  1.386738 A    
C25   C32   1.425907 A    
C125  H69   1.109746 S    
C34   C117  1.527300 S    
C23   C71   1.409642 A    
C26   C31   1.425908 A    
O24   C12   1.290487 A    
C130  H77   1.109945 S    
C57   C78   1.398071 A    
C18   C90   1.411778 A    
C81   C93   1.395742 A    
C13   C20   1.404342 A    
C44   C68   1.412315 A    
C84   C96   1.387868 A    
C28   C129  1.527302 S    
C14   C19   1.404343 A    
C128  H71   1.109729 S    
C123  H64   1.102732 S    
C42   C57   1.391841 A    
C118  H45   1.108070 S    
C97   H13   1.076241 S    
C41   C58   1.403104 A    
O6    C2    1.274526 A    
C5    C56   1.468967 S    
C15   C87   1.421958 A    
C60   C75   1.392271 A    
C22   C70   1.417918 A    
C82   C94   1.387867 A    
C92   C97   1.397526 A    
C17   C65   1.409640 A    
C113  H39   1.107856 S    
C50   C79   1.392271 A    
C82   H89   1.085045 S    
C115  H44   1.106202 S    
C126  H65   1.108113 S    
O11   Cr5   2.043056 S    
O23   C11   1.284204 A    
C131  H84   1.102732 S    
C116  H41   1.109729 S    
O2    C4    1.274525 A    
C12   C49   1.459452 S    
Cr1   O25   1.981641 S    
O11   C7    1.288489 A    
C47   H4    1.076911 S    
C27   C131  1.522507 S    
C15   C63   1.409640 A    
C40   C64   1.412315 A    
C10   C51   1.459452 S    
C116  H40   1.108797 S    
C110  H27   1.108115 S    
C122  H56   1.108071 S    
C117  C118  1.527860 S    
C23   C95   1.421959 A    
O1    C3    1.288492 A    
C52   C83   1.392271 A    
O19   Cr4   1.930933 S    
O16   C4    1.290484 A    
C86   C103  1.397524 A    
O10   C12   1.274526 A    
C27   C36   1.425907 A    
C98   H14   1.084101 S    
C77   C89   1.395742 A    
C115  C116  1.525798 S    
C54   C81   1.392271 A    
C39   C60   1.403104 A    
Cr2   O25   1.981640 S    
C13   C85   1.421960 A    
C129  H78   1.107857 S    
C99   C108  1.386738 A    
C53   C82   1.398071 A    
C125  H68   1.107855 S    
O22   Cr4   1.930935 S    
C15   C24   1.404345 A    
C30   C33   1.425908 A    
