data_mof_unit_55663.cif
_audit_creation_date              2012-10-26T20:32:54-0400
_audit_creation_method            fapswitch 2.2
_symmetry_space_group_name_H-M    P1
_symmetry_Int_Tables_number       1
_space_group_crystal_system       triclinic
_cell_length_a                    27.808806
_cell_length_b                    10.825146
_cell_length_c                    9.537599
_cell_angle_alpha                 90.602095
_cell_angle_beta                  90.362379
_cell_angle_gamma                 90.151472
_cell_volume                      2870.91875448

loop_
_atom_site_label
_atom_site_type_symbol
_atom_type_description
_atom_site_fract_x
_atom_site_fract_y
_atom_site_fract_z
_atom_type_partial_charge
C1    C     C_R   0.498270 0.262160 0.498999 0.544843
C2    C     C_R   0.974520 0.379360 0.506749 0.015140
C3    C     C_R   0.974438 0.599186 0.443827 0.023384
C4    C     C_R   0.407452 0.499561 0.499527 0.552631
C5    C     C_R   0.949148 0.488589 0.473616 0.015262
C6    C     C_R   0.948498 0.267570 0.509954 -0.108775
C7    C     C_R   0.898302 0.264771 0.504407 0.095559
C8    C     C_R   0.872366 0.375891 0.489890 0.060329
C9    C     C_R   0.898036 0.487088 0.469373 -0.057082
C10   C     C_R   0.872599 0.597173 0.444472 0.027100
C11   C     C_R   0.822224 0.595680 0.444346 0.394672
C12   C     C_R   0.278435 0.513535 0.622010 0.118000
C13   C     C_R   0.821566 0.380026 0.493248 0.421724
C14   C     C_R   0.717986 0.419412 0.388055 -0.068205
C15   C     C_R   0.667998 0.422306 0.396937 -0.181470
C16   C     C_R   0.499038 0.737479 0.500680 0.554265
C17   C     C_R   0.673461 0.572751 0.587276 0.070223
C18   C     C_R   0.723693 0.568102 0.578851 -0.046892
C19   C     C_R   0.746139 0.491698 0.479582 0.211186
C20   C     C_R   0.025228 0.384361 0.528279 0.055840
C21   C     C_R   0.050604 0.491235 0.484287 0.010028
C22   C     C_R   0.025413 0.597384 0.437863 0.018648
C23   C     C_R   0.253434 0.495303 0.494919 0.327854
C24   C     C_R   0.051719 0.288990 0.595807 0.076722
C25   C     C_R   0.102159 0.697282 0.387055 -0.109160
C26   C     C_R   0.947733 0.708091 0.421019 -0.139091
C27   C     C_R   0.897830 0.706889 0.421568 -0.108215
C28   C     C_R   0.592457 0.500606 0.500011 0.578663
C29   C     C_R   0.052220 0.698345 0.386610 -0.138485
C30   C     C_R   0.501142 0.064955 0.622452 0.003916
C31   C     C_R   0.492861 0.128549 0.497942 0.012892
C32   C     C_R   0.476967 0.059918 0.378151 0.070738
C33   C     C_R   0.477646 0.931095 0.381727 -0.099587
C34   C     C_R   0.101650 0.492668 0.487935 -0.037596
C35   C     C_R   0.493541 0.869934 0.502233 -0.022447
C36   C     C_R   0.501290 0.938073 0.624868 0.019967
C37   C     C_3   0.541958 0.934187 0.727649 -0.266145
C38   C     C_3   0.541857 0.074495 0.725017 -0.263819
C39   C     C_R   0.523968 0.589891 0.075389 0.161361
C40   C     C_R   0.177680 0.393836 0.542199 0.432434
C41   C     C_R   0.471932 0.420218 0.072884 -0.017059
C42   C     C_R   0.472144 0.419649 0.923945 -0.011701
C43   C     C_R   0.523913 0.590004 0.927966 0.156781
C44   C     C_3   0.576447 0.616475 0.924574 -0.276350
C45   C     C_R   0.127181 0.391376 0.541338 0.002125
C46   C     C_3   0.576407 0.617133 0.083411 -0.279063
C47   C     C_R   0.177754 0.594890 0.442484 0.432531
C48   C     C_R   0.278924 0.478319 0.369505 0.118421
C49   C     C_R   0.329238 0.480244 0.371561 -0.149617
C50   C     C_R   0.328778 0.514401 0.623164 -0.149161
C51   C     C_R   0.101972 0.291932 0.597243 -0.102809
C52   C     C_R   0.127291 0.595798 0.438812 0.027951
C53   C     C_R   0.354485 0.498174 0.498138 -0.028938
C54   C     C_R   0.645297 0.497659 0.497262 0.044890
Cu1   Cu    Cu3+1 0.500000 0.499980 0.640670 0.955521
Cu2   Cu    Cu3+1 0.500000 0.500020 0.359330 0.930951
H1    H     H_    0.347597 0.528705 0.721846 0.132897
H2    H     H_    0.597335 0.538280 0.879774 0.174405
H3    H     H_    0.121147 0.216941 0.646911 0.166775
H4    H     H_    0.646933 0.365310 0.325352 0.123031
H5    H     H_    0.348406 0.466817 0.274045 0.128868
H6    H     H_    0.263640 0.527570 0.170724 0.241563
H7    H     H_    0.264486 0.373622 0.198007 0.230558
H8    H     H_    0.661184 0.747625 0.651266 0.234500
H9    H     H_    0.666090 0.644482 0.781436 0.222081
H10   H     H_    0.745358 0.625188 0.648769 0.138912
H11   H     H_    0.490083 0.160395 0.204047 0.248640
H12   H     H_    0.121022 0.776909 0.346641 0.166839
H13   H     H_    0.434063 0.180319 0.275283 0.242608
H14   H     H_    0.467536 0.879366 0.288125 0.159791
H15   H     H_    0.262835 0.463505 0.819809 0.240145
H16   H     H_    0.262834 0.617467 0.792503 0.233056
H17   H     H_    0.449574 0.355021 0.127410 0.110494
H18   H     H_    0.450344 0.352984 0.866861 0.123136
H19   H     H_    0.584207 0.708679 0.879938 0.141864
H20   H     H_    0.597718 0.540210 0.128347 0.158757
H21   H     H_    0.583863 0.709732 0.130239 0.134531
H22   H     H_    0.734870 0.361210 0.309665 0.148268
H23   H     H_    0.964417 0.796977 0.406481 0.104170
H24   H     H_    0.886433 0.092427 0.427531 0.221177
H25   H     H_    0.884272 0.104986 0.604275 0.239938
H26   H     H_    0.966514 0.179488 0.510164 0.150394
H27   H     H_    0.039654 0.109181 0.639415 0.225403
H28   H     H_    0.039869 0.204740 0.780781 0.245940
H29   H     H_    0.879068 0.793060 0.404307 0.164680
H30   H     H_    0.035571 0.778671 0.341697 0.110209
H31   H     H_    0.530668 0.896212 0.830191 0.142062
H32   H     H_    0.575043 0.892500 0.682674 0.144284
H33   H     H_    0.530608 0.117216 0.826090 0.146914
H34   H     H_    0.574885 0.114598 0.678365 0.143000
N1    N     N_R   0.201802 0.494572 0.493024 -0.351948
N2    N     N_3   0.028400 0.195586 0.676543 -0.650720
N3    N     N_R   0.797774 0.488822 0.471217 -0.407437
N4    N     N_R   0.500300 0.500930 0.147930 -0.231415
N5    N     N_R   0.500310 0.500890 0.852020 -0.233627
N6    N     N_3   0.253458 0.458354 0.240274 -0.594604
N7    N     N_3   0.651394 0.658584 0.681727 -0.643421
N8    N     N_3   0.460968 0.116426 0.251176 -0.638219
N9    N     N_3   0.252452 0.532147 0.749581 -0.593444
N10   N     N_3   0.874281 0.147594 0.510645 -0.544216
O1    O     O_R   0.500000 0.319640 0.618810 -0.505930
O2    O     O_R   0.569730 0.499960 0.618810 -0.474987
O3    O     O_R   0.569740 0.500000 0.381220 -0.514016
O4    O     O_2   0.202525 0.296302 0.591309 -0.486745
O5    O     O_2   0.796027 0.277247 0.521498 -0.446943
O6    O     O_2   0.202644 0.693570 0.396567 -0.485683
O7    O     O_2   0.797763 0.700401 0.417216 -0.497226
O8    O     O_R   0.500010 0.319680 0.381230 -0.516240
O9    O     O_R   0.430260 0.500000 0.618780 -0.504696
O10   O     O_R   0.430270 0.500040 0.381190 -0.506209
O11   O     O_R   0.499990 0.680320 0.618770 -0.486902
O12   O     O_R   0.500000 0.680360 0.381190 -0.506146

loop_
_geom_bond_atom_site_label_1
_geom_bond_atom_site_label_2
_ccdc_geom_bond_type
C10   C27   A    
Cu1   Cu2   S    
C8    C13   A    
C6    H26   S    
C22   C29   A    
H6    N6    S    
C4    C53   S    
C15   H4    S    
C37   H32   S    
C35   C36   A    
C4    O9    A    
C46   H20   S    
C7    C8    A    
C31   C32   A    
Cu2   N4    S    
H27   N2    S    
C38   H33   S    
C26   C27   A    
C36   C37   S    
Cu1   O1    S    
C16   C35   S    
C30   C31   A    
C45   C51   A    
C1    C31   S    
C30   C38   S    
C18   C19   A    
C41   C42   A    
C27   H29   S    
Cu2   O8    S    
C12   N9    S    
H11   N8    S    
C20   C24   A    
C44   H2    S    
C8    C9    A    
C43   N5    A    
C9    C10   A    
C19   N3    S    
H13   N8    S    
C11   N3    A    
C24   C51   A    
C21   C22   A    
H24   N10   S    
C2    C6    A    
C25   H12   S    
C24   N2    S    
Cu2   O10   S    
C44   C46   S    
C25   C29   A    
C40   C45   A    
C42   H18   S    
C50   C53   A    
C49   H5    S    
C7    N10   S    
C2    C20   A    
C42   N5    A    
C15   C54   A    
Cu1   N5    S    
C28   C54   S    
C12   C23   A    
C21   C34   A    
H15   N9    S    
H7    N6    S    
C13   N3    A    
C44   H19   S    
C43   C44   S    
C39   N4    A    
C5    C9    A    
C37   C38   S    
C40   O4    S    
C12   C50   A    
C41   N4    A    
Cu1   O2    S    
C47   O6    S    
C17   C18   A    
C34   C45   A    
C29   H30   S    
C6    C7    A    
C33   H14   S    
C39   C46   S    
C13   O5    S    
C48   C49   A    
C11   O7    S    
C23   N1    S    
C2    C5    A    
C51   H3    S    
C1    O1    A    
C16   O12   A    
C4    O10   A    
H8    N7    S    
C23   C48   A    
C48   N6    S    
Cu1   O11   S    
C50   H1    S    
C47   N1    A    
C14   C19   A    
C37   H31   S    
C3    C26   A    
Cu2   O3    S    
C3    C5    A    
C46   H21   S    
C39   C43   A    
C47   C52   A    
H25   N10   S    
C18   H10   S    
C38   H34   S    
C34   C52   A    
C26   H23   S    
C30   C36   A    
C32   C33   A    
C25   C52   A    
H9    N7    S    
C28   O3    A    
C49   C53   A    
C33   C35   A    
C32   N8    S    
C14   H22   S    
C40   N1    A    
C10   C11   A    
C1    O8    A    
C41   H17   S    
C28   O2    A    
C20   C21   A    
C14   C15   A    
C3    C22   A    
H28   N2    S    
C17   N7    S    
C17   C54   A    
Cu2   O12   S    
Cu1   O9    S    
C16   O11   A    
H16   N9    S    
