data_mof_unit_14159.cif
_audit_creation_date              2012-12-11T14:27:07-0500
_audit_creation_method            fapswitch 2.2
_symmetry_space_group_name_H-M    P1
_symmetry_Int_Tables_number       1
_space_group_crystal_system       triclinic
_cell_length_a                    15.088668
_cell_length_b                    15.00546
_cell_length_c                    15.022452
_cell_angle_alpha                 110.368437
_cell_angle_beta                  109.581864
_cell_angle_gamma                 109.324233
_cell_volume                      2589.93267624

loop_
_atom_site_label
_atom_site_type_symbol
_atom_type_description
_atom_site_fract_x
_atom_site_fract_y
_atom_site_fract_z
_atom_type_partial_charge
C1    C     C_R   0.950081 0.767007 0.044900 -0.122575
C2    C     C_R   0.216342 0.795899 0.308879 0.465118
C3    C     C_R   0.956703 0.408373 0.221332 -0.110211
C4    C     C_R   0.780186 0.256664 0.687412 -0.153452
C5    C     C_R   0.315361 0.592125 0.046416 0.034902
C6    C     C_R   0.017031 0.501822 0.325094 0.138205
C7    C     C_R   0.326914 0.500132 0.029552 -0.055540
C8    C     C_R   0.310958 0.859235 0.313847 -0.230250
C9    C     C_R   0.928425 0.130816 0.922782 0.138808
C10   C     C_3   0.524158 0.387698 0.052053 -0.405841
C11   C     C_3   0.418595 0.387590 0.038695 -0.389740
C12   C     C_R   0.679138 0.234116 0.676055 0.132733
C13   C     C_3   0.634316 0.596003 0.177716 -0.157978
C14   C     C_3   0.551802 0.508545 0.969986 -0.420634
C15   C     C_3   0.606065 0.497514 0.070261 0.313745
C16   C     C_R   0.094763 0.587140 0.791211 -0.195840
C17   C     C_3   0.428141 0.497745 0.048561 0.321327
C18   C     C_3   0.527419 0.595276 0.165611 -0.150375
C19   C     C_3   0.446815 0.506108 0.955760 -0.437771
C20   C     C_2   0.387138 0.051170 0.457386 -0.139599
C21   C     C_2   0.400587 0.970630 0.399683 -0.175222
C22   C     C_2   0.482032 0.150141 0.560559 -0.141985
C23   C     C_R   0.067087 0.492682 0.700381 0.134978
C24   C     C_2   0.581224 0.187669 0.571766 -0.184943
C25   C     C_2   0.043992 0.402197 0.517568 0.605584
C26   C     C_2   0.105153 0.487487 0.622642 -0.361071
C27   C     C_2   0.062797 0.425186 0.436981 -0.333561
C28   C     C_R   0.703999 0.408164 0.007685 -0.154599
C29   C     C_2   0.047006 0.504427 0.427461 -0.185897
C30   C     C_2   0.930578 0.962944 0.839588 -0.112163
C31   C     C_2   0.880015 0.012367 0.874327 -0.179550
C32   C     C_2   0.933445 0.875272 0.859846 -0.198433
C33   C     C_2   0.954552 0.883388 0.958004 0.036623
C34   C     C_R   0.703861 0.498867 0.072018 0.021891
C35   C     C_R   0.009524 0.404818 0.706386 0.117172
C36   C     C_R   0.793023 0.590815 0.098515 -0.138361
C37   C     C_R   0.688363 0.256564 0.777657 -0.118552
C38   C     C_R   0.039689 0.764365 0.951024 -0.144454
C39   C     C_R   0.976339 0.804090 0.979639 0.056817
C40   C     C_3   0.328192 0.930349 0.159803 0.312181
C41   C     C_3   0.338823 0.940942 0.066340 -0.942494
C42   C     C_3   0.252652 0.852195 0.485855 0.244014
C43   C     C_3   0.219416 0.899546 0.567926 -0.936546
C44   C     C_1   0.390905 0.692088 0.060816 0.096462
C45   C     C_R   0.037067 0.592081 0.313472 -0.157055
C46   C     C_1   0.698686 0.596328 0.277371 0.077697
C47   C     C_1   0.506414 0.592639 0.254595 0.075807
C48   C     C_3   0.904627 0.220616 0.381208 0.271457
C49   C     C_3   0.807785 0.123176 0.359573 -0.896822
C50   C     C_1   0.969896 0.975185 0.050037 0.056161
C51   C     C_1   0.011921 0.303465 0.669338 0.082647
C52   C     C_R   0.223531 0.407676 0.964396 -0.151800
C53   C     C_R   0.300897 0.801749 0.213350 0.468693
C54   C     C_R   0.903434 0.195129 0.989333 -0.145364
C55   C     C_R   0.994943 0.195931 0.899919 -0.130020
H1    H     H_    0.905251 0.786128 0.084307 0.102235
H2    H     H_    0.401967 0.375376 0.101540 0.166642
H3    H     H_    0.607653 0.587241 0.981079 0.161561
H4    H     H_    0.533570 0.440124 0.892888 0.173796
H5    H     H_    0.377389 0.434165 0.873692 0.174669
H6    H     H_    0.451536 0.580726 0.954291 0.163788
H7    H     H_    0.687333 0.674559 0.186958 0.092132
H8    H     H_    0.539755 0.675282 0.174265 0.104970
H9    H     H_    0.306088 0.036098 0.440177 0.177614
H10   H     H_    0.154610 0.670490 0.821366 0.111897
H11   H     H_    0.481226 0.983657 0.417617 0.158609
H12   H     H_    0.200090 0.321788 0.928145 0.106527
H13   H     H_    0.472161 0.176991 0.631815 0.126047
H14   H     H_    0.589096 0.165470 0.498926 0.136819
H15   H     H_    0.175456 0.561984 0.646516 0.124843
H16   H     H_    0.063094 0.363909 0.371900 0.126846
H17   H     H_    0.045271 0.565499 0.491427 0.139060
H18   H     H_    0.988767 0.999870 0.817998 0.124596
H19   H     H_    0.819611 0.971764 0.892142 0.139479
H20   H     H_    0.931799 0.809021 0.797799 0.134941
H21   H     H_    0.651781 0.322944 0.979327 0.090390
H22   H     H_    0.821729 0.676393 0.152654 0.095057
H23   H     H_    0.840881 0.165182 0.008651 0.091358
H24   H     H_    0.625227 0.249193 0.798089 0.090087
H25   H     H_    0.077956 0.782022 0.905230 0.108080
H26   H     H_    0.065531 0.673583 0.375653 0.159861
H27   H     H_    0.387120 0.011708 0.237211 0.114117
H28   H     H_    0.243900 0.909609 0.142515 0.087221
H29   H     H_    0.283278 0.860153 0.987941 0.248874
H30   H     H_    0.317046 0.002204 0.056830 0.214015
H31   H     H_    0.424065 0.968604 0.084510 0.262970
H32   H     H_    0.339475 0.911478 0.521037 0.120925
H33   H     H_    0.248035 0.774478 0.479499 0.084757
H34   H     H_    0.014680 0.167317 0.836557 0.092604
H35   H     H_    0.133415 0.841926 0.538306 0.255134
H36   H     H_    0.272770 0.913249 0.649025 0.213920
H37   H     H_    0.228028 0.979594 0.578626 0.258159
H38   H     H_    0.968250 0.198248 0.382174 0.085437
H39   H     H_    0.875441 0.236151 0.312730 0.102229
H40   H     H_    0.742910 0.143122 0.358398 0.256481
H41   H     H_    0.774215 0.049912 0.278552 0.212049
H42   H     H_    0.833540 0.103201 0.424958 0.256725
H43   H     H_    0.920759 0.323001 0.199224 0.089219
H44   H     H_    0.560737 0.376515 0.122157 0.166565
H45   H     H_    0.501884 0.315586 0.975801 0.152555
H46   H     H_    0.350400 0.315857 0.956316 0.152010
H47   H     H_    0.800789 0.249137 0.623909 0.125708
N1    N     N_R   0.993980 0.704500 0.053430 -0.045616
N2    N     N_R   0.053690 0.556380 0.849240 -0.048359
N3    N     N_R   0.790390 0.443640 0.997160 -0.036718
N4    N     N_R   0.998260 0.443670 0.792970 -0.081506
N5    N     N_R   0.845830 0.556350 0.053430 -0.033284
N6    N     N_R   0.792820 0.295510 0.849240 -0.045245
N7    N     N_R   0.051260 0.704510 0.997160 -0.044237
N8    N     N_R   0.001740 0.556330 0.207030 -0.037413
N9    N     N_1   0.452563 0.770657 0.070461 -0.067880
N10   N     N_1   0.749099 0.596550 0.354994 -0.087651
N11   N     N_1   0.489807 0.590593 0.323888 -0.089311
N12   N     N_R   0.154170 0.443650 0.946570 -0.051736
N13   N     N_1   0.982323 0.048156 0.123694 -0.110409
N14   N     N_1   0.014323 0.222473 0.640487 -0.109252
N15   N     N_R   0.207180 0.704490 0.150760 -0.123789
N16   N     N_R   0.948740 0.295490 0.002840 -0.043456
N17   N     N_R   0.006020 0.295500 0.946570 -0.043393
N18   N     N_R   0.149890 0.704480 0.207030 -0.119288
N19   N     N_R   0.946310 0.443620 0.150760 -0.046711
N20   N     N_R   0.209610 0.556360 0.002840 -0.052959
N21   N     N_R   0.850110 0.295520 0.792970 -0.045358
Ni1   Ni    Ni4+2 0.997880 0.629240 0.129060 0.240670
Ni2   Ni    Ni4+2 0.002120 0.370760 0.870940 0.210313
Ni3   Ni    Ni4+2 0.129260 0.629260 0.000000 0.228149
Ni4   Ni    Ni4+2 0.870740 0.370740 0.000000 0.204252
O1    O     O_3   0.353502 0.849993 0.168938 -0.631354
O2    O     O_3   0.182497 0.832907 0.381885 -0.633981
O3    O     O_3   0.944883 0.313847 0.483275 -0.632385

loop_
_geom_bond_atom_site_label_1
_geom_bond_atom_site_label_2
_ccdc_geom_bond_type
N20   Ni3   S    
C6    C45   A    
C46   N10   T    
C21   H11   S    
C27   C29   D    
C3    C6    A    
C18   C47   S    
C32   H20   S    
N2    N4    A    
C55   N17   A    
C41   H31   S    
C37   H24   S    
N4    Ni2   S    
C33   C39   S    
C48   H39   S    
C13   C18   S    
C1    H1    S    
C7    C52   A    
N19   Ni4   S    
C10   C15   S    
N8    N19   A    
C30   C31   D    
C53   N15   A    
C18   H8    S    
N21   Ni2   S    
C25   O3    S    
C40   O1    S    
C2    O2    S    
C50   N13   T    
C23   C26   S    
C12   C37   A    
N16   N17   A    
N8    Ni1   S    
N12   Ni2   S    
C16   N2    A    
C13   H7    S    
C7    C17   S    
C4    H47   S    
C9    C55   A    
C4    C12   A    
N15   Ni3   S    
C1    N1    A    
C15   C34   S    
C29   H17   S    
C28   C34   A    
C49   H41   S    
C36   N5    A    
C40   H28   S    
C48   O3    S    
N5    Ni1   S    
N1    Ni1   S    
C24   H14   S    
C8    C21   S    
C16   H10   S    
C38   C39   A    
C14   H3    S    
C45   H26   S    
C43   H35   S    
C48   H38   S    
N3    Ni4   S    
C40   H27   S    
C37   N6    A    
N15   N18   A    
C5    C7    A    
C30   H18   S    
C2    N18   A    
C45   N8    A    
C31   H19   S    
C33   C50   S    
C41   H29   S    
C5    N20   A    
C43   H36   S    
C4    N21   A    
C20   H9    S    
C14   H4    S    
C53   O1    S    
N3    N5    A    
C1    C39   A    
C28   N3    A    
C17   C18   S    
C11   H46   S    
C49   H40   S    
C38   N7    A    
C10   H45   S    
C22   H13   S    
C52   H12   S    
N17   Ni2   S    
C48   C49   S    
C5    C44   S    
C20   C22   S    
C16   C23   A    
C23   C35   A    
C54   N16   A    
C35   C51   S    
C26   H15   S    
C22   C24   D    
C42   H33   S    
C42   C43   S    
N6    N21   A    
C28   H21   S    
C27   H16   S    
C47   N11   T    
C11   C17   S    
C14   C19   S    
C2    C8    A    
C51   N14   T    
C8    C53   A    
C42   H32   S    
C52   N12   A    
C19   H5    S    
C25   C27   S    
C41   H30   S    
C12   C24   S    
C43   H37   S    
N1    N7    A    
C36   H22   S    
C32   C33   D    
C13   C15   S    
C25   C26   D    
C55   H34   S    
C35   N4    A    
C30   C32   S    
C3    H43   S    
C13   C46   S    
C38   H25   S    
C19   H6    S    
C17   C19   S    
C42   O2    S    
C34   C36   A    
N6    Ni4   S    
C10   H44   S    
C10   C11   S    
C9    C31   S    
C49   H42   S    
N12   N20   A    
C44   N9    T    
C3    N19   A    
N7    Ni3   S    
C6    C29   S    
N2    Ni3   S    
C20   C21   D    
N16   Ni4   S    
C14   C15   S    
C40   C41   S    
C9    C54   A    
C11   H2    S    
N18   Ni1   S    
C54   H23   S    
