data_mof_unit_46855.cif
_audit_creation_date              2012-12-11T15:57:44-0500
_audit_creation_method            fapswitch 2.2
_symmetry_space_group_name_H-M    P1
_symmetry_Int_Tables_number       1
_space_group_crystal_system       triclinic
_cell_length_a                    10.759175
_cell_length_b                    10.79799
_cell_length_c                    17.116228
_cell_angle_alpha                 100.088281
_cell_angle_beta                  99.598068
_cell_angle_gamma                 61.584915
_cell_volume                      1713.9076485

loop_
_atom_site_label
_atom_site_type_symbol
_atom_type_description
_atom_site_fract_x
_atom_site_fract_y
_atom_site_fract_z
_atom_type_partial_charge
C1    C     C_R   0.352469 0.782352 0.406751 0.541802
C2    C     C_2   0.952047 0.282362 0.181271 0.132854
C3    C     C_2   0.912367 0.196473 0.209783 -0.034158
C4    C     C_2   0.894743 0.217434 0.294718 -0.112318
C5    C     C_2   0.329955 0.866570 0.344234 -0.107563
C6    C     C_2   0.326828 0.832556 0.160978 0.011494
C7    C     C_2   0.414834 0.860213 0.219821 0.143282
C8    C     C_2   0.436696 0.820178 0.298826 -0.098073
C9    C     C_2   0.307983 0.319182 0.641473 -0.105443
C10   C     C_2   0.315718 0.309893 0.811892 -0.094386
C11   C     C_2   0.361496 0.195363 0.757223 -0.145633
C12   C     C_R   0.371589 0.345680 0.357151 0.580907
C13   C     C_2   0.384117 0.201780 0.677229 -0.152937
C14   C     C_1   0.816733 0.342813 0.708889 -0.031101
C15   C     C_1   0.844787 0.313017 0.776089 -0.031455
C16   C     C_1   0.357391 0.765885 0.713221 -0.042419
C17   C     C_1   0.324682 0.812769 0.780022 -0.044915
C18   C     C_R   0.963845 0.280289 0.097318 0.602557
C19   C     C_R   0.318442 0.297742 0.120096 0.552082
C20   C     C_R   0.291004 0.894399 0.085241 0.571668
C21   C     C_R   0.887134 0.296042 0.858223 0.559850
C22   C     C_R   0.304243 0.287662 0.890540 0.548856
C23   C     C_R   0.772656 0.379085 0.404304 0.547311
C24   C     C_R   0.279866 0.881732 0.856949 0.549104
C25   C     C_R   0.380500 0.715694 0.631229 0.553609
C26   C     C_R   0.365932 0.346263 0.579895 0.552005
C27   C     C_R   0.771641 0.382142 0.630050 0.544656
C28   C     C_1   0.348471 0.330108 0.273952 0.023757
C29   C     C_1   0.334410 0.320982 0.203267 0.012896
C30   C     C_2   0.816220 0.348310 0.326470 -0.055679
Cr1   Cr    Cr6+3 0.608020 0.610770 0.522990 1.040024
Cr2   Cr    Cr6+3 0.289390 0.599570 0.488050 1.037638
Cr3   Cr    Cr6+3 0.602610 0.289690 0.489020 1.041681
Cr4   Cr    Cr6+3 0.053780 0.052210 0.965970 1.009627
Cr5   Cr    Cr6+3 0.060060 0.372530 0.992430 1.034600
Cr6   Cr    Cr6+3 0.372600 0.061970 0.991430 1.040828
H1    H     H_    0.474711 0.112233 0.651169 0.166713
H2    H     H_    0.280695 0.416522 0.797943 0.094999
H3    H     H_    0.212463 0.405018 0.665221 0.115516
H4    H     H_    0.933531 0.128052 0.328822 0.124014
H5    H     H_    0.768781 0.437102 0.290998 0.144918
H6    H     H_    0.542418 0.738258 0.315799 0.164406
H7    H     H_    0.224546 0.949025 0.328265 0.104832
H8    H     H_    0.395438 0.090079 0.773344 0.163161
O1    O     O_R   0.749250 0.499990 0.439200 -0.498424
O2    O     O_R   0.299400 0.468710 0.556310 -0.507172
O3    O     O_R   0.489240 0.256450 0.560730 -0.507541
O4    O     O_R   0.723350 0.306730 0.584410 -0.497019
O5    O     O_3   0.500010 0.500010 0.500020 -0.287100
O6    O     O_R   0.170650 0.915100 0.051290 -0.567336
O7    O     O_R   0.941960 0.184500 0.049060 -0.540796
O8    O     O_R   0.922640 0.402670 0.071640 -0.473869
O9    O     O_R   0.196880 0.368740 0.083740 -0.507860
O10   O     O_R   0.411120 0.181190 0.091480 -0.485359
O11   O     O_R   0.364220 0.944920 0.062310 -0.447361
O12   O     O_R   0.477870 0.725740 0.440280 -0.495912
O13   O     O_R   0.158740 0.906940 0.874970 -0.500494
O14   O     O_R   0.930920 0.176940 0.885610 -0.486392
O15   O     O_R   0.910730 0.394510 0.895320 -0.506926
O16   O     O_R   0.185840 0.361180 0.920280 -0.497872
O17   O     O_R   0.399210 0.173040 0.915160 -0.515976
O18   O     O_R   0.353170 0.937370 0.898860 -0.501827
O19   O     O_3   0.162150 0.162240 0.983280 -0.282983
O20   O     O_R   0.260770 0.742210 0.412610 -0.518394
O21   O     O_R   0.297990 0.466320 0.394220 -0.501132
O22   O     O_R   0.487720 0.253870 0.385870 -0.488924
O23   O     O_R   0.721940 0.304340 0.422320 -0.504716
O24   O     O_R   0.750770 0.502570 0.614050 -0.509035
O25   O     O_R   0.479280 0.728140 0.602370 -0.493344
O26   O     O_R   0.262290 0.744790 0.587460 -0.498780
C31   C     C_3   0.866925 0.093650 0.155623 -0.264823
C32   C     C_3   0.822100 0.007143 0.195709 -0.308309
C33   C     C_3   0.807165 0.891731 0.134666 -0.399415
H9    H     H_    0.711696 0.939874 0.091980 0.196394
H10   H     H_    0.901445 0.831573 0.100459 0.121074
H11   H     H_    0.798345 0.814574 0.165562 0.208537
H12   H     H_    0.902569 0.955716 0.244438 0.152571
H13   H     H_    0.719716 0.078043 0.221404 0.222761
H14   H     H_    0.775772 0.154212 0.113094 0.177052
H15   H     H_    0.957631 0.016307 0.122488 0.192933
Br1   Br    Br    0.013249 0.408888 0.250226 -0.591960
Br2   Br    Br    0.522074 0.954715 0.211785 -0.540660
C34   C     C_3   0.217423 0.789660 0.178675 -0.278126
C35   C     C_3   0.265916 0.651918 0.213753 -0.315595
C36   C     C_3   0.134303 0.660450 0.242936 -0.388275
H16   H     H_    0.082496 0.757957 0.283953 0.163883
H17   H     H_    0.058001 0.656302 0.191599 0.174187
H18   H     H_    0.159830 0.575144 0.277783 0.213223
H19   H     H_    0.307490 0.562902 0.166065 0.153312
H20   H     H_    0.351520 0.630581 0.262780 0.171537
H21   H     H_    0.141419 0.881038 0.215268 0.135344
H22   H     H_    0.151165 0.776819 0.124002 0.171338

loop_
_geom_bond_atom_site_label_1
_geom_bond_atom_site_label_2
_ccdc_geom_bond_type
C27   O4    A    
C23   O1    A    
C2    C18   S    
C33   H9    S    
C31   H14   S    
C18   O8    A    
C7    C8    S    
C36   H16   S    
C10   C22   S    
C34   H22   S    
Cr4   O7    S    
C12   C28   S    
C1    C5    S    
C28   C29   T    
C1    O12   A    
C8    H6    S    
C21   O15   A    
C22   O16   A    
Cr5   O9    S    
Cr3   O5    S    
C9    H3    S    
Cr5   O15   S    
C23   O23   A    
C9    C13   D    
C20   O6    A    
C27   O24   A    
C4    H4    S    
C24   O13   A    
Cr3   O22   S    
Cr4   O13   S    
C32   H13   S    
C30   H5    S    
Cr1   O12   S    
Cr6   O19   S    
C14   C27   S    
C13   H1    S    
C19   O9    A    
C5    H7    S    
C33   H10   S    
C35   H20   S    
Cr1   O5    S    
C20   O11   A    
Cr6   O18   S    
C31   H15   S    
C9    C26   S    
C36   H17   S    
Cr1   O24   S    
Cr4   O6    S    
C17   C24   S    
C23   C30   S    
C35   C36   S    
Cr2   O20   S    
C16   C17   T    
Cr2   O26   S    
C12   O22   A    
Cr5   O16   S    
C3    C31   S    
C32   H12   S    
C34   C35   S    
C15   C21   S    
C11   H8    S    
C26   O3    A    
C19   O10   A    
Cr3   O3    S    
C33   H11   S    
C25   O25   A    
C35   H19   S    
Cr6   O17   S    
C19   C29   S    
C1    O20   A    
C34   H21   S    
Cr3   O23   S    
C36   H18   S    
C16   C25   S    
C24   O18   A    
C6    C34   S    
Cr2   O2    S    
C32   C33   S    
C5    C8    D    
C6    C7    D    
C18   O7    A    
C6    C20   S    
C12   O21   A    
C10   H2    S    
C2    C3    D    
C21   O14   A    
Cr6   O11   S    
C22   O17   A    
C11   C13   S    
Cr4   O19   S    
Cr2   O5    S    
Cr6   O10   S    
C10   C11   D    
C26   O2    A    
Cr1   O25   S    
C7    Br2   S    
C31   C32   S    
Cr1   O1    S    
Cr5   O8    S    
Cr4   O14   S    
Cr3   O4    S    
C14   C15   T    
C2    Br1   S    
Cr5   O19   S    
C25   O26   A    
C4    C30   D    
C3    C4    S    
Cr2   O21   S    
