data_mof_unit_25772.cif
_audit_creation_date              2013-03-05T15:50:58-0500
_audit_creation_method            fapswitch 2.2
_symmetry_space_group_name_H-M    P1
_symmetry_Int_Tables_number       1
_space_group_crystal_system       triclinic
_cell_length_a                    11.703258
_cell_length_b                    10.863828
_cell_length_c                    9.614957
_cell_angle_alpha                 90.71225
_cell_angle_beta                  90.035429
_cell_angle_gamma                 93.125466
_cell_volume                      1220.55289461

loop_
_atom_site_label
_atom_site_type_symbol
_atom_site_description
_atom_site_fract_x
_atom_site_fract_y
_atom_site_fract_z
_atom_type_partial_charge
O1    O     O_R   0.499990 0.319640 0.618810 -0.554290
O2    O     O_R   0.500000 0.319660 0.381240 -0.551613
C1    C     C_R   0.510676 0.263630 0.499898 0.828813
O3    O     O_R   0.337190 0.500000 0.618790 -0.535992
O4    O     O_R   0.337200 0.500030 0.381210 -0.531983
C2    C     C_R   0.284158 0.499531 0.499962 0.859044
Cu1   Cu    Cu3+1 0.499990 0.499990 0.640660 0.980876
Cu2   Cu    Cu3+1 0.500010 0.500010 0.359340 0.993531
O5    O     O_R   0.500000 0.680340 0.618760 -0.622389
O6    O     O_R   0.500010 0.680360 0.381190 -0.603955
O7    O     O_R   0.662800 0.499970 0.618790 -0.600989
O8    O     O_R   0.662810 0.500000 0.381210 -0.592987
C3    C     C_R   0.495907 0.737849 0.501976 0.758507
C4    C     C_R   0.715849 0.500425 0.500049 0.772593
C5    C     C_1   0.162417 0.499691 0.499929 -0.091139
C6    C     C_1   0.059915 0.499916 0.499992 0.048337
C7    C     C_1   0.940083 0.500211 0.500090 0.022215
C8    C     C_1   0.837581 0.500382 0.500122 -0.160353
H1    H     H_    0.501518 0.107602 0.279396 0.205647
C9    C     C_R   0.589744 0.127831 0.748417 -0.108221
H2    H     H_    0.634228 0.217546 0.743761 0.148155
C10   C     C_R   0.582080 0.071525 0.877620 -0.092040
H3    H     H_    0.615742 0.119388 0.969516 0.136108
C11   C     C_R   0.526255 0.956113 0.889023 -0.104468
H4    H     H_    0.513557 0.915250 0.990386 0.141218
C12   C     C_R   0.489081 0.891674 0.769557 -0.151840
H5    H     H_    0.441545 0.805489 0.786457 0.176972
C13   C     C_R   0.508292 0.941862 0.635294 0.089483
C14   C     C_R   0.541976 0.068198 0.628238 0.110326
C15   C     C_R   0.525254 0.130479 0.501724 -0.128735
C16   C     C_R   0.507512 0.062589 0.378534 -0.166855
H6    H     H_    0.487652 0.885990 0.282841 0.170104
C17   C     C_R   0.497000 0.935400 0.381126 -0.202522
C18   C     C_R   0.495517 0.873053 0.507947 -0.106076
C19   C     C_R   0.654674 0.662609 0.145895 -0.098250
H7    H     H_    0.660948 0.671554 0.255690 0.193195
C20   C     C_R   0.730285 0.741952 0.074717 -0.208971
H8    H     H_    0.788788 0.804810 0.131536 0.159070
C21   C     C_R   0.730374 0.741602 0.931373 -0.187927
H9    H     H_    0.788637 0.804473 0.876074 0.159672
C22   C     C_R   0.654597 0.662178 0.858283 -0.097822
H10   H     H_    0.659597 0.671571 0.748698 0.195487
C23   C     C_R   0.576453 0.579183 0.926361 0.108403
C24   C     C_R   0.576433 0.579264 0.075762 0.126247
N1    N     N_R   0.501070 0.501210 0.147910 -0.278152
C25   C     C_R   0.425129 0.426118 0.072805 0.320945
C26   C     C_R   0.425118 0.426161 0.924793 0.320320
N2    N     N_R   0.501110 0.501290 0.852040 -0.283859
N3    N     N_R   0.341169 0.349444 0.852152 0.175061
O9    O     O_R   0.358346 0.233114 0.834149 -0.323536
O10   O     O_R   0.237205 0.385348 0.843316 -0.318346
N4    N     N_R   0.341852 0.348558 0.142992 0.173363
O11   O     O_R   0.358194 0.231574 0.152197 -0.355612
O12   O     O_R   0.238252 0.384920 0.155707 -0.314767

loop_
_geom_bond_atom_site_label_1
_geom_bond_atom_site_label_2
_geom_bond_distance
_ccdc_geom_bond_type
O4    Cu2   1.917117 S    
C23   C24   1.436472 A    
C16   C17   1.381067 A    
C20   H8    1.082981 S    
C1    C15   1.466083 S    
C22   H10   1.061187 S    
C4    C8    1.424678 S    
C12   C13   1.420847 A    
C19   H7    1.061072 S    
Cu2   O8    1.916735 S    
H1    C16   1.080697 S    
Cu1   N2    2.032313 S    
C9    H2    1.081092 S    
C7    C8    1.199720 T    
O8    C4    1.299854 A    
C13   C18   1.430116 A    
C3    C18   1.469499 S    
C26   N3    1.429370 S    
O1    Cu1   1.967924 S    
N1    C25   1.371994 A    
H6    C17   1.083512 S    
Cu1   O7    1.917116 S    
C19   C24   1.416559 A    
C22   C23   1.415376 A    
C11   C12   1.394609 A    
C12   H5    1.076874 S    
C14   C15   1.417881 A    
O3    Cu1   1.916737 S    
O4    C2    1.299904 A    
O3    C2    1.299700 A    
C13   C14   1.409644 A    
C19   C20   1.388034 A    
N4    O12   1.300861 A    
C17   C18   1.401863 A    
O2    C1    1.308876 A    
C9    C14   1.417230 A    
C15   C16   1.396902 A    
C20   C21   1.378207 A    
O7    C4    1.299852 A    
C10   C11   1.387479 A    
Cu2   N1    2.033135 S    
C9    C10   1.392311 A    
C5    C6    1.199742 T    
C25   N4    1.428521 S    
Cu1   Cu2   2.704883 S    
C11   H4    1.082930 S    
C21   C22   1.387652 A    
Cu2   O6    1.967924 S    
N3    O9    1.299943 A    
C23   N2    1.380961 A    
C21   H9    1.082982 S    
Cu1   O5    1.973168 S    
O5    C3    1.293876 A    
C25   C26   1.423130 A    
O1    C1    1.297801 A    
C2    C5    1.424858 S    
C10   H3    1.082636 S    
O2    Cu2   1.973168 S    
C24   N1    1.382750 A    
C26   N2    1.371948 A    
N4    O11   1.299561 A    
C6    C7    1.402600 S    
N3    O10   1.300851 A    
O6    C3    1.313928 A    
