data_mof_unit_44811.cif
_audit_creation_date              2012-12-10T17:20:26-0500
_audit_creation_method            fapswitch 2.2
_symmetry_space_group_name_H-M    P1
_symmetry_Int_Tables_number       1
_space_group_crystal_system       triclinic
_cell_length_a                    11.689185
_cell_length_b                    10.845301
_cell_length_c                    9.638849
_cell_angle_alpha                 91.271104
_cell_angle_beta                  90.410816
_cell_angle_gamma                 95.212909
_cell_volume                      1216.5379605

loop_
_atom_site_label
_atom_site_type_symbol
_atom_type_description
_atom_site_fract_x
_atom_site_fract_y
_atom_site_fract_z
_atom_type_partial_charge
C1    C     C_R   0.487966 0.261920 0.498561 0.844425
C2    C     C_R   0.182625 0.009141 0.608012 -0.037310
C3    C     C_R   0.198515 0.887211 0.634265 -0.154762
C4    C     C_R   0.301563 0.841274 0.599809 -0.176240
C5    C     C_R   0.394479 0.919185 0.547310 0.091090
C6    C     C_R   0.382677 0.047309 0.532128 0.033712
C7    C     C_R   0.481904 0.126384 0.495075 -0.122372
C8    C     C_R   0.586196 0.076900 0.470106 -0.133028
C9    C     C_R   0.596095 0.950174 0.477553 -0.059767
C10   C     C_R   0.498133 0.870840 0.508522 -0.133082
C11   C     C_R   0.662484 0.661400 0.147293 -0.240696
C12   C     C_R   0.285360 0.508944 0.499877 0.853816
C13   C     C_R   0.746385 0.734399 0.076423 0.233185
C14   C     C_R   0.742975 0.736662 0.932430 0.233504
C15   C     C_R   0.658405 0.662857 0.860213 -0.235356
C16   C     C_R   0.578172 0.580161 0.927699 0.161986
C17   C     C_R   0.578984 0.579870 0.076816 0.173603
C18   C     C_R   0.423714 0.423411 0.069109 0.031925
C19   C     C_R   0.425076 0.424361 0.921537 0.014315
C20   C     C_R   0.503334 0.737372 0.501994 0.720330
C21   C     C_R   0.715944 0.502084 0.500445 0.799867
C22   C     C_1   0.163871 0.514779 0.499575 -0.103947
C23   C     C_1   0.061303 0.515479 0.500096 0.070338
C24   C     C_1   0.941104 0.512204 0.500912 0.070459
C25   C     C_1   0.838178 0.507582 0.501189 -0.118610
C26   C     C_R   0.271158 0.087396 0.552051 0.203229
Cu1   Cu    Cu3+1 0.499990 0.499990 0.640660 0.968385
Cu2   Cu    Cu3+1 0.500010 0.500010 0.359340 0.960688
H1    H     H_    0.661582 0.139046 0.447872 0.186040
H2    H     H_    0.659726 0.672812 0.750866 0.220143
H3    H     H_    0.364962 0.362653 0.861153 0.187842
H4    H     H_    0.098390 0.040967 0.623958 0.209656
H5    H     H_    0.128757 0.826339 0.674949 0.191415
H6    H     H_    0.307152 0.744310 0.616884 0.157065
H7    H     H_    0.666581 0.671543 0.257192 0.207671
N1    N     N_R   0.501070 0.501210 0.147910 -0.225840
N2    N     N_R   0.501110 0.501290 0.852040 -0.209162
O1    O     O_R   0.499990 0.319640 0.618810 -0.555224
O2    O     O_R   0.500000 0.319660 0.381240 -0.593358
O3    O     O_R   0.337190 0.500000 0.618790 -0.569476
O4    O     O_R   0.337200 0.500030 0.381210 -0.581150
O5    O     O_R   0.500000 0.680340 0.618760 -0.600659
O6    O     O_R   0.500010 0.680360 0.381190 -0.583638
O7    O     O_R   0.662800 0.499970 0.618790 -0.580376
O8    O     O_R   0.662810 0.500000 0.381210 -0.582160
Br1   Br    Br    0.852473 0.839505 0.828833 -0.442053
Br2   Br    Br    0.218392 0.227863 0.469712 -0.529394
C27   C     C_2   0.711077 0.903097 0.463958 0.478479
H8    H     H_    0.720669 0.804643 0.466164 0.033928
O9    O     O_2   0.797602 0.974377 0.454080 -0.470258
C28   C     C_2   0.336958 0.335438 0.133868 0.425391
H9    H     H_    0.338639 0.319010 0.242367 0.170180
O10   O     O_2   0.260926 0.278174 0.064675 -0.521781
Br3   Br    Br    0.867240 0.827393 0.179116 -0.372968

loop_
_geom_bond_atom_site_label_1
_geom_bond_atom_site_label_2
_ccdc_geom_bond_type
C12   O3    A    
C20   O5    A    
C23   C24   S    
C12   O4    A    
C17   N1    A    
C21   O7    A    
C9    C10   A    
C16   N2    A    
Cu2   O6    S    
C15   H2    S    
Cu1   O3    S    
C19   H3    S    
C27   O9    D    
C2    C3    A    
C5    C10   A    
C2    C26   A    
C13   C14   A    
C11   C13   A    
Cu1   O5    S    
C6    C26   A    
C26   Br2   S    
Cu1   N2    S    
C8    H1    S    
C1    O1    A    
C11   H7    S    
C27   H8    S    
C18   C28   S    
C18   C19   A    
C6    C7    A    
C21   O8    A    
C22   C23   T    
C5    C6    A    
C4    H6    S    
Cu2   O8    S    
C16   C17   A    
C3    H5    S    
Cu1   O1    S    
C15   C16   A    
C12   C22   S    
Cu2   O4    S    
C7    C8    A    
C20   O6    A    
C24   C25   T    
Cu2   N1    S    
C9    C27   S    
C2    H4    S    
C13   Br3   S    
Cu1   Cu2   S    
C1    O2    A    
C14   C15   A    
C4    C5    A    
C21   C25   S    
C19   N2    A    
Cu2   O2    S    
C28   O10   D    
C1    C7    S    
C18   N1    A    
Cu1   O7    S    
C11   C17   A    
C3    C4    A    
C28   H9    S    
C10   C20   S    
C8    C9    A    
C14   Br1   S    
