data_mof_unit_47500.cif
_audit_creation_date              2012-12-10T17:39:22-0500
_audit_creation_method            fapswitch 2.2
_symmetry_space_group_name_H-M    P1
_symmetry_Int_Tables_number       1
_space_group_crystal_system       triclinic
_cell_length_a                    12.312551
_cell_length_b                    13.140421
_cell_length_c                    27.812993
_cell_angle_alpha                 77.835778
_cell_angle_beta                  101.085064
_cell_angle_gamma                 116.526241
_cell_volume                      3910.95272972

loop_
_atom_site_label
_atom_site_type_symbol
_atom_type_description
_atom_site_fract_x
_atom_site_fract_y
_atom_site_fract_z
_atom_type_partial_charge
C1    C     C_R   0.854841 0.286496 0.503807 0.823767
C2    C     C_R   0.085447 0.482284 0.730776 -0.106254
C3    C     C_R   0.996456 0.504492 0.745486 0.362457
C4    C     C_R   0.996190 0.511487 0.896500 -0.057335
C5    C     C_R   0.902405 0.422764 0.871911 -0.008479
C6    C     C_R   0.809530 0.334845 0.897883 -0.157860
C7    C     C_R   0.089537 0.600972 0.869780 -0.065289
C8    C     C_R   0.997862 0.500528 0.645137 -0.032264
C9    C     C_R   0.002015 0.500155 0.354928 -0.089743
C10   C     C_R   0.896750 0.424144 0.024221 0.040532
C11   C     C_R   0.098853 0.589410 0.025035 0.049119
C12   C     C_R   0.999270 0.499865 0.592382 0.778545
C13   C     C_R   0.998493 0.505797 0.050040 0.068452
C14   C     C_R   0.795666 0.347449 0.050171 -0.208346
C15   C     C_R   0.796962 0.347935 0.100183 -0.147571
C16   C     C_R   0.898830 0.424789 0.126343 -0.022319
C17   C     C_R   0.999899 0.503900 0.101432 -0.045689
C18   C     C_R   0.102361 0.581170 0.128008 -0.023658
C19   C     C_R   0.101867 0.577921 0.178737 0.538105
C20   C     C_R   0.901478 0.425291 0.176984 0.535222
C21   C     C_R   0.001723 0.406414 0.288040 -0.181322
C22   C     C_R   0.998901 0.403312 0.338388 -0.075320
C23   C     C_R   0.145052 0.713659 0.493074 0.850388
C24   C     C_R   0.006275 0.597610 0.319877 -0.053712
C25   C     C_R   0.003631 0.595197 0.269640 -0.188190
C26   C     C_R   0.002506 0.500891 0.253738 0.358661
C27   C     C_R   0.899059 0.422134 0.973532 0.046195
C28   C     C_R   0.996305 0.509974 0.947830 0.067170
C29   C     C_R   0.093701 0.595884 0.973053 0.027726
C30   C     C_R   0.807697 0.334300 0.947610 -0.209098
C31   C     C_R   0.180092 0.692044 0.894535 0.001698
C32   C     C_R   0.202056 0.663060 0.053216 -0.208671
C33   C     C_R   0.203366 0.659101 0.103616 -0.147878
C34   C     C_R   0.000409 0.499704 0.407772 0.941792
C35   C     C_R   0.181609 0.687620 0.945228 -0.250934
C36   C     C_R   0.269952 0.025319 0.438669 -0.143162
C37   C     C_R   0.227313 0.835579 0.483492 -0.040503
C38   C     C_R   0.815785 0.082693 0.530509 -0.168488
C39   C     C_R   0.736908 0.967103 0.538022 -0.148909
C40   C     C_R   0.612933 0.931141 0.522187 -0.172584
C41   C     C_R   0.565389 0.010663 0.496504 0.077176
C42   C     C_R   0.648827 0.125435 0.483048 0.076935
C43   C     C_R   0.438250 0.979490 0.483098 0.053585
C44   C     C_R   0.396487 0.060211 0.452905 0.129022
C45   C     C_R   0.903970 0.422753 0.821724 0.528015
C46   C     C_R   0.482723 0.171072 0.435797 -0.034918
C47   C     C_R   0.606706 0.199008 0.448662 -0.261143
C48   C     C_R   0.351121 0.869904 0.499591 -0.248314
C49   C     C_R   0.186500 0.914190 0.453806 -0.151989
C50   C     C_R   0.772721 0.163427 0.504288 -0.051785
C51   C     C_R   0.346011 0.327581 0.578476 -0.292133
C52   C     C_R   0.759620 0.645496 0.433151 0.065201
C53   C     C_R   0.662904 0.676948 0.418566 -0.246181
C54   C     C_R   0.559220 0.621818 0.443592 -0.169626
C55   C     C_R   0.551089 0.534058 0.483840 0.007325
C56   C     C_R   0.088524 0.594866 0.819408 0.521851
C57   C     C_R   0.652804 0.504905 0.497498 0.283522
C58   C     C_R   0.446656 0.474581 0.511132 -0.014745
C59   C     C_R   0.446188 0.387275 0.551075 0.183146
C60   C     C_R   0.545924 0.360305 0.563742 -0.273520
C61   C     C_R   0.646994 0.418170 0.537790 -0.190837
C62   C     C_R   0.341953 0.497672 0.500865 0.046132
C63   C     C_R   0.246364 0.354613 0.566542 0.076693
C64   C     C_R   0.907779 0.524081 0.710050 -0.114786
C65   C     C_R   0.908285 0.522037 0.660199 -0.227344
C66   C     C_R   0.086283 0.480330 0.680921 -0.223257
Cu1   Cu    Cu3+1 0.098270 0.475420 0.511360 0.974912
Cu2   Cu    Cu3+1 0.901730 0.524580 0.488640 0.947076
H1    H     H_    0.156237 0.463301 0.670451 0.157256
H2    H     H_    0.838814 0.541415 0.721192 0.138426
H3    H     H_    0.285159 0.723007 0.037673 0.139645
H4    H     H_    0.284429 0.717726 0.123427 0.186035
H5    H     H_    0.005334 0.668298 0.242494 0.137958
H6    H     H_    0.250435 0.760942 0.961681 0.140274
H7    H     H_    0.090585 0.888511 0.440537 0.169741
H8    H     H_    0.233770 0.080771 0.413927 0.188101
H9    H     H_    0.153967 0.466612 0.758042 0.140150
H10   H     H_    0.377019 0.808336 0.524968 0.147136
H11   H     H_    0.910353 0.109090 0.546151 0.153511
H12   H     H_    0.557726 0.840091 0.529658 0.128910
H13   H     H_    0.771374 0.905210 0.557707 0.144533
H14   H     H_    0.670133 0.280115 0.431124 0.177308
H15   H     H_    0.168624 0.308888 0.587504 0.117945
H16   H     H_    0.546357 0.293954 0.594401 0.156663
H17   H     H_    0.344959 0.260616 0.609012 0.138721
H18   H     H_    0.334231 0.562369 0.471191 0.124320
H19   H     H_    0.839760 0.688844 0.413549 0.156599
H20   H     H_    0.737449 0.265097 0.879873 0.178293
H21   H     H_    0.487169 0.649667 0.430706 0.144184
H22   H     H_    0.668338 0.744329 0.387761 0.157478
H23   H     H_    0.718865 0.391938 0.551012 0.206363
H24   H     H_    0.000354 0.333702 0.274949 0.138351
H25   H     H_    0.717224 0.287416 0.118291 0.186329
H26   H     H_    0.712365 0.287325 0.032669 0.139331
H27   H     H_    0.734664 0.261627 0.964973 0.138325
H28   H     H_    0.838809 0.537658 0.633521 0.161771
N1    N     N_R   0.996255 0.507495 0.796742 -0.464299
N2    N     N_R   0.002066 0.501155 0.202069 -0.458176
N3    N     N_R   0.246290 0.438210 0.528570 -0.182729
N4    N     N_R   0.754320 0.561170 0.471730 -0.213415
O1    O     O_R   0.972510 0.318140 0.514280 -0.558504
O2    O     O_2   0.803924 0.351283 0.200891 -0.542431
O3    O     O_2   0.179098 0.674202 0.793147 -0.536251
O4    O     O_2   0.200538 0.650476 0.204630 -0.538734
O5    O     O_R   0.806530 0.359640 0.495100 -0.621204
O6    O     O_R   0.082990 0.479270 0.579320 -0.592087
O7    O     O_R   0.917010 0.520770 0.560140 -0.607425
O8    O     O_R   0.193470 0.640360 0.504900 -0.598729
O9    O     O_R   0.027490 0.681860 0.485720 -0.572629
O10   O     O_R   0.082990 0.479230 0.439860 -0.554242
O11   O     O_R   0.917010 0.520730 0.420680 -0.579340
O12   O     O_2   0.814716 0.337695 0.798104 -0.561573
C67   C     C_R   0.272399 0.797003 0.869089 0.175894
C68   C     C_R   0.237250 0.878402 0.837545 -0.081412
C69   C     C_R   0.325060 0.979161 0.814721 -0.130882
C70   C     C_R   0.448295 0.999656 0.823583 -0.104262
C71   C     C_R   0.483941 0.919463 0.855323 -0.131846
C72   C     C_R   0.396419 0.818534 0.878186 -0.134959
H29   H     H_    0.142098 0.863647 0.830711 0.118868
H30   H     H_    0.297635 0.041524 0.790297 0.128913
H31   H     H_    0.516194 0.077811 0.805988 0.149563
H32   H     H_    0.579434 0.935668 0.862310 0.137342
H33   H     H_    0.425035 0.757193 0.902892 0.127491
C73   C     C_2   0.017996 0.705835 0.333409 0.338054
H34   H     H_    0.990641 0.764397 0.305784 0.073616
O13   O     O_2   0.063401 0.733972 0.374240 -0.576101
C74   C     C_2   0.450273 0.263185 0.405505 0.348276
H35   H     H_    0.508625 0.323742 0.378000 0.082934
O14   O     O_2   0.364550 0.278102 0.413291 -0.550371
C75   C     C_2   0.988714 0.295183 0.371252 0.388888
H36   H     H_    0.016144 0.237226 0.359467 0.081574
O15   O     O_2   0.944811 0.266431 0.410330 -0.559734

loop_
_geom_bond_atom_site_label_1
_geom_bond_atom_site_label_2
_ccdc_geom_bond_type
C10   C27   A    
C58   C62   A    
C21   C26   A    
C35   H6    S    
C8    C66   A    
C11   C13   A    
C41   C42   A    
C43   C44   A    
C51   H17   S    
Cu2   N4    S    
C68   C69   A    
C45   O12   S    
C53   C54   A    
C62   H18   S    
C56   N1    A    
C28   C29   A    
C5    C6    A    
C9    C22   A    
C66   H1    S    
C20   O2    S    
C38   H11   S    
C69   C70   A    
C24   C73   S    
C6    H20   S    
C70   C71   A    
C18   C19   A    
C47   H14   S    
C48   H10   S    
C63   N3    A    
C36   H8    S    
C33   H4    S    
C46   C47   A    
C65   H28   S    
C16   C17   A    
C49   H7    S    
Cu2   O7    S    
C64   H2    S    
C43   C48   A    
C68   H29   S    
Cu1   N3    S    
Cu2   O9    S    
C59   C60   A    
C21   C22   A    
C22   C75   S    
C27   C30   A    
C34   O11   A    
C41   C43   A    
C7    C56   A    
C4    C7    A    
C42   C47   A    
C4    C28   A    
C19   N2    A    
C44   C46   A    
C32   H3    S    
C23   O9    A    
C7    C31   A    
C70   H31   S    
Cu1   Cu2   S    
C46   C74   S    
C51   C63   A    
C24   C25   A    
C39   H13   S    
C54   H21   S    
C10   C14   A    
C39   C40   A    
C58   C59   A    
C23   C37   S    
C57   N4    A    
C5    C45   A    
C52   N4    A    
C62   N3    A    
C63   H15   S    
C60   C61   A    
Cu2   O11   S    
C75   O15   D    
C71   H32   S    
C74   O14   D    
C30   H27   S    
C37   C49   A    
C19   O4    S    
C3    N1    S    
Cu1   O10   S    
C8    C12   S    
C40   H12   S    
C17   C18   A    
C9    C24   A    
C16   C20   A    
C37   C48   A    
C42   C50   A    
C40   C41   A    
C6    C30   A    
C26   N2    S    
C11   C32   A    
C55   C57   A    
C9    C34   S    
C34   O10   A    
C31   C35   A    
C36   C44   A    
C51   C59   A    
Cu2   O5    S    
C74   H35   S    
C1    O1    A    
C53   H22   S    
C52   C53   A    
Cu1   O1    S    
C73   O13   D    
C67   C68   A    
C1    C50   S    
C54   C55   A    
C52   H19   S    
C56   O3    S    
C4    C5    A    
C2    C66   A    
C10   C13   A    
C15   H25   S    
C12   O7    A    
Cu1   O6    S    
C57   C61   A    
C38   C50   A    
C29   C35   A    
C13   C17   A    
C64   C65   A    
C2    C3    A    
C25   C26   A    
C2    H9    S    
C45   N1    A    
C71   C72   A    
C32   C33   A    
C12   O6    A    
C60   H16   S    
C38   C39   A    
C23   O8    A    
C14   H26   S    
C75   H36   S    
C25   H5    S    
C72   H33   S    
C3    C64   A    
Cu1   O8    S    
C18   C33   A    
C67   C72   A    
C61   H23   S    
C8    C65   A    
C20   N2    A    
C11   C29   A    
C69   H30   S    
C55   C58   A    
C27   C28   A    
C14   C15   A    
C31   C67   S    
C36   C49   A    
C15   C16   A    
C1    O5    A    
C73   H34   S    
C21   H24   S    
