data_mof_unit_33555.cif
_audit_creation_date              2012-12-10T20:02:25-0500
_audit_creation_method            fapswitch 2.2
_symmetry_space_group_name_H-M    P1
_symmetry_Int_Tables_number       1
_space_group_crystal_system       triclinic
_cell_length_a                    10.68396
_cell_length_b                    14.987614
_cell_length_c                    14.148192
_cell_angle_alpha                 90.113805
_cell_angle_beta                  90.050876
_cell_angle_gamma                 89.867176
_cell_volume                      2265.49706866

loop_
_atom_site_label
_atom_site_type_symbol
_atom_type_description
_atom_site_fract_x
_atom_site_fract_y
_atom_site_fract_z
_atom_type_partial_charge
C1    C     C_R   0.498052 0.327558 0.499927 0.869788
C2    C     C_R   0.549454 0.815070 0.426785 -0.205527
C3    C     C_R   0.488845 0.231613 0.499741 -0.038343
C4    C     C_R   0.493038 0.767566 0.500031 -0.026632
C5    C     C_R   0.462821 0.186587 0.415173 -0.175689
C6    C     C_R   0.426709 0.811314 0.571575 -0.207013
C7    C     C_R   0.453835 0.094709 0.415020 -0.174840
C8    C     C_R   0.416757 0.903172 0.569870 -0.171971
C9    C     C_R   0.472644 0.047573 0.499091 0.112307
C10   C     C_R   0.475011 0.951145 0.497491 0.109760
C11   C     C_R   0.397216 0.470740 0.104121 -0.263819
C12   C     C_R   0.499532 0.672133 0.500073 0.860404
C13   C     C_R   0.522954 0.577365 0.895962 -0.266563
C14   C     C_R   0.398024 0.470889 0.203492 0.004025
C15   C     C_R   0.522261 0.576778 0.796585 -0.008297
C16   C     C_R   0.260054 0.502514 0.499899 0.877248
C17   C     C_R   0.739954 0.497935 0.500203 0.886417
C18   C     C_R   0.603544 0.528706 0.205229 -0.039645
C19   C     C_R   0.478786 0.422348 0.794952 -0.055240
C20   C     C_R   0.607886 0.528419 0.105729 0.313185
C21   C     C_R   0.480076 0.419474 0.894423 0.299696
C22   C     C_R   0.503022 0.499145 0.053300 0.077622
C23   C     C_R   0.872336 0.497526 0.500803 -0.077292
C24   C     C_R   0.502186 0.498222 0.946821 0.076454
C25   C     C_R   0.247377 0.740523 0.322591 -0.110644
C26   C     C_R   0.785454 0.253681 0.688419 -0.148209
C27   C     C_R   0.188781 0.685251 0.388383 -0.137364
C28   C     C_R   0.842227 0.308063 0.620902 -0.157480
C29   C     C_R   0.122375 0.609465 0.358340 0.077701
C30   C     C_R   0.877936 0.395440 0.644177 0.078046
C31   C     C_R   0.114772 0.590103 0.260615 0.023900
C32   C     C_R   0.855302 0.428198 0.736336 0.043864
C33   C     C_R   0.174832 0.645704 0.195352 -0.156798
C34   C     C_R   0.127627 0.504728 0.499986 -0.081955
C35   C     C_R   0.797051 0.373355 0.803208 -0.141608
C36   C     C_R   0.241004 0.720527 0.226330 -0.127154
C37   C     C_R   0.762307 0.286389 0.779236 -0.123741
C38   C     C_R   0.932508 0.547289 0.431237 -0.224536
C39   C     C_R   0.067287 0.455588 0.570015 -0.229473
C40   C     C_1   0.048747 0.512637 0.226142 0.160300
C41   C     C_1   0.888636 0.518108 0.762778 0.199827
C42   C     C_R   0.938944 0.451362 0.571208 -0.004866
C43   C     C_R   0.061097 0.551886 0.430095 0.001968
C44   C     C_R   0.496232 0.092644 0.583952 -0.173656
C45   C     C_R   0.541246 0.906973 0.425875 -0.179324
C46   C     C_R   0.503009 0.184584 0.584443 -0.198277
Cl1   Cl    Cl    0.747831 0.561006 0.050098 -0.647570
Cl2   Cl    Cl    0.459875 0.315558 0.950002 -0.650769
H1    H     H_    0.287151 0.763206 0.175596 0.139929
H2    H     H_    0.462038 0.361679 0.755617 0.165035
H3    H     H_    0.297702 0.799007 0.346246 0.148401
H4    H     H_    0.759149 0.186108 0.670233 0.144680
H5    H     H_    0.194969 0.701530 0.462880 0.117494
H6    H     H_    0.858870 0.282039 0.550532 0.136299
H7    H     H_    0.170852 0.630970 0.120394 0.151528
H8    H     H_    0.778079 0.397969 0.873850 0.186186
H9    H     H_    0.879077 0.584552 0.379230 0.155916
H10   H     H_    0.120318 0.418613 0.622490 0.165519
H11   H     H_    0.512528 0.056758 0.649220 0.140284
H12   H     H_    0.717306 0.244324 0.831120 0.177443
H13   H     H_    0.588592 0.943551 0.370521 0.142464
H14   H     H_    0.521358 0.218537 0.650630 0.164786
H15   H     H_    0.601018 0.781205 0.371331 0.156530
H16   H     H_    0.449139 0.222162 0.349375 0.170929
H17   H     H_    0.381118 0.774419 0.627575 0.151511
H18   H     H_    0.433511 0.060388 0.349326 0.139039
H19   H     H_    0.364070 0.936749 0.624872 0.139861
H20   H     H_    0.314170 0.448507 0.067079 0.190216
H21   H     H_    0.539373 0.639543 0.933013 0.184037
H22   H     H_    0.316661 0.447653 0.241436 0.148198
H23   H     H_    0.539520 0.638162 0.758883 0.150926
H24   H     H_    0.684056 0.551292 0.244907 0.161452
N1    N     N_R   0.500000 0.499980 0.252470 -0.116551
N2    N     N_R   0.500000 0.500020 0.747530 -0.115024
N3    N     N_1   0.995811 0.450534 0.198554 -0.149069
N4    N     N_1   0.915231 0.590236 0.783941 -0.167926
O1    O     O_R   0.500010 0.369070 0.579480 -0.630157
O2    O     O_R   0.499990 0.630930 0.420520 -0.614630
O3    O     O_R   0.500010 0.369060 0.420520 -0.614872
O4    O     O_R   0.499990 0.630940 0.579480 -0.632204
O5    O     O_R   0.316760 0.500010 0.579480 -0.618063
O6    O     O_R   0.683240 0.499990 0.420520 -0.629795
O7    O     O_R   0.316760 0.500000 0.420520 -0.621398
O8    O     O_R   0.683240 0.500000 0.579480 -0.607440
Zn1   Zn    Zn3+2 0.500000 0.500010 0.606140 0.957722
Zn2   Zn    Zn3+2 0.500000 0.499990 0.393860 0.962529

loop_
_geom_bond_atom_site_label_1
_geom_bond_atom_site_label_2
_ccdc_geom_bond_type
C33   H7    S    
C27   C29   A    
C1    O1    A    
C32   C35   A    
C2    H15   S    
C17   C23   S    
C23   C42   A    
C46   H14   S    
C19   C21   A    
C11   C14   A    
C44   H11   S    
C33   C36   A    
C31   C40   S    
C17   O6    A    
C16   C34   S    
C6    H17   S    
C12   O2    A    
C32   C41   S    
C31   C33   A    
C4    C12   S    
C9    C10   S    
C21   Cl2   S    
O2    Zn2   S    
O1    Zn1   S    
C29   C43   S    
C14   H22   S    
C44   C46   A    
C39   C42   A    
C2    C45   A    
C18   H24   S    
C34   C39   A    
C20   Cl1   S    
C14   N1    A    
O8    Zn1   S    
C4    C6    A    
C5    C7    A    
C28   H6    S    
C6    C8    A    
O6    Zn2   S    
C39   H10   S    
C16   O7    A    
C13   C24   A    
C1    C3    S    
C2    C4    A    
C25   H3    S    
O4    Zn1   S    
C26   H4    S    
C38   H9    S    
O7    Zn2   S    
C10   C45   A    
C20   C22   A    
C18   N1    A    
C13   C15   A    
C1    O3    A    
C22   C24   S    
C11   H20   S    
C7    C9    A    
C9    C44   A    
C3    C46   A    
C35   C37   A    
C35   H8    S    
C19   N2    A    
C34   C43   A    
C3    C5    A    
C27   H5    S    
C26   C37   A    
C25   C27   A    
C23   C38   A    
C15   H23   S    
C11   C22   A    
C26   C28   A    
C40   N3    T    
C17   O8    A    
C28   C30   A    
C38   C43   A    
C29   C31   A    
C7    H18   S    
C30   C32   A    
C19   H2    S    
C13   H21   S    
C12   O4    A    
C45   H13   S    
C16   O5    A    
C18   C20   A    
N2    Zn1   S    
N1    Zn2   S    
C37   H12   S    
C25   C36   A    
C15   N2    A    
C5    H16   S    
C8    H19   S    
C8    C10   A    
C21   C24   A    
C30   C42   S    
O3    Zn2   S    
O5    Zn1   S    
C36   H1    S    
C41   N4    T    
