data_mof_unit_45740.cif
_audit_creation_date              2012-12-10T19:32:19-0500
_audit_creation_method            fapswitch 2.2
_symmetry_space_group_name_H-M    P1
_symmetry_Int_Tables_number       1
_space_group_crystal_system       triclinic
_cell_length_a                    23.228562
_cell_length_b                    15.753089
_cell_length_c                    14.936053
_cell_angle_alpha                 89.722278
_cell_angle_beta                  89.844259
_cell_angle_gamma                 89.982665
_cell_volume                      5465.33985471

loop_
_atom_site_label
_atom_site_type_symbol
_atom_type_description
_atom_site_fract_x
_atom_site_fract_y
_atom_site_fract_z
_atom_type_partial_charge
C1    C     C_R   0.500033 0.337591 0.500191 0.880055
C2    C     C_R   0.500039 0.662389 0.499836 0.938155
C3    C     C_R   0.231776 0.472776 0.453664 0.563787
C4    C     C_R   0.768003 0.479478 0.448547 0.553899
C5    C     C_R   0.291847 0.464836 0.448031 -0.397651
C6    C     C_R   0.708414 0.468548 0.445374 -0.357673
C7    C     C_R   0.327182 0.515173 0.501912 -0.171808
C8    C     C_R   0.672671 0.517006 0.500887 -0.187940
C9    C     C_R   0.302974 0.577572 0.557825 0.383654
C10   C     C_R   0.696404 0.579114 0.557570 0.382124
C11   C     C_R   0.243703 0.587079 0.561157 -0.245905
C12   C     C_R   0.755652 0.589180 0.561020 -0.231806
C13   C     C_R   0.208330 0.534874 0.510065 0.165420
C14   C     C_R   0.791348 0.538577 0.508388 0.129029
C15   C     C_3   0.553080 0.972136 0.476774 0.294274
C16   C     C_3   0.448394 0.027690 0.524216 0.290711
C17   C     C_3   0.513868 0.028605 0.418382 0.287456
C18   C     C_3   0.487609 0.971224 0.582597 0.300965
C19   C     C_1   0.500275 0.248962 0.500654 -0.114541
C20   C     C_1   0.500340 0.750967 0.499558 -0.063193
C21   C     C_3   0.539907 0.027461 0.559227 0.288019
C22   C     C_3   0.461568 0.972406 0.441764 0.291026
C23   C     C_R   0.389051 0.502412 0.500276 0.945088
C24   C     C_R   0.610944 0.502735 0.499996 0.948452
C25   C     C_3   0.500690 0.083279 0.500836 -0.272894
C26   C     C_3   0.500775 0.916587 0.500131 -0.278182
C27   C     C_1   0.500503 0.173891 0.500893 0.218140
C28   C     C_1   0.500602 0.826012 0.499705 0.236770
C29   C     C_3   0.503332 0.421649 0.970898 0.600249
C30   C     C_3   0.496479 0.578571 0.029021 0.598843
C31   C     C_3   0.549337 0.464344 0.030106 -0.306039
C32   C     C_3   0.450470 0.535816 0.969832 -0.294752
C33   C     C_3   0.454020 0.455340 0.030620 -0.302048
C34   C     C_3   0.545787 0.544889 0.969302 -0.296322
C35   C     C_3   0.499956 0.499641 0.089550 -0.021846
C36   C     C_3   0.499855 0.500573 0.910405 -0.033302
C37   C     C_1   0.499989 0.499980 0.189767 0.148198
C38   C     C_1   0.499925 0.500129 0.810219 0.185005
C39   C     C_R   0.880106 0.613074 0.482328 0.545713
C40   C     C_R   0.119420 0.484000 0.572176 0.582642
C41   C     C_R   0.879640 0.485571 0.569563 0.602765
C42   C     C_R   0.120029 0.609447 0.481653 0.581185
C43   C     C_R   0.938862 0.492746 0.585804 -0.199033
C44   C     C_R   0.060744 0.621058 0.495182 -0.192865
C45   C     C_R   0.969500 0.558592 0.542381 -0.136390
C46   C     C_R   0.030071 0.557749 0.542666 -0.134391
C47   C     C_R   0.939758 0.622386 0.494204 -0.174091
C48   C     C_R   0.059761 0.490734 0.585801 -0.180969
C49   C     C_R   0.968596 0.434843 0.641740 0.415325
C50   C     C_R   0.030959 0.692377 0.460607 0.415909
C51   C     C_R   0.028899 0.432505 0.640279 0.397352
C52   C     C_R   0.970615 0.692504 0.458760 0.404783
H1    H     H_    0.589420 0.433899 0.054687 0.159000
H2    H     H_    0.410420 0.566560 0.945473 0.177492
H3    H     H_    0.582867 0.582616 0.944247 0.170537
H4    H     H_    0.417013 0.417247 0.055374 0.167651
H5    H     H_    0.310954 0.418667 0.403416 0.172774
H6    H     H_    0.690285 0.420879 0.401632 0.185978
H7    H     H_    0.224716 0.634522 0.604442 0.182170
H8    H     H_    0.774328 0.635477 0.605800 0.184675
N1    N     N_R   0.852068 0.545334 0.519192 -0.336095
N2    N     N_R   0.147546 0.542281 0.520330 -0.329898
N3    N     N_1   0.500020 0.500000 0.268010 -0.087414
N4    N     N_1   0.499980 0.500000 0.731990 -0.068847
O1    O     O_R   0.500000 0.376780 0.574460 -0.601501
O2    O     O_R   0.500000 0.623220 0.425540 -0.607568
O3    O     O_R   0.500010 0.376780 0.425520 -0.616082
O4    O     O_R   0.499990 0.623220 0.574480 -0.566919
O5    O     O_R   0.416150 0.499970 0.574490 -0.581097
O6    O     O_R   0.583850 0.500030 0.425510 -0.622989
O7    O     O_R   0.416160 0.499980 0.425550 -0.612820
O8    O     O_R   0.583840 0.500020 0.574450 -0.574937
O9    O     O_2   0.850221 0.669330 0.432381 -0.536214
O10   O     O_2   0.149390 0.419230 0.608701 -0.554902
O11   O     O_2   0.849778 0.418255 0.601116 -0.495147
O12   O     O_2   0.149903 0.662498 0.427673 -0.497029
Zn1   Zn    Zn3+2 0.499990 0.500000 0.599450 1.077247
Zn2   Zn    Zn3+2 0.500010 0.500000 0.400550 1.017785
O13   O     O_3   0.939753 0.377055 0.695703 -0.566661
C53   C     C_3   0.918692 0.419192 0.772774 0.112946
H9    H     H_    0.878237 0.453704 0.756949 0.175341
H10   H     H_    0.949959 0.466269 0.799713 0.074788
C54   C     C_3   0.906000 0.353231 0.845487 -0.284913
H11   H     H_    0.873727 0.307117 0.820292 0.251294
H12   H     H_    0.946150 0.318055 0.861814 0.221710
C55   C     C_3   0.882794 0.394668 0.930380 -0.976187
H13   H     H_    0.914943 0.439692 0.957867 0.267248
H14   H     H_    0.873831 0.344986 0.981523 0.275141
H15   H     H_    0.842167 0.429278 0.915942 0.276166
O14   O     O_3   0.059776 0.761610 0.424725 -0.563039
C56   C     C_3   0.080692 0.812943 0.495201 0.117613
H16   H     H_    0.122249 0.787482 0.520351 0.181911
H17   H     H_    0.050343 0.816226 0.553115 0.072147
C57   C     C_3   0.090576 0.902840 0.459510 -0.305289
H18   H     H_    0.122199 0.900929 0.403557 0.256809
H19   H     H_    0.049366 0.928794 0.433386 0.222489
C58   C     C_3   0.113202 0.961414 0.532484 -0.911641
H20   H     H_    0.081693 0.965611 0.588372 0.260795
H21   H     H_    0.119932 0.025990 0.504341 0.273668
H22   H     H_    0.154923 0.937454 0.558585 0.286842
O15   O     O_3   0.506642 0.338917 0.935465 -0.629002
C59   C     C_3   0.510205 0.277680 0.004907 0.088970
H23   H     H_    0.475332 0.230529 0.994455 0.187333
H24   H     H_    0.504159 0.303537 0.073791 0.123288
C60   C     C_3   0.568275 0.232246 0.999522 -0.374341
H25   H     H_    0.573099 0.202614 0.932518 0.264456
H26   H     H_    0.603542 0.279104 0.008212 0.221020
C61   C     C_3   0.573482 0.163624 0.071547 -0.805625
H27   H     H_    0.570137 0.192194 0.139220 0.284171
H28   H     H_    0.615912 0.131651 0.065537 0.270231
H29   H     H_    0.539045 0.115358 0.063495 0.281225
O16   O     O_3   0.492647 0.661353 0.064226 -0.627269
C62   C     C_3   0.490266 0.722521 0.994561 0.094080
H30   H     H_    0.451699 0.762799 0.006036 0.192052
H31   H     H_    0.485871 0.695496 0.925928 0.133818
C63   C     C_3   0.543967 0.778511 0.997928 -0.382554
H32   H     H_    0.546774 0.809173 0.064654 0.262021
H33   H     H_    0.582930 0.738618 0.988299 0.226478
C64   C     C_3   0.542549 0.847164 0.925473 -0.773988
H34   H     H_    0.541116 0.817860 0.858004 0.290795
H35   H     H_    0.581900 0.886890 0.930035 0.270570
H36   H     H_    0.504281 0.888607 0.934426 0.277854
O17   O     O_3   0.056580 0.367692 0.686055 -0.568493
C65   C     C_3   0.075155 0.397942 0.770136 0.129717
H37   H     H_    0.037749 0.407499 0.815235 0.118054
H38   H     H_    0.099250 0.458931 0.763746 0.135067
C66   C     C_3   0.114716 0.331776 0.812858 -0.275555
H39   H     H_    0.091056 0.270813 0.820426 0.226453
H40   H     H_    0.152552 0.320924 0.768649 0.261527
C67   C     C_3   0.135670 0.360441 0.904617 -0.948551
H41   H     H_    0.160388 0.420553 0.898436 0.274666
H42   H     H_    0.164187 0.311014 0.933793 0.278055
H43   H     H_    0.098552 0.370229 0.950486 0.264046
O18   O     O_3   0.942855 0.758479 0.415013 -0.563010
C68   C     C_3   0.923647 0.818311 0.478750 0.121243
H44   H     H_    0.960791 0.852436 0.508083 0.114726
H45   H     H_    0.898580 0.787587 0.533840 0.138407
C69   C     C_3   0.885060 0.883297 0.432041 -0.284718
H46   H     H_    0.909736 0.915246 0.377629 0.225499
H47   H     H_    0.847620 0.850337 0.401731 0.270866
C70   C     C_3   0.863192 0.950126 0.497492 -0.883589
H48   H     H_    0.837453 0.919727 0.551618 0.280305
H49   H     H_    0.835413 0.996301 0.461460 0.288876
H50   H     H_    0.899920 0.984940 0.527501 0.258023
O19   O     O_3   0.194957 0.424253 0.401906 -0.631117
C71   C     C_3   0.205071 0.336722 0.416287 0.095440
H51   H     H_    0.216029 0.322243 0.487532 0.175538
H52   H     H_    0.240771 0.315060 0.372187 0.149787
C72   C     C_3   0.150552 0.287578 0.392568 -0.303685
H53   H     H_    0.114336 0.309989 0.435195 0.248702
H54   H     H_    0.139342 0.299747 0.321342 0.230450
C73   C     C_3   0.158568 0.192324 0.406885 -0.904886
H55   H     H_    0.194082 0.168245 0.364003 0.278530
H56   H     H_    0.118295 0.158592 0.388860 0.262815
H57   H     H_    0.168569 0.178577 0.478189 0.278966
O20   O     O_3   0.803780 0.427623 0.399093 -0.614437
C74   C     C_3   0.811548 0.464365 0.313565 0.060580
H58   H     H_    0.825379 0.532004 0.318524 0.174595
H59   H     H_    0.770752 0.460790 0.274701 0.146463
C75   C     C_3   0.858414 0.415294 0.263921 -0.295899
H60   H     H_    0.898978 0.417514 0.303208 0.236821
H61   H     H_    0.845173 0.347827 0.257155 0.237387
C76   C     C_3   0.869483 0.452634 0.171012 -0.950963
H62   H     H_    0.829898 0.449065 0.129631 0.270641
H63   H     H_    0.904143 0.416045 0.137422 0.269531
H64   H     H_    0.883379 0.519895 0.176212 0.280145
Cl1   Cl    Cl    0.345234 0.647608 0.621900 -0.559271
Cl2   Cl    Cl    0.653652 0.647397 0.623343 -0.569499
Cl3   Cl    Cl    0.531211 0.068405 0.309708 -0.513160
Cl4   Cl    Cl    0.470411 0.931203 0.691247 -0.469526
Cl5   Cl    Cl    0.622313 0.933359 0.445497 -0.447846
Cl6   Cl    Cl    0.379130 0.066292 0.555554 -0.470261
Cl7   Cl    Cl    0.409759 0.934062 0.364050 -0.447782
Cl8   Cl    Cl    0.591667 0.065767 0.637038 -0.461638

loop_
_geom_bond_atom_site_label_1
_geom_bond_atom_site_label_2
_ccdc_geom_bond_type
C68   C69   S    
C74   H58   S    
O6    Zn2   S    
C18   C21   S    
C51   O17   S    
N4    Zn1   S    
C6    H6    S    
O5    Zn1   S    
C76   H62   S    
C18   C26   S    
C41   N1    A    
C58   H22   S    
O19   C71   S    
C24   O6    A    
C68   H44   S    
C45   C46   A    
C61   H27   S    
C60   H26   S    
C29   C36   S    
O15   C59   S    
C30   C35   S    
C32   C36   S    
C65   H38   S    
O20   C74   S    
C76   H63   S    
C62   H30   S    
C40   O10   S    
C2    O4    A    
C70   H49   S    
C17   Cl3   S    
C41   O11   S    
C29   C33   S    
C16   C25   S    
C40   N2    A    
C63   H32   S    
C59   C60   S    
C15   C17   S    
C40   C48   A    
C33   C35   S    
C37   N3    T    
C50   O14   S    
C48   C51   A    
C13   N2    S    
C61   H28   S    
C49   C51   A    
C1    O1    A    
C19   C27   T    
C42   N2    A    
C38   N4    T    
C3    C13   A    
C57   H19   S    
C62   C63   S    
C33   H4    S    
C64   H35   S    
C34   H3    S    
C74   H59   S    
C41   C43   A    
C59   H23   S    
O3    Zn2   S    
C42   C44   A    
C53   C54   S    
C11   H7    S    
C32   H2    S    
O16   C62   S    
C58   H21   S    
C44   C46   A    
C58   H20   S    
C71   H52   S    
C45   C47   A    
O2    Zn2   S    
C60   C61   S    
C46   C48   A    
C1    C19   S    
O1    Zn1   S    
C30   C34   S    
C55   H14   S    
C2    C20   S    
C75   C76   S    
C23   O7    A    
O17   C65   S    
C76   H64   S    
C53   H10   S    
C72   C73   S    
C56   H16   S    
C5    C7    A    
C55   H13   S    
C43   C49   A    
C15   C26   S    
C6    C8    A    
C20   C28   T    
C57   C58   S    
C3    C5    A    
C14   N1    S    
C23   O5    A    
C69   C70   S    
C1    O3    A    
C49   O13   S    
C30   O16   S    
C75   H61   S    
C67   H42   S    
C66   H40   S    
O8    Zn1   S    
C56   H17   S    
C71   C72   S    
C43   C45   A    
C16   Cl6   S    
C50   C52   A    
C54   H11   S    
C73   H57   S    
C9    Cl1   S    
C31   C34   S    
C29   O15   S    
C16   C18   S    
C31   H1    S    
C59   H24   S    
C9    C11   A    
C47   C52   A    
C10   C12   A    
C65   C66   S    
C4    C6    A    
C4    O20   S    
C73   H56   S    
C3    O19   S    
C74   C75   S    
C15   Cl5   S    
C31   C35   S    
C70   H50   S    
C67   H43   S    
C66   H39   S    
C22   Cl7   S    
C24   O8    A    
C39   C47   A    
C71   H51   S    
C64   H36   S    
C44   C50   A    
O4    Zn1   S    
C68   H45   S    
C21   C25   S    
C16   C22   S    
C54   H12   S    
C39   N1    A    
C42   O12   S    
C8    C10   A    
C12   C14   A    
C53   H9    S    
C2    O2    A    
C55   H15   S    
C64   H34   S    
C61   H29   S    
O18   C68   S    
C69   H47   S    
C25   C27   S    
C60   H25   S    
C26   C28   S    
C17   C22   S    
C63   C64   S    
C5    H5    S    
C17   C25   S    
C75   H60   S    
C72   H54   S    
C67   H41   S    
C66   C67   S    
C35   C37   S    
C29   C31   S    
C72   H53   S    
C32   C33   S    
C56   C57   S    
C30   C32   S    
C11   C13   A    
O14   C56   S    
C7    C23   S    
C36   C38   S    
C8    C24   S    
C63   H33   S    
C34   C36   S    
C39   O9    S    
C4    C14   A    
C57   H18   S    
C69   H46   S    
O13   C53   S    
C12   H8    S    
C7    C9    A    
C52   O18   S    
C15   C21   S    
C54   C55   S    
C73   H55   S    
C10   Cl2   S    
C21   Cl8   S    
C22   C26   S    
C18   Cl4   S    
C70   H48   S    
O7    Zn2   S    
C65   H37   S    
C62   H31   S    
N3    Zn2   S    
