data_mof_unit_68355.cif
_audit_creation_date              2012-12-11T14:19:29-0500
_audit_creation_method            fapswitch 2.2
_symmetry_space_group_name_H-M    P1
_symmetry_Int_Tables_number       1
_space_group_crystal_system       triclinic
_cell_length_a                    8.286127
_cell_length_b                    12.967828
_cell_length_c                    15.11387
_cell_angle_alpha                 96.051141
_cell_angle_beta                  99.398752
_cell_angle_gamma                 98.165912
_cell_volume                      1572.17117422

loop_
_atom_site_label
_atom_site_type_symbol
_atom_type_description
_atom_site_fract_x
_atom_site_fract_y
_atom_site_fract_z
_atom_type_partial_charge
Ba1   Ba    Ba6+2 0.153570 0.551840 0.456200 1.781925
Ba2   Ba    Ba6+2 0.656590 0.448150 0.543720 1.804848
C1    C     C_3   0.242985 0.882721 0.127798 -0.274502
C2    C     C_R   0.733812 0.812700 0.455637 -0.218584
C3    C     C_R   0.694752 0.986213 0.417974 0.268331
C4    C     C_3   0.816911 0.800208 0.215346 0.226606
C5    C     C_R   0.632540 0.880085 0.416439 0.049834
C6    C     C_R   0.890926 0.849637 0.508092 0.009385
C7    C     C_R   0.952382 0.961740 0.516033 -0.097363
C8    C     C_R   0.852781 0.032483 0.471287 -0.115104
C9    C     C_R   0.914758 0.145583 0.485386 0.065306
C10   C     C_R   0.174660 0.112321 0.572672 -0.010532
C11   C     C_R   0.113342 0.004527 0.564244 -0.123372
C12   C     C_3   0.332663 0.843947 0.211599 0.268433
C13   C     C_R   0.242866 0.452578 0.769921 -0.221411
C14   C     C_R   0.144049 0.412271 0.828112 0.019880
C15   C     C_R   0.212669 0.416361 0.919718 -0.146310
C16   C     C_3   0.834116 0.908634 0.182560 -0.337126
C17   C     C_R   0.377752 0.468171 0.954359 0.011803
C18   C     C_R   0.467706 0.516299 0.893049 -0.100103
C19   C     C_R   0.400467 0.506771 0.801205 -0.000867
C20   C     C_R   0.624309 0.515392 0.084077 -0.139330
C21   C     C_R   0.692036 0.532581 0.176101 0.019947
C22   C     C_R   0.424700 0.465382 0.211249 0.051102
C23   C     C_3   0.449435 0.778790 0.717281 0.230548
C24   C     C_R   0.354937 0.451743 0.119119 -0.104545
C25   C     C_R   0.452764 0.477755 0.053349 0.021462
C26   C     C_R   0.592034 0.506961 0.239193 -0.193553
C27   C     C_3   0.710725 0.298278 0.268746 0.290222
C28   C     C_3   0.678204 0.262605 0.167507 -0.269524
C29   C     C_3   0.946684 0.734993 0.735995 0.236303
C30   C     C_3   0.936077 0.801894 0.823587 -0.373033
C31   C     C_3   0.228281 0.236300 0.355026 0.303903
C32   C     C_3   0.154161 0.120512 0.332456 -0.334688
C33   C     C_2   0.013409 0.638390 0.758011 0.575032
C34   C     C_3   0.423407 0.874494 0.778540 -0.369122
C35   C     C_2   0.539272 0.813304 0.644403 0.532166
C36   C     C_2   0.280863 0.999582 0.130114 0.570763
C37   C     C_2   0.639986 0.750437 0.194892 0.324383
C38   C     C_2   0.779278 0.903403 0.081869 0.595912
C39   C     C_3   0.892497 0.164814 0.740716 0.406512
C40   C     C_3   0.882288 0.058707 0.774508 0.258098
C41   C     C_3   0.423073 0.210014 0.790125 0.335292
C42   C     C_3   0.430370 0.167139 0.880763 0.228473
C43   C     C_R   0.069309 0.180777 0.541266 0.037632
Cl1   Cl    Cl    0.023275 0.067425 0.879672 -0.654303
Cl2   Cl    Cl    0.638771 0.172884 0.937231 -0.597618
Cl3   Cl    Cl    0.566636 0.049548 0.345181 -0.754657
Cl4   Cl    Cl    0.134569 0.314656 0.572353 -0.722880
H1    H     H_    0.310898 0.756951 0.197059 0.096335
H2    H     H_    0.345933 0.244756 0.404373 0.100157
H3    H     H_    0.108785 0.854332 0.116343 0.137934
H4    H     H_    0.022386 0.112129 0.298590 0.122431
H5    H     H_    0.162069 0.080674 0.394251 0.065537
H6    H     H_    0.224713 0.080032 0.287759 0.197487
H7    H     H_    0.463854 0.879639 0.218643 0.034281
H8    H     H_    0.287857 0.847626 0.067852 0.043044
H9    H     H_    0.325309 0.733565 0.687723 0.077155
H10   H     H_    0.544680 0.914302 0.820228 0.163244
H11   H     H_    0.366624 0.931844 0.736991 0.107492
H12   H     H_    0.599243 0.184052 0.151927 0.171217
H13   H     H_    0.338000 0.848863 0.825655 0.131073
H14   H     H_    0.760965 0.958995 0.218498 0.118793
H15   H     H_    0.801251 0.157911 0.676922 0.003245
H16   H     H_    0.019195 0.186265 0.726457 -0.076246
H17   H     H_    0.913985 0.000533 0.723306 -0.051226
H18   H     H_    0.754002 0.032838 0.785190 0.100998
H19   H     H_    0.293914 0.223380 0.768538 -0.088900
H20   H     H_    0.507442 0.286635 0.799144 0.082081
H21   H     H_    0.366126 0.214575 0.925337 0.061874
H22   H     H_    0.862795 0.813766 0.289736 0.078102
H23   H     H_    0.613041 0.318049 0.130101 0.057872
H24   H     H_    0.367519 0.083848 0.870090 0.122591
H25   H     H_    0.194170 0.954671 0.594445 0.117445
H26   H     H_    0.684468 0.729922 0.449833 0.121584
H27   H     H_    0.707873 0.535212 0.038662 0.075367
H28   H     H_    0.134445 0.380191 0.961962 0.107489
H29   H     H_    0.224709 0.420542 0.100920 0.089988
H30   H     H_    0.586418 0.565749 0.915047 0.073438
H31   H     H_    0.644568 0.520892 0.310683 0.062276
H32   H     H_    0.191440 0.454066 0.701066 0.171903
H33   H     H_    0.964467 0.947631 0.201670 0.126737
H34   H     H_    0.797863 0.257011 0.143702 0.168469
H35   H     H_    0.592080 0.308407 0.290729 0.012651
H36   H     H_    0.800458 0.372611 0.283668 -0.000984
H37   H     H_    0.080019 0.633010 0.825052 -0.160624
H38   H     H_    0.623147 0.888523 0.653625 -0.128186
H39   H     H_    0.408590 0.038892 0.146698 0.060556
H40   H     H_    0.568814 0.740523 0.126664 -0.009714
H41   H     H_    0.837129 0.857745 0.035401 0.027094
H42   H     H_    0.819176 0.716461 0.696023 0.063625
H43   H     H_    0.060359 0.841206 0.859315 0.156612
H44   H     H_    0.878234 0.752826 0.869332 0.087145
H45   H     H_    0.855787 0.860938 0.808416 0.148258
H46   H     H_    0.139888 0.279093 0.385638 0.042511
O1    O     O_2   0.168170 0.764170 0.543850 -0.445174
O2    O     O_2   0.808615 0.433015 0.823408 -0.483290
O3    O     O_3   0.855285 0.238099 0.806571 -0.524845
O4    O     O_3   0.898670 0.629780 0.545890 -0.439451
O5    O     O_3   0.409490 0.443300 0.392340 -0.491294
O6    O     O_2   0.674250 0.555830 0.719690 -0.449288
O7    O     O_3   0.545963 0.718359 0.769498 -0.676629
O8    O     O_2   0.510072 0.116788 0.558774 -0.464871
O9    O     O_3   0.469614 0.137703 0.726593 -0.618387
O10   O     O_3   0.365980 0.695510 0.380810 -0.407526
O11   O     O_2   0.335147 0.876932 0.464948 -0.448598
O12   O     O_3   0.258553 0.274528 0.275074 -0.616553
O13   O     O_3   0.055316 0.789519 0.688208 -0.675408
O14   O     O_3   0.276730 0.872813 0.291920 -0.572305
O15   O     O_2   0.136040 0.444100 0.280280 -0.462703
O16   O     O_3   0.934510 0.640480 0.335500 -0.481992
O17   O     O_2   0.039863 0.566695 0.184464 -0.478814
O18   O     O_2   0.999430 0.565949 0.697677 -0.564354
O19   O     O_2   0.525611 0.752648 0.575507 -0.595557
O20   O     O_2   0.169998 0.050460 0.110991 -0.528860
O21   O     O_2   0.577034 0.716006 0.255262 -0.679884
O22   O     O_2   0.669025 0.950293 0.051683 -0.545334
O23   O     O_3   0.912352 0.734981 0.174030 -0.625835
O24   O     O_2   0.642110 0.235770 0.456130 -0.428021
O25   O     O_3   0.911620 0.370210 0.454030 -0.432486
O26   O     O_3   0.444310 0.304480 0.619110 -0.423403
O27   O     O_3   0.777973 0.220487 0.311304 -0.593973
O28   O     O_3   0.400800 0.556680 0.607590 -0.400826
O29   O     O_3   0.875770 0.359510 0.664420 -0.406658
P1    P     P_3+3 0.998660 0.747790 0.570900 1.015547
P2    P     P_3+3 0.306970 0.411860 0.294270 1.012543
P3    P     P_3+3 0.896590 0.614109 0.217188 1.001743
P4    P     P_3+3 0.811620 0.252200 0.429030 1.095860
P5    P     P_3+3 0.921904 0.363506 0.782134 1.073615
P6    P     P_3+3 0.404407 0.831793 0.383406 1.138125
P7    P     P_3+3 0.497839 0.585085 0.723749 0.981923
P8    P     P_3+3 0.398383 0.166786 0.617842 1.007178

loop_
_geom_bond_atom_site_label_1
_geom_bond_atom_site_label_2
_ccdc_geom_bond_type
C12   O14   S    
C12   H7    S    
C39   C40   S    
C30   H45   S    
C17   C18   A    
C31   O12   S    
C20   H27   S    
C2    C6    A    
C34   H10   S    
Ba1   O4    S    
Ba1   P2    S    
C13   H32   S    
C30   H43   S    
Ba2   O28   S    
C24   C25   A    
C24   H29   S    
O5    P2    S    
C22   C24   A    
C40   Cl1   S    
C33   H37   S    
C23   O7    S    
C13   C14   A    
Ba1   Ba2   S    
C29   O13   S    
C28   H34   S    
C7    C11   A    
C41   O9    S    
C19   P7    S    
O17   P3    D    
C16   C38   S    
C23   C35   S    
C1    C36   S    
C6    C7    A    
C2    H26   S    
O29   P5    S    
C42   H21   S    
O13   P1    S    
C17   C25   S    
C7    C8    A    
C27   H36   S    
C42   Cl2   S    
O24   P4    D    
C38   O22   D    
Ba2   O5    S    
C32   H6    S    
C41   H20   S    
C22   P2    S    
C2    C5    A    
C34   H13   S    
C31   H46   S    
Ba1   O5    S    
C4    H22   S    
C4    C16   S    
C3    Cl3   S    
O7    P7    S    
C27   H35   S    
O4    P1    S    
C3    C5    A    
Ba2   O25   S    
C14   C15   A    
C39   H16   S    
C35   O19   D    
Ba2   O6    S    
C36   H39   S    
Ba1   O25   S    
C41   C42   S    
Ba1   O28   S    
C27   C28   S    
Ba1   O15   S    
C29   C30   S    
C43   Cl4   S    
C1    H3    S    
C30   H44   S    
C27   O27   S    
C15   H28   S    
C31   C32   S    
C21   C26   A    
C18   C19   A    
C26   H31   S    
C14   P5    S    
C1    C12   S    
O15   P2    D    
C1    H8    S    
Ba2   O4    S    
C32   H5    S    
C16   H33   S    
C29   H42   S    
C20   C25   A    
C5    P6    S    
O16   P3    S    
C40   H18   S    
C29   C33   S    
C9    C43   A    
O23   P3    S    
O26   P8    S    
O6    P7    D    
C21   P3    S    
C23   H9    S    
O8    P8    D    
Ba2   O26   S    
O11   P6    D    
C10   P8    S    
C18   H30   S    
O28   P7    S    
C39   O3    S    
C35   H38   S    
C22   C26   A    
O12   P2    S    
Ba1   P1    S    
C10   C43   A    
C34   H11   S    
C28   H23   S    
Ba2   O24   S    
O25   P4    S    
O10   P6    S    
C4    C37   S    
Ba2   O29   S    
C31   H2    S    
C41   H19   S    
C9    P4    S    
O2    P5    D    
C3    C8    A    
Ba1   O16   S    
C36   O20   D    
C12   H1    S    
Ba1   O1    S    
O3    P5    S    
C15   C17   A    
C37   H40   S    
O1    P1    D    
C33   O18   D    
O27   P4    S    
C42   H24   S    
C16   H14   S    
C8    C9    A    
C23   C34   S    
C6    P1    S    
C13   C19   A    
C10   C11   A    
C32   H4    S    
C37   O21   D    
O9    P8    S    
C28   H12   S    
O14   P6    S    
C40   H17   S    
C20   C21   A    
C39   H15   S    
C38   H41   S    
C4    O23   S    
Ba1   O10   S    
C11   H25   S    
Ba2   P4    S    
