data_mof_unit_46693.cif
_audit_creation_date              2012-12-10T19:49:43-0500
_audit_creation_method            fapswitch 2.2
_symmetry_space_group_name_H-M    P1
_symmetry_Int_Tables_number       1
_space_group_crystal_system       triclinic
_cell_length_a                    10.861505
_cell_length_b                    16.047204
_cell_length_c                    17.377733
_cell_angle_alpha                 97.048761
_cell_angle_beta                  90.250575
_cell_angle_gamma                 93.202698
_cell_volume                      3001.10327396

loop_
_atom_site_label
_atom_site_type_symbol
_atom_type_description
_atom_site_fract_x
_atom_site_fract_y
_atom_site_fract_z
_atom_type_partial_charge
C1    C     C_R   0.497381 0.488896 0.349852 0.793211
C2    C     C_R   0.499763 0.511117 0.650046 0.763390
C3    C     C_R   0.871036 0.499320 0.501100 -0.266225
C4    C     C_R   0.127820 0.498162 0.506733 -0.275565
C5    C     C_R   0.930518 0.430924 0.461684 -0.153381
C6    C     C_R   0.068220 0.567022 0.545835 -0.152536
C7    C     C_R   0.489607 0.482799 0.265571 -0.028400
C8    C     C_R   0.494633 0.517418 0.734140 -0.020911
C9    C     C_R   0.458292 0.552967 0.230617 -0.204451
C10   C     C_R   0.439214 0.450949 0.769022 -0.221775
C11   C     C_R   0.449943 0.547993 0.150567 -0.145970
C12   C     C_R   0.433060 0.456293 0.849117 -0.148827
C13   C     C_R   0.476249 0.473234 0.104082 0.186047
C14   C     C_R   0.485532 0.527465 0.895520 0.193981
C15   C     C_R   0.504335 0.402409 0.139169 -0.168138
C16   C     C_R   0.538332 0.594777 0.860378 -0.172270
C17   C     C_R   0.510268 0.406950 0.219549 -0.184901
C18   C     C_R   0.542597 0.589957 0.780002 -0.218174
C19   C     C_2   0.473705 0.466573 0.019037 -0.224955
C20   C     C_2   0.485730 0.534084 0.980551 -0.228494
C21   C     C_R   0.433399 0.746962 0.466872 -0.049963
C22   C     C_R   0.551149 0.255385 0.543677 -0.069192
C23   C     C_R   0.262319 0.499727 0.502316 0.863502
C24   C     C_R   0.737334 0.499963 0.499155 0.860647
C25   C     C_R   0.430867 0.834838 0.470379 0.347645
C26   C     C_R   0.560515 0.168124 0.540612 0.349152
C27   C     C_R   0.513393 0.885286 0.521576 -0.064826
C28   C     C_R   0.499898 0.115121 0.479480 -0.072565
C29   C     C_R   0.596733 0.847193 0.566735 0.384235
C30   C     C_R   0.431056 0.150798 0.424111 0.338249
C31   C     C_R   0.597628 0.759209 0.558600 -0.022298
C32   C     C_R   0.426025 0.238714 0.430273 -0.047134
C33   C     C_2   0.509513 0.977918 0.531456 -0.058783
C34   C     C_2   0.509105 0.022405 0.470749 -0.061624
C35   C     C_R   0.274842 0.699105 0.695439 -0.166068
C36   C     C_R   0.790591 0.322236 0.273590 -0.212856
C37   C     C_R   0.208158 0.630181 0.655251 -0.235836
C38   C     C_R   0.852632 0.381793 0.327659 -0.226093
C39   C     C_R   0.137788 0.640168 0.589521 0.198485
C40   C     C_R   0.864012 0.366988 0.405057 0.213547
C41   C     C_R   0.134774 0.719828 0.564587 -0.126466
C42   C     C_R   0.811507 0.292213 0.427931 -0.148793
C43   C     C_R   0.201320 0.788796 0.604742 -0.256691
C44   C     C_R   0.749992 0.232430 0.373880 -0.241416
C45   C     C_R   0.271102 0.779390 0.671887 0.559604
C46   C     C_R   0.740203 0.246355 0.295268 0.562555
C47   C     C_R   0.939413 0.565370 0.545834 0.446410
C48   C     C_R   0.057747 0.427345 0.469978 0.445551
Cu1   Cu    Cu3+1 0.493640 0.415410 0.495980 0.946251
Cu2   Cu    Cu3+1 0.506360 0.584590 0.504020 0.958960
H1    H     H_    0.522871 0.343793 0.104345 0.138752
H2    H     H_    0.577611 0.650675 0.895164 0.124502
H3    H     H_    0.211975 0.568910 0.675001 0.127118
H4    H     H_    0.891475 0.439678 0.309265 0.146930
H5    H     H_    0.082232 0.728228 0.513246 0.160589
H6    H     H_    0.815663 0.281045 0.488050 0.140557
N1    N     N_R   0.515930 0.711660 0.510070 -0.227874
N2    N     N_R   0.484070 0.288340 0.489930 -0.223751
O1    O     O_R   0.494030 0.420280 0.382610 -0.579683
O2    O     O_R   0.505970 0.579720 0.617390 -0.581174
O3    O     O_R   0.504770 0.563150 0.389400 -0.594896
O4    O     O_R   0.495230 0.436850 0.610600 -0.604566
O5    O     O_R   0.314270 0.428570 0.496610 -0.543471
O6    O     O_R   0.685730 0.571430 0.503390 -0.534646
O7    O     O_R   0.325020 0.571440 0.503400 -0.586831
O8    O     O_R   0.674980 0.428560 0.496600 -0.591873
O9    O     O_3   0.342903 0.844103 0.713940 -0.605209
C49   C     C_3   0.293997 0.923568 0.712609 -0.390221
H7    H     H_    0.192813 0.921693 0.722980 0.178365
H8    H     H_    0.316671 0.948780 0.657343 0.167807
H9    H     H_    0.338292 0.967878 0.760017 0.188711
O10   O     O_3   0.675760 0.191777 0.238640 -0.589302
C50   C     C_3   0.682626 0.106644 0.250305 -0.312513
H10   H     H_    0.615636 0.089888 0.294769 0.195746
H11   H     H_    0.777821 0.091512 0.265686 0.146962
H12   H     H_    0.656324 0.066862 0.195302 0.192165
H13   H     H_    0.385926 0.404927 0.873848 0.121773
H14   H     H_    0.421529 0.602626 0.125952 0.121066
H15   H     H_    0.367232 0.706303 0.431412 0.150155
H16   H     H_    0.603280 0.297735 0.586527 0.155914
H17   H     H_    0.378924 0.267575 0.386323 0.173038
H18   H     H_    0.662697 0.728707 0.591492 0.176036
H19   H     H_    0.509998 0.989222 0.412391 0.185322
H20   H     H_    0.506811 0.009279 0.590247 0.176779
O11   O     O_3   0.685002 0.895911 0.612248 -0.559129
C51   C     C_3   0.654440 0.895149 0.690895 -0.282150
H21   H     H_    0.565588 0.924762 0.703872 0.189902
H22   H     H_    0.726795 0.933121 0.726964 0.179282
H23   H     H_    0.651263 0.830486 0.708041 0.151459
O12   O     O_3   0.379792 0.099801 0.360602 -0.579760
C52   C     C_3   0.250310 0.102377 0.362275 -0.294264
H24   H     H_    0.212611 0.091638 0.420013 0.159311
H25   H     H_    0.210311 0.051062 0.319323 0.188380
H26   H     H_    0.220497 0.162596 0.344993 0.167377
O13   O     O_3   0.642183 0.134992 0.588878 -0.559126
C53   C     C_3   0.618833 0.162645 0.667512 -0.354302
H27   H     H_    0.518332 0.162271 0.680346 0.139407
H28   H     H_    0.663915 0.225998 0.685002 0.162636
H29   H     H_    0.659997 0.118778 0.703642 0.198915
O14   O     O_3   0.340100 0.872476 0.432415 -0.572382
C54   C     C_3   0.334239 0.841001 0.352894 -0.335712
H30   H     H_    0.278039 0.780590 0.343577 0.154609
H31   H     H_    0.427404 0.833802 0.327086 0.147542
H32   H     H_    0.287412 0.886628 0.321460 0.203483
H33   H     H_    0.329421 0.690191 0.745745 0.156500
H34   H     H_    0.781818 0.335054 0.214130 0.156361
H35   H     H_    0.198917 0.848568 0.582249 0.167244
H36   H     H_    0.709207 0.176360 0.394226 0.140150
O15   O     O_3   0.880651 0.630888 0.587075 -0.562674
C55   C     C_3   0.854126 0.609360 0.661793 -0.305412
H37   H     H_    0.808096 0.662168 0.694956 0.175851
H38   H     H_    0.939745 0.599534 0.694084 0.158284
H39   H     H_    0.789875 0.552561 0.659140 0.140537
O16   O     O_3   0.114482 0.357066 0.435915 -0.560181
C56   C     C_3   0.117242 0.298425 0.490331 -0.270350
H40   H     H_    0.024531 0.269010 0.498688 0.145263
H41   H     H_    0.156256 0.326839 0.547593 0.155799
H42   H     H_    0.176599 0.247405 0.467884 0.165289
H43   H     H_    0.438392 0.611494 0.265139 0.143803
H44   H     H_    0.398813 0.395339 0.734332 0.144408
H45   H     H_    0.584686 0.642265 0.753800 0.142209
H46   H     H_    0.532170 0.351571 0.245559 0.180108
H47   H     H_    0.503632 0.596361 0.011814 0.141489
H48   H     H_    0.468933 0.403690 0.987748 0.141722

loop_
_geom_bond_atom_site_label_1
_geom_bond_atom_site_label_2
_ccdc_geom_bond_type
C30   C32   A    
C54   H30   S    
Cu1   O5    S    
C27   C29   A    
Cu2   O6    S    
C50   H10   S    
C19   C20   D    
C32   N2    A    
C30   O12   S    
O16   C56   S    
C39   C41   A    
O11   C51   S    
C27   C33   S    
C32   H17   S    
C31   H18   S    
C35   C37   A    
C1    O1    A    
C2    O2    A    
C23   O5    A    
C56   H40   S    
C53   H29   S    
C7    C9    A    
C55   H37   S    
C41   H5    S    
C20   H47   S    
C42   H6    S    
O13   C53   S    
C49   H7    S    
C7    C17   A    
C53   H28   S    
C45   O9    S    
C36   C46   A    
C15   H1    S    
C46   O10   S    
C24   O8    A    
C37   H3    S    
C40   C42   A    
C28   C34   S    
C54   H31   S    
C12   H13   S    
C41   C43   A    
C3    C24   S    
C42   C44   A    
C33   H20   S    
C44   C46   A    
C44   H36   S    
C37   C39   A    
C5    C48   A    
C19   H48   S    
C6    C47   A    
C13   C19   S    
C36   H34   S    
O9    C49   S    
C14   C20   S    
C4    C6    A    
Cu1   O8    S    
C52   H24   S    
C4    C23   S    
C51   H21   S    
C56   H41   S    
C47   O15   S    
C8    C18   A    
Cu1   N2    S    
C21   N1    A    
C35   H33   S    
C11   H14   S    
C52   H25   S    
C43   C45   A    
C25   O14   S    
C38   H4    S    
C56   H42   S    
C53   H27   S    
C21   H15   S    
C33   C34   D    
C16   C18   A    
C43   H35   S    
C9    C11   A    
C55   H39   S    
C10   C12   A    
C8    C10   A    
C12   C14   A    
C54   H32   S    
C13   C15   A    
C9    H43   S    
C50   H12   S    
C14   C16   A    
C34   H19   S    
C50   H11   S    
C35   C45   A    
C48   O16   S    
C4    C48   A    
C26   O13   S    
C15   C17   A    
C21   C25   A    
Cu1   O4    S    
C1    C7    S    
Cu2   N1    S    
C29   O11   S    
C2    C8    S    
C16   H2    S    
O10   C50   S    
C3    C5    A    
C51   H23   S    
C1    O3    A    
C22   N2    A    
C25   C27   A    
C26   C28   A    
Cu1   O1    S    
Cu2   O2    S    
C23   O7    A    
C36   C38   A    
C22   H16   S    
C28   C30   A    
C29   C31   A    
O15   C55   S    
C52   H26   S    
C38   C40   A    
C11   C13   A    
C31   N1    A    
O12   C52   S    
C49   H9    S    
C3    C47   A    
O14   C54   S    
C24   O6    A    
C51   H22   S    
Cu2   O7    S    
C55   H38   S    
C10   H44   S    
C18   H45   S    
C17   H46   S    
C49   H8    S    
Cu1   Cu2   S    
C22   C26   A    
C5    C40   S    
Cu2   O3    S    
C6    C39   S    
C2    O4    A    
