data_mof_unit_8471.cif
_audit_creation_date              2013-03-05T15:51:49-0500
_audit_creation_method            fapswitch 2.2
_symmetry_space_group_name_H-M    P1
_symmetry_Int_Tables_number       1
_space_group_crystal_system       triclinic
_cell_length_a                    10.967918
_cell_length_b                    10.962792
_cell_length_c                    18.809814
_cell_angle_alpha                 90.557192
_cell_angle_beta                  90.194344
_cell_angle_gamma                 60.201297
_cell_volume                      1962.53188592

loop_
_atom_site_label
_atom_site_type_symbol
_atom_site_description
_atom_site_fract_x
_atom_site_fract_y
_atom_site_fract_z
_atom_type_partial_charge
O1    O     O_R   0.507380 0.255700 0.581440 -0.536508
O2    O     O_R   0.280320 0.527350 0.578930 -0.504013
C1    C     C_R   0.239589 0.645645 0.610390 0.540549
O3    O     O_R   0.260510 0.739590 0.584590 -0.534172
O4    O     O_R   0.532300 0.695080 0.573820 -0.511007
C2    C     C_R   0.653463 0.621985 0.601106 0.539059
O5    O     O_R   0.744840 0.503500 0.576370 -0.530400
O6    O     O_R   0.699120 0.276560 0.571960 -0.502304
C3    C     C_R   0.630090 0.225889 0.601879 0.535077
O7    O     O_R   0.498940 0.256500 0.419860 -0.525874
O8    O     O_R   0.272500 0.528080 0.429150 -0.510405
C4    C     C_R   0.218784 0.651071 0.402643 0.555190
O9    O     O_R   0.252060 0.740380 0.423010 -0.525259
O10   O     O_R   0.524480 0.695810 0.424040 -0.507153
C5    C     C_R   0.642457 0.622667 0.392266 0.546875
O11   O     O_R   0.736390 0.504290 0.414790 -0.519057
O12   O     O_R   0.691300 0.277290 0.422170 -0.505150
C6    C     C_R   0.617837 0.225899 0.396207 0.550771
Cr1   Cr    Cr6+3 0.392960 0.397920 0.502240 1.002022
Cr2   Cr    Cr6+3 0.398340 0.708480 0.501250 1.003226
Cr3   Cr    Cr6+3 0.708670 0.393570 0.496460 1.007454
O13   O     O_3   0.499990 0.499990 0.499980 -0.246241
C7    C     C_3   0.568487 0.807760 0.783414 -0.233180
H1    H     H_    0.582865 0.899456 0.792622 0.142679
H2    H     H_    0.471382 0.827534 0.811825 0.119708
C8    C     C_3   0.551853 0.792864 0.703250 -0.238459
H3    H     H_    0.447476 0.803945 0.693259 0.138401
H4    H     H_    0.556262 0.878359 0.674089 0.112873
H5    H     H_    0.851456 0.738203 0.781341 0.124681
H6    H     H_    0.817019 0.725598 0.662103 0.116072
C9    C     C_3   0.830324 0.650362 0.770413 -0.217894
C10   C     C_3   0.675387 0.547788 0.799789 -0.251899
C11   C     C_3   0.698265 0.673492 0.812446 0.049967
H7    H     H_    0.765033 0.449928 0.821344 0.132335
H8    H     H_    0.578313 0.565284 0.827428 0.124508
C12   C     C_3   0.669532 0.647768 0.676524 0.057188
C13   C     C_3   0.812121 0.639135 0.690109 -0.248489
C14   C     C_3   0.662219 0.530574 0.719563 -0.213311
H9    H     H_    0.562339 0.530692 0.708349 0.127590
H10   H     H_    0.750723 0.427292 0.702813 0.148780
H11   H     H_    0.922737 0.550975 0.787968 0.143331
H12   H     H_    0.899925 0.537969 0.669604 0.131848
C15   C     C_R   0.682437 0.151443 0.822228 0.017283
C16   C     C_R   0.778066 0.175693 0.784986 -0.006308
C17   C     C_R   0.772055 0.185136 0.710975 0.012722
C18   C     C_R   0.579199 0.139764 0.709501 -0.180690
C19   C     C_R   0.575891 0.145340 0.782648 -0.170623
C20   C     C_3   0.933665 0.096264 0.786127 -0.272237
C21   C     C_3   0.928588 0.104222 0.705624 -0.281786
C22   C     C_R   0.674227 0.164453 0.672110 0.015978
H13   H     H_    0.498620 0.127417 0.682372 0.128627
H14   H     H_    0.493832 0.133236 0.807608 0.137686
H15   H     H_    0.972714 0.989157 0.806805 0.172368
H16   H     H_    0.978545 0.157336 0.811347 0.129340
H17   H     H_    0.971853 0.169082 0.684167 0.131843
H18   H     H_    0.966977 0.000862 0.678647 0.145734
C23   C     C_R   0.180340 0.667526 0.834943 0.014517
C24   C     C_R   0.154045 0.576071 0.793880 0.016460
C25   C     C_R   0.162748 0.573743 0.720141 -0.004494
C26   C     C_R   0.211912 0.764187 0.725855 -0.173126
C27   C     C_R   0.212017 0.760405 0.799712 -0.178070
C28   C     C_3   0.227764 0.419682 0.797162 -0.281932
C29   C     C_3   0.235050 0.417741 0.716713 -0.271499
C30   C     C_R   0.194440 0.665848 0.684696 0.013279
H19   H     H_    0.230679 0.841927 0.701231 0.132539
H20   H     H_    0.226878 0.837575 0.829038 0.133568
H21   H     H_    0.159506 0.379966 0.818093 0.133567
H22   H     H_    0.331296 0.376860 0.823771 0.145698
H23   H     H_    0.342861 0.373530 0.695708 0.179838
H24   H     H_    0.169588 0.378737 0.690781 0.123701
C31   C     C_R   0.654154 0.675681 0.168837 0.084913
C32   C     C_R   0.714785 0.543213 0.200048 0.062134
C33   C     C_R   0.715728 0.531430 0.272599 0.062190
C34   C     C_R   0.573582 0.781739 0.286799 -0.168355
C35   C     C_R   0.576975 0.795433 0.212767 -0.087370
C36   C     C_3   0.858241 0.416368 0.193298 -0.284930
C37   C     C_3   0.860988 0.408453 0.273558 -0.280391
C38   C     C_R   0.652315 0.648734 0.317556 0.016149
H25   H     H_    0.514551 0.874472 0.319745 0.117189
H26   H     H_    0.525814 0.899697 0.190430 0.156315
H27   H     H_    0.939742 0.437446 0.172129 0.155561
H28   H     H_    0.854612 0.327258 0.166853 0.141657
H29   H     H_    0.864845 0.312771 0.293913 0.149414
H30   H     H_    0.937770 0.434033 0.298358 0.130915
C39   C     C_R   0.664727 0.133268 0.180688 0.032671
C40   C     C_R   0.555181 0.133222 0.217231 0.012854
C41   C     C_R   0.548412 0.144031 0.289847 0.016205
C42   C     C_R   0.777552 0.123120 0.293856 -0.164024
C43   C     C_R   0.781790 0.117071 0.219800 -0.155521
C44   C     C_3   0.401103 0.225274 0.207493 -0.278114
C45   C     C_3   0.392218 0.239629 0.287554 -0.262597
C46   C     C_R   0.653221 0.153513 0.328517 0.026086
H31   H     H_    0.865479 0.116700 0.323232 0.114848
H32   H     H_    0.875018 0.102580 0.193213 0.122236
H33   H     H_    0.350396 0.166741 0.185797 0.148531
H34   H     H_    0.373647 0.324960 0.179887 0.162515
H35   H     H_    0.361556 0.347548 0.305799 0.180613
H36   H     H_    0.333875 0.192038 0.312263 0.126979
C47   C     C_R   0.097539 0.701129 0.191844 0.063805
C48   C     C_R   0.092976 0.813028 0.229757 0.020841
C49   C     C_R   0.113383 0.805777 0.301454 -0.017095
C50   C     C_R   0.112132 0.585978 0.303334 -0.168148
C51   C     C_R   0.094915 0.592418 0.229403 -0.164504
C52   C     C_3   0.174301 0.887396 0.217615 0.091910
C53   C     C_3   0.198751 0.879106 0.296857 -0.237146
C54   C     C_R   0.137510 0.685253 0.338122 0.029359
H37   H     H_    0.122164 0.495714 0.331392 0.116656
H38   H     H_    0.090310 0.508339 0.201628 0.117718
H39   H     H_    0.110482 0.996525 0.197951 0.098365
H40   H     H_    0.310798 0.811571 0.311528 0.197383
H41   H     H_    0.145525 0.983885 0.323506 0.086582
O14   O     O_R   0.089400 0.825690 0.930570 -0.517417
O15   O     O_R   0.818460 0.054440 0.929850 -0.501022
C55   C     C_R   0.702176 0.099643 0.895252 0.541898
O16   O     O_R   0.606060 0.077150 0.915510 -0.534340
O17   O     O_R   0.646550 0.806680 0.917570 -0.505619
C56   C     C_R   0.723029 0.687750 0.888382 0.547363
O18   O     O_R   0.837170 0.593410 0.915250 -0.526467
O19   O     O_R   0.065200 0.635530 0.931570 -0.499106
C57   C     C_R   0.119004 0.705512 0.905982 0.549531
O20   O     O_R   0.068260 0.828890 0.091840 -0.481876
O21   O     O_R   0.798870 0.057410 0.079340 -0.520004
C58   C     C_R   0.677618 0.101918 0.105635 0.545968
O22   O     O_R   0.584930 0.080350 0.076780 -0.513299
O23   O     O_R   0.626960 0.809650 0.067060 -0.477935
C59   C     C_R   0.696821 0.691651 0.098135 0.564148
O24   O     O_R   0.816040 0.596610 0.076510 -0.539121
O25   O     O_R   0.045610 0.638500 0.081060 -0.522413
C60   C     C_R   0.079680 0.716911 0.116009 0.586046
Cr4   Cr    Cr6+3 0.937650 0.938540 0.007610 1.037546
Cr5   Cr    Cr6+3 0.625330 0.937370 0.994520 1.037295
Cr6   Cr    Cr6+3 0.937940 0.625230 0.001190 1.010163
O26   O     O_3   0.833640 0.833710 0.001100 -0.270272
N1    N     N_R   0.302082 0.802524 0.175900 0.078210
O27   O     O_R   0.383291 0.669439 0.189069 -0.368749
O28   O     O_R   0.324420 0.855642 0.119199 -0.348315

loop_
_geom_bond_atom_site_label_1
_geom_bond_atom_site_label_2
_geom_bond_distance
_ccdc_geom_bond_type
C24   C28   1.490261 S    
C47   C51   1.403886 A    
C53   H40   1.109912 S    
C11   C56   1.474306 S    
O11   Cr3   2.081314 S    
C41   C45   1.500311 S    
O20   Cr4   2.077833 S    
C32   C36   1.499578 S    
O25   C60   1.271740 A    
C55   O16   1.257078 A    
C23   C24   1.398490 A    
C58   O22   1.271462 A    
O4    Cr2   1.954325 S    
O16   Cr5   2.078892 S    
C1    C30   1.461994 S    
C20   H16   1.111485 S    
O8    Cr1   1.955463 S    
C8    H3    1.105168 S    
C59   O24   1.265737 A    
C52   N1    1.463817 S    
C28   H21   1.111010 S    
C12   C13   1.539705 S    
C14   H10   1.107381 S    
C15   C55   1.465273 S    
C39   C40   1.386465 A    
O4    C2    1.271421 A    
C5    C38   1.451793 S    
C37   H29   1.101029 S    
C5    O11   1.266461 A    
C48   C52   1.496744 S    
O17   C56   1.267735 A    
C7    C8    1.535110 S    
C13   H12   1.113034 S    
O24   Cr6   2.081253 S    
C42   H31   1.081657 S    
C27   H20   1.083481 S    
C29   H23   1.104109 S    
O6    C3    1.274949 A    
C7    C11   1.555274 S    
C7    H1    1.104259 S    
C9    C11   1.557609 S    
C31   C59   1.452062 S    
C50   C54   1.405757 A    
C51   H38   1.077886 S    
C10   C14   1.534196 S    
C35   H26   1.080810 S    
C42   C43   1.393739 A    
C53   H41   1.111676 S    
C31   C35   1.414901 A    
C41   C46   1.404602 A    
O25   Cr6   1.956327 S    
C52   C53   1.509144 S    
O19   Cr6   1.961570 S    
C49   C53   1.510100 S    
C20   H15   1.105150 S    
O1    Cr1   2.076747 S    
O15   Cr4   1.958312 S    
C47   C60   1.439524 S    
C10   H8    1.113328 S    
O10   Cr2   1.965008 S    
C44   H33   1.111610 S    
Cr1   O13   1.984630 S    
O1    C3    1.275834 A    
C36   C37   1.512355 S    
C34   C35   1.404645 A    
C36   H28   1.110131 S    
O14   C57   1.272434 A    
C39   C43   1.410964 A    
C40   C41   1.368960 A    
Cr6   O26   1.983357 S    
N1    O28   1.300881 A    
C37   H30   1.111292 S    
C24   C25   1.389738 A    
C21   H17   1.111703 S    
C18   H13   1.083649 S    
O12   Cr3   1.954197 S    
C9    C13   1.534746 S    
H6    C13   1.113264 S    
C26   C27   1.390241 A    
C10   H7    1.113293 S    
C15   C16   1.395431 A    
C28   C29   1.514999 S    
O23   Cr5   1.958230 S    
C47   C48   1.392167 A    
C29   H24   1.111292 S    
C17   C21   1.493426 S    
O7    Cr1   2.080917 S    
C33   C38   1.395152 A    
O12   C6    1.283846 A    
C25   C30   1.395853 A    
C50   H37   1.082306 S    
C42   C46   1.394935 A    
C45   H35   1.108166 S    
C44   H34   1.112427 S    
C2    O5    1.267149 A    
C23   C57   1.458879 S    
C8    C12   1.548262 S    
C20   C21   1.516854 S    
Cr2   O13   1.983452 S    
C26   H19   1.079763 S    
C34   H25   1.083067 S    
C40   C44   1.488031 S    
O23   C59   1.276188 A    
Cr4   O26   1.984044 S    
C1    O3    1.262620 A    
C16   C17   1.395885 A    
O15   C55   1.291578 A    
C49   C54   1.400176 A    
C18   C19   1.376445 A    
C9    H11   1.109327 S    
O9    Cr2   2.073292 S    
O2    Cr1   1.962261 S    
O10   C5    1.280305 A    
C8    H4    1.112160 S    
C3    C22   1.456701 S    
O20   C60   1.259769 A    
C32   C33   1.371540 A    
Cr5   O26   1.986698 S    
O6    Cr3   1.960413 S    
C36   H27   1.104758 S    
C43   H32   1.077658 S    
O19   C57   1.275766 A    
C23   C27   1.401031 A    
C19   H14   1.082057 S    
C21   H18   1.111216 S    
C18   C22   1.394009 A    
N1    O27   1.302795 A    
C25   C29   1.485965 S    
C28   H22   1.109598 S    
C26   C30   1.409410 A    
C6    C46   1.441913 S    
C10   C11   1.534795 S    
C12   C14   1.560620 S    
O2    C1    1.281647 A    
C31   C32   1.396390 A    
H5    C9    1.113983 S    
O5    Cr3   2.074832 S    
C56   O18   1.269362 A    
C4    C54   1.441316 S    
C44   C45   1.511024 S    
C14   H9    1.114264 S    
O17   Cr5   1.957656 S    
C17   C22   1.403704 A    
O7    C6    1.255890 A    
C48   C49   1.362903 A    
C2    C12   1.470844 S    
C39   C58   1.440388 S    
C7    H2    1.113111 S    
C45   H36   1.111867 S    
C50   C51   1.400481 A    
O18   Cr6   2.077610 S    
O3    Cr2   2.086198 S    
C4    O9    1.259156 A    
O22   Cr5   2.077152 S    
C34   C38   1.402870 A    
C33   C37   1.490516 S    
C52   H39   1.110215 S    
O14   Cr4   2.082203 S    
O21   C58   1.267326 A    
Cr3   O13   1.987353 S    
C15   C19   1.412507 A    
O21   Cr4   1.960547 S    
C16   C20   1.481315 S    
O8    C4    1.278761 A    
