data_mof_unit_53075.cif
_audit_creation_date              2013-03-05T16:07:19-0500
_audit_creation_method            fapswitch 2.2
_symmetry_space_group_name_H-M    P1
_symmetry_Int_Tables_number       1
_space_group_crystal_system       triclinic
_cell_length_a                    6.956015
_cell_length_b                    13.591109
_cell_length_c                    20.281087
_cell_angle_alpha                 103.138194
_cell_angle_beta                  90.340684
_cell_angle_gamma                 90.213981
_cell_volume                      1867.12675092

loop_
_atom_site_label
_atom_site_type_symbol
_atom_site_description
_atom_site_fract_x
_atom_site_fract_y
_atom_site_fract_z
_atom_type_partial_charge
O1    O     O_R   0.506770 0.599700 0.449550 -0.576688
O2    O     O_R   0.179980 0.595740 0.587960 -0.606662
O3    O     O_R   0.004580 0.400300 0.550450 -0.595447
C1    C     C_R   0.348514 0.617754 0.615078 0.922357
O4    O     O_R   0.177380 0.611700 0.452380 -0.593570
O5    O     O_R   0.001970 0.416370 0.413900 -0.594390
C2    C     C_R   0.345754 0.638735 0.436107 1.035219
O6    O     O_R   0.509390 0.583630 0.586100 -0.599406
O7    O     O_3   0.337530 0.435890 0.487530 -0.275107
V1    V     V_3+5 0.064660 0.511890 0.502310 1.179954
O8    O     O_R   0.671950 0.404260 0.412040 -0.575023
C3    C     C_R   0.840450 0.382161 0.384944 0.980039
O9    O     O_R   0.674540 0.388300 0.547620 -0.599573
C4    C     C_R   0.843519 0.361994 0.564511 0.916990
V2    V     V_3+5 0.564030 0.488110 0.497690 1.190260
O10   O     O_3   0.841030 0.564110 0.512470 -0.284184
C5    C     C_R   0.884826 0.110650 0.610580 -0.176097
H1    H     H_    0.879551 0.160528 0.517534 0.103582
H2    H     H_    0.905444 0.985389 0.693199 0.127009
H3    H     H_    0.900180 0.032054 0.584666 0.117303
C6    C     C_R   0.853110 0.285055 0.604369 -0.082540
C7    C     C_R   0.838982 0.316387 0.930990 -0.359509
C8    C     C_R   0.825167 0.393639 0.895806 0.622618
C9    C     C_R   0.831532 0.369730 0.825154 -0.242011
C10   C     C_R   0.851481 0.268660 0.787782 0.000765
C11   C     C_R   0.865303 0.190905 0.824364 0.104796
C12   C     C_R   0.857734 0.242148 0.715376 0.125487
C13   C     C_R   0.877616 0.138837 0.681567 0.189930
C14   C     C_R   0.890438 0.064241 0.718657 -0.246110
C15   C     C_R   0.884308 0.089668 0.788833 -0.195013
C16   C     C_R   0.845358 0.314378 0.675044 -0.244330
C17   C     C_R   0.872967 0.183408 0.572249 -0.179295
C18   C     C_R   0.859091 0.215901 0.896014 -0.190840
H4    H     H_    0.830559 0.394055 0.696613 0.101064
H5    H     H_    0.833514 0.334449 0.985840 0.120468
H6    H     H_    0.819945 0.432566 0.801253 0.141581
H7    H     H_    0.894592 0.028882 0.815091 0.110145
C19   C     C_R   0.720965 0.173454 0.230055 0.182694
C20   C     C_R   0.868678 0.181561 0.184962 -0.233727
C21   C     C_R   0.020412 0.248964 0.210138 -0.150815
H8    H     H_    0.140246 0.256688 0.177968 0.147725
C22   C     C_R   0.012505 0.312409 0.275596 -0.095479
H9    H     H_    0.126778 0.366681 0.291784 0.195838
C23   C     C_R   0.852633 0.310643 0.317819 -0.231047
C24   C     C_R   0.713316 0.235773 0.294789 0.142896
C25   C     C_3   0.499839 0.242641 0.292029 -0.452906
C26   C     C_3   0.508752 0.175682 0.221071 -0.469226
H10   H     H_    0.450621 0.320181 0.292874 0.249101
H11   H     H_    0.428670 0.205524 0.328987 0.177396
H12   H     H_    0.466697 0.214756 0.180687 0.203294
H13   H     H_    0.442510 0.100437 0.217167 0.185424
C27   C     C_R   0.500393 0.679111 0.730242 0.170250
C28   C     C_R   0.352101 0.683826 0.684212 -0.221574
C29   C     C_R   0.196140 0.748137 0.707944 -0.156435
H14   H     H_    0.077202 0.753702 0.674476 0.133183
C30   C     C_R   0.197379 0.810800 0.773659 -0.147985
H15   H     H_    0.080479 0.863050 0.788651 0.128364
C31   C     C_R   0.354872 0.811320 0.817571 -0.229127
C32   C     C_R   0.502274 0.741734 0.795079 0.186103
C33   C     C_3   0.713626 0.759037 0.792863 -0.454723
C34   C     C_3   0.711388 0.690639 0.722307 -0.478358
H16   H     H_    0.793403 0.726574 0.830515 0.209723
H17   H     H_    0.748738 0.839010 0.793273 0.183204
H18   H     H_    0.789411 0.618495 0.719188 0.192198
H19   H     H_    0.745358 0.730783 0.681760 0.189228
C35   C     C_R   0.317569 0.886625 0.386389 -0.156132
H20   H     H_    0.342555 0.839820 0.479954 0.121084
H21   H     H_    0.250805 0.006905 0.302870 0.126680
H22   H     H_    0.300351 0.965312 0.411837 0.118562
C36   C     C_R   0.351480 0.712936 0.394020 -0.245236
C37   C     C_R   0.426405 0.685971 0.068895 -0.145929
C38   C     C_R   0.468490 0.613823 0.105341 -0.101914
C39   C     C_R   0.446720 0.636062 0.175307 -0.088891
C40   C     C_R   0.369480 0.729459 0.210477 0.109891
C41   C     C_R   0.334057 0.804594 0.173064 0.111336
C42   C     C_R   0.343215 0.753938 0.282350 -0.065876
C43   C     C_R   0.314943 0.856844 0.315551 0.170659
C44   C     C_R   0.280807 0.929184 0.277873 -0.216462
C45   C     C_R   0.282149 0.902505 0.207675 -0.225319
C46   C     C_R   0.343049 0.680867 0.322835 0.288408
C47   C     C_R   0.341647 0.815437 0.425228 -0.233396
C48   C     C_R   0.363715 0.781957 0.102152 -0.187446
H23   H     H_    0.453222 0.668826 0.014897 0.131807
H24   H     H_    0.502088 0.580873 0.200927 0.169601
H25   H     H_    0.526528 0.541569 0.079570 0.124758
H26   H     H_    0.249138 0.960516 0.180754 0.130670
O11   O     O_R   0.203450 0.916320 0.913910 -0.597613
O12   O     O_R   0.535520 0.888300 0.047620 -0.589962
O13   O     O_R   0.710860 0.083650 0.086100 -0.593525
C49   C     C_R   0.367246 0.861341 0.063949 0.936021
O14   O     O_R   0.532860 0.904250 0.912040 -0.599988
O15   O     O_R   0.708190 0.099710 0.949550 -0.594067
C50   C     C_R   0.364127 0.882573 0.884802 0.946041
O16   O     O_R   0.206120 0.900260 0.050460 -0.593312
O17   O     O_3   0.375280 0.064080 0.012470 -0.277727
V3    V     V_3+5 0.648180 0.988110 0.997690 1.167675
O18   O     O_R   0.038220 0.111740 0.952370 -0.595579
C51   C     C_R   0.869170 0.138107 0.935566 0.961102
O19   O     O_R   0.040880 0.095790 0.087940 -0.605734
C52   C     C_R   0.872986 0.117028 0.115311 0.942845
V4    V     V_3+5 0.148800 0.011950 0.002300 1.161746
O20   O     O_3   0.871820 0.935920 0.987530 -0.274066
N1    N     N_R   0.304012 0.576250 0.293599 0.202195
O21   O     O_R   0.417510 0.506711 0.305962 -0.472008
O22   O     O_R   0.153402 0.550339 0.255090 -0.429072
O23   O     O_3   0.804722 0.493575 0.928979 -0.770621
H27   H     H_    0.802187 0.498200 0.978484 0.309803

loop_
_geom_bond_atom_site_label_1
_geom_bond_atom_site_label_2
_geom_bond_distance
_ccdc_geom_bond_type
O12   V3    2.026253 S    
V4    O20   2.169595 S    
V3    O20   1.706233 S    
C1    C28   1.483222 S    
C39   C40   1.416617 A    
C29   H14   1.080768 S    
O17   V3    2.154108 S    
C1    O6    1.304062 A    
C2    C36   1.462407 S    
C38   H25   1.082889 S    
O15   C51   1.293591 A    
C43   C44   1.395748 A    
C23   C24   1.401402 A    
C7    H5    1.084259 S    
C6    C16   1.399168 A    
C25   H11   1.111674 S    
C9    H6    1.076596 S    
C40   C42   1.432468 A    
C33   H17   1.111312 S    
C4    C6    1.461337 S    
C13   C14   1.395804 A    
C31   C50   1.483029 S    
C27   C34   1.488990 S    
O5    C3    1.299038 A    
C19   C20   1.400149 A    
C35   H22   1.084061 S    
O23   H27   0.991890 S    
V2    O10   2.169543 S    
O18   C51   1.296624 A    
O15   V3    2.025185 S    
C5    H3    1.083977 S    
C30   H15   1.080312 S    
C33   H16   1.111620 S    
C18   C51   1.466873 S    
C7    C18   1.396472 A    
C36   C47   1.395122 A    
C19   C24   1.392670 A    
O14   V3    2.009103 S    
O11   V4    1.999992 S    
O8    V2    2.000415 S    
O16   V4    2.022673 S    
C8    C9    1.396402 A    
O1    V2    2.021157 S    
O7    V1    2.154108 S    
C39   H24   1.076057 S    
C37   C48   1.398100 A    
C21   C22   1.410610 A    
C32   C33   1.490547 S    
O9    C4    1.296463 A    
C22   C23   1.411039 A    
C49   O16   1.295134 A    
C26   H12   1.111055 S    
C37   H23   1.084042 S    
H21   C44   1.084352 S    
C6    C17   1.394756 A    
C29   C30   1.409057 A    
C40   C41   1.425187 A    
O13   C52   1.301791 A    
C12   C16   1.415996 A    
C9    C10   1.417755 A    
C20   C21   1.409843 A    
O4    C2    1.293122 A    
C44   C45   1.387056 A    
C26   H13   1.106193 S    
C46   N1    1.434905 S    
C10   C11   1.425773 A    
C28   C29   1.412316 A    
C8    O23   1.380155 S    
C36   C46   1.410834 A    
C15   H7    1.082234 S    
C33   C34   1.518849 S    
C34   H18   1.111823 S    
O2    C1    1.296630 A    
C14   C15   1.387115 A    
C27   C32   1.394499 A    
C34   H19   1.111346 S    
O14   C50   1.298180 A    
C11   C18   1.416099 A    
O19   C52   1.301073 A    
C16   H4    1.077337 S    
N1    O22   1.301539 A    
C42   C43   1.422572 A    
C19   C26   1.487550 S    
O3    C4    1.294013 A    
C21   H8    1.080967 S    
O19   V4    2.000214 S    
O12   C49   1.292511 A    
C11   C15   1.407715 A    
O6    V2    1.999614 S    
O9    V2    2.019780 S    
H1    C17   1.083513 S    
C22   H9    1.079868 S    
O2    V1    2.009053 S    
C12   C13   1.423277 A    
C27   C28   1.398528 A    
C35   C43   1.401240 A    
C25   C26   1.519611 S    
O1    C2    1.294918 A    
C5    C13   1.404370 A    
C42   C46   1.425199 A    
C38   C39   1.391304 A    
O5    V1    2.004705 S    
O8    C3    1.304316 A    
C41   C48   1.417184 A    
H20   C47   1.083709 S    
C10   C12   1.431243 A    
C48   C49   1.464600 S    
O13   V3    2.004809 S    
C31   C32   1.403745 A    
O4    V1    2.026414 S    
C3    C23   1.485178 S    
O3    V1    2.025171 S    
V1    O10   1.706329 S    
C35   C47   1.389507 A    
C20   C52   1.484257 S    
O11   C50   1.302556 A    
C30   C31   1.406712 A    
O7    V2    1.717497 S    
C25   H10   1.105746 S    
C24   C25   1.489741 S    
C37   C38   1.386605 A    
N1    O21   1.300130 A    
C5    C17   1.392232 A    
C7    C8    1.400464 A    
C41   C45   1.405662 A    
C45   H26   1.080752 S    
O18   V4    2.019753 S    
O17   V4    1.716907 S    
H2    C14   1.084410 S    
