data_mof_unit_33443.cif
_audit_creation_date              2012-12-10T17:16:38-0500
_audit_creation_method            fapswitch 2.2
_symmetry_space_group_name_H-M    P1
_symmetry_Int_Tables_number       1
_space_group_crystal_system       triclinic
_cell_length_a                    10.189911
_cell_length_b                    10.673594
_cell_length_c                    10.81793
_cell_angle_alpha                 90.927055
_cell_angle_beta                  95.40767
_cell_angle_gamma                 77.453385
_cell_volume                      1143.37008511

loop_
_atom_site_label
_atom_site_type_symbol
_atom_type_description
_atom_site_fract_x
_atom_site_fract_y
_atom_site_fract_z
_atom_type_partial_charge
C1    C     C_R   0.443936 0.504746 0.267151 0.938982
C2    C     C_R   0.556529 0.487962 0.732769 0.940753
C3    C     C_2   0.412745 0.495506 0.135119 -0.381054
C4    C     C_2   0.589510 0.469043 0.864482 -0.382717
C5    C     C_2   0.514996 0.456087 0.065647 -0.147929
C6    C     C_2   0.490450 0.459499 0.933416 -0.160788
C7    C     C_2   0.072794 0.494888 0.486647 -0.019575
C8    C     C_2   0.926986 0.505742 0.512854 -0.018498
C9    C     C_R   0.508022 0.258086 0.509666 0.876824
C10   C     C_R   0.492041 0.741956 0.490542 0.882088
C11   C     C_R   0.737251 0.056181 0.418797 -0.090531
C12   C     C_R   0.263431 0.943769 0.582690 -0.089455
C13   C     C_R   0.811962 0.974246 0.335139 0.064054
C14   C     C_R   0.188848 0.025781 0.666395 0.065144
C15   C     C_R   0.759496 0.874052 0.281017 -0.257917
C16   C     C_R   0.241234 0.126184 0.720157 -0.259183
C17   C     C_R   0.642767 0.847029 0.320566 -0.120990
C18   C     C_R   0.357771 0.153272 0.680281 -0.120481
C19   C     C_R   0.575574 0.920621 0.414965 0.087462
C20   C     C_R   0.424862 0.079522 0.585924 0.089121
C21   C     C_R   0.612459 0.034832 0.452786 0.033764
C22   C     C_R   0.388039 0.965205 0.548284 0.032870
C23   C     C_R   0.475436 0.879534 0.474868 -0.222526
C24   C     C_R   0.524885 0.120578 0.525899 -0.219671
H1    H     H_    0.188289 0.187919 0.788336 0.130009
H2    H     H_    0.812529 0.812401 0.212833 0.131297
H3    H     H_    0.782584 0.130148 0.462190 0.205515
H4    H     H_    0.218046 0.869716 0.539583 0.205545
H5    H     H_    0.607033 0.765976 0.279334 0.150207
H6    H     H_    0.393462 0.234471 0.721245 0.146887
H7    H     H_    0.387559 0.463760 0.893117 0.184859
H8    H     H_    0.619369 0.429835 0.105668 0.183926
H9    H     H_    0.692091 0.465005 0.905188 0.148462
H10   H     H_    0.308653 0.522017 0.094681 0.147337
H11   H     H_    0.888367 0.563832 0.589835 0.145677
H12   H     H_    0.111186 0.437391 0.409225 0.145787
N1    N     N_2   0.157300 0.551390 0.551120 -0.061372
N2    N     N_2   0.842700 0.448610 0.448880 -0.060054
O1    O     O_R   0.568940 0.489660 0.307530 -0.617985
O2    O     O_R   0.431060 0.510340 0.692470 -0.617837
O3    O     O_R   0.348880 0.522640 0.340350 -0.615995
O4    O     O_R   0.651120 0.477360 0.659650 -0.615900
O5    O     O_R   0.610030 0.300280 0.483580 -0.629680
O6    O     O_R   0.389970 0.699720 0.516420 -0.626914
O7    O     O_R   0.389970 0.333270 0.516400 -0.603100
O8    O     O_R   0.610030 0.666730 0.483600 -0.601097
Zn1   Zn    Zn3+2 0.646940 0.477980 0.478080 0.944959
Zn2   Zn    Zn3+2 0.353060 0.522020 0.521920 0.944704
C25   C     C_2   0.946214 0.989429 0.305194 0.381188
H13   H     H_    0.994988 0.933557 0.230955 0.051950
O9    O     O_2   0.005714 0.061450 0.364832 -0.595502
C26   C     C_2   0.054771 0.010465 0.696744 0.382664
H14   H     H_    0.006037 0.066560 0.770879 0.051942
O10   O     O_2   0.995380 0.938054 0.637574 -0.595532
C27   C     C_3   0.882591 0.375904 0.339315 -0.628379
H15   H     H_    0.801022 0.327605 0.303015 0.232082
H16   H     H_    0.899549 0.440881 0.266049 0.176059
H17   H     H_    0.974595 0.300184 0.362325 0.236767
C28   C     C_3   0.117737 0.622908 0.661424 -0.626016
H18   H     H_    0.100389 0.557214 0.733867 0.174390
H19   H     H_    0.199628 0.670433 0.698516 0.237351
H20   H     H_    0.026068 0.699200 0.639082 0.236050

loop_
_geom_bond_atom_site_label_1
_geom_bond_atom_site_label_2
_ccdc_geom_bond_type
C10   O8    A    
C19   C23   A    
C27   H15   S    
C9    C24   S    
C9    O7    A    
C18   H6    S    
C12   C22   A    
C10   C23   S    
C17   H5    S    
C7    H12   S    
C2    C4    S    
C11   H3    S    
C5    H8    S    
C26   O10   D    
C25   O9    D    
C13   C15   A    
C6    H7    S    
C7    N1    D    
C28   H18   S    
C16   C18   A    
N1    Zn2   S    
C11   C13   A    
N2    Zn1   S    
N1    C28   S    
C8    N2    D    
C2    O4    A    
C13   C25   S    
C1    C3    S    
C4    C6    D    
C19   C21   A    
O3    Zn2   S    
C20   C22   A    
C18   C20   A    
O4    Zn1   S    
C27   H16   S    
C5    C6    S    
C20   C24   A    
C14   C16   A    
C9    O5    A    
C28   H19   S    
C21   C24   A    
C10   O6    A    
C28   H20   S    
C2    O2    A    
C7    C8    S    
C26   H14   S    
C12   H4    S    
O1    Zn1   S    
C25   H13   S    
C27   H17   S    
C1    O3    A    
C16   H1    S    
C15   C17   A    
C1    O1    A    
O8    Zn1   S    
C15   H2    S    
O7    Zn2   S    
C3    H10   S    
C17   C19   A    
C4    H9    S    
O5    Zn1   S    
O2    Zn2   S    
C11   C21   A    
C22   C23   A    
C14   C26   S    
N2    C27   S    
O6    Zn2   S    
C12   C14   A    
C3    C5    D    
C8    H11   S    
