data_mof_unit_56449.cif
_audit_creation_date              2012-12-10T19:44:32-0500
_audit_creation_method            fapswitch 2.2
_symmetry_space_group_name_H-M    P1
_symmetry_Int_Tables_number       1
_space_group_crystal_system       triclinic
_cell_length_a                    8.578123
_cell_length_b                    14.983703
_cell_length_c                    14.142782
_cell_angle_alpha                 90.111201
_cell_angle_beta                  98.640965
_cell_angle_gamma                 89.858455
_cell_volume                      1797.15951

loop_
_atom_site_label
_atom_site_type_symbol
_atom_type_description
_atom_site_fract_x
_atom_site_fract_y
_atom_site_fract_z
_atom_type_partial_charge
C1    C     C_R   0.504957 0.327713 0.500147 0.896306
C2    C     C_R   0.373125 0.537025 0.883590 0.532100
C3    C     C_R   0.500777 0.500458 0.053271 0.035708
C4    C     C_R   0.500123 0.500742 0.946757 0.043002
C5    C     C_R   0.200933 0.500801 0.475062 0.969833
C6    C     C_R   0.799068 0.500213 0.524970 0.965629
C7    C     C_2   0.035923 0.502982 0.461651 -0.389285
C8    C     C_2   0.964087 0.500294 0.538543 -0.399076
C9    C     C_R   0.458683 0.092634 0.571012 -0.163731
C10   C     C_R   0.459618 0.907681 0.422920 -0.159429
C11   C     C_R   0.450889 0.184503 0.569200 -0.211831
C12   C     C_R   0.505409 0.672239 0.500788 0.901036
C13   C     C_R   0.452900 0.815855 0.422470 -0.197911
C14   C     C_R   0.518709 0.231782 0.500563 -0.161411
C15   C     C_R   0.520779 0.768051 0.503134 -0.164696
C16   C     C_R   0.598771 0.186584 0.434036 -0.163304
C17   C     C_R   0.600466 0.812608 0.584768 -0.152294
C18   C     C_R   0.605200 0.093994 0.436319 0.605911
C19   C     C_R   0.605094 0.905321 0.584624 0.603788
C20   C     C_R   0.534560 0.047828 0.504350 0.016009
C21   C     C_R   0.534408 0.951981 0.503931 0.011763
C22   C     C_R   0.681272 0.233912 0.364370 0.207223
C23   C     C_R   0.371040 0.467708 0.092728 -0.278352
C24   C     C_R   0.608367 0.244396 0.269296 -0.056981
C25   C     C_R   0.685843 0.290067 0.203843 -0.142611
C26   C     C_R   0.836964 0.324386 0.232625 -0.118702
C27   C     C_R   0.910756 0.313186 0.326927 -0.133915
C28   C     C_R   0.832825 0.268691 0.392975 -0.108186
C29   C     C_R   0.683191 0.764211 0.669052 0.201975
C30   C     C_R   0.623354 0.766088 0.756177 -0.074198
C31   C     C_R   0.697628 0.717247 0.834483 -0.138167
C32   C     C_R   0.832544 0.666978 0.826510 -0.053213
C33   C     C_R   0.893369 0.665384 0.740209 -0.115113
C34   C     C_R   0.626994 0.464456 0.906776 -0.306902
C35   C     C_R   0.819017 0.713722 0.661564 -0.124361
C36   C     C_R   0.373370 0.467591 0.192441 -0.020648
C37   C     C_R   0.624260 0.464355 0.807045 -0.020606
C38   C     C_R   0.627218 0.532321 0.216151 -0.075526
C39   C     C_R   0.376149 0.536455 0.784352 -0.106555
C40   C     C_R   0.630674 0.532671 0.116960 0.526393
F1    F     F_    0.682158 0.048815 0.373653 -0.662904
F2    F     F_    0.681512 0.950112 0.661609 -0.665425
F3    F     F_    0.758521 0.566485 0.083563 -0.682092
F4    F     F_    0.248630 0.574820 0.917541 -0.683373
H1    H     H_    0.974003 0.506249 0.388732 0.181663
H2    H     H_    0.722097 0.435741 0.777251 0.152608
H3    H     H_    0.726817 0.558290 0.264151 0.158930
H4    H     H_    0.279137 0.565574 0.736652 0.145270
H5    H     H_    0.491247 0.218119 0.246381 0.121455
H6    H     H_    0.628741 0.298932 0.130845 0.133590
H7    H     H_    0.896900 0.359580 0.181854 0.141971
H8    H     H_    0.028365 0.338993 0.348812 0.131417
H9    H     H_    0.890489 0.261027 0.466075 0.121472
H10   H     H_    0.518020 0.804130 0.762839 0.143224
H11   H     H_    0.650143 0.717961 0.901197 0.176968
H12   H     H_    0.025984 0.497296 0.611484 0.173214
H13   H     H_    0.889550 0.628980 0.887078 0.205284
H14   H     H_    0.997541 0.626253 0.734093 0.144243
H15   H     H_    0.866174 0.711241 0.594720 0.120105
H16   H     H_    0.403162 0.056245 0.623092 0.179716
H17   H     H_    0.404175 0.944458 0.360879 0.181486
H18   H     H_    0.389315 0.218583 0.620329 0.176100
H19   H     H_    0.391728 0.782219 0.359804 0.184826
H20   H     H_    0.269165 0.441302 0.046788 0.194753
H21   H     H_    0.726808 0.435264 0.952306 0.193512
H22   H     H_    0.273436 0.441429 0.221770 0.146212
N1    N     N_R   0.500000 0.499980 0.252470 -0.119376
N2    N     N_R   0.500000 0.500020 0.747530 -0.115348
O1    O     O_R   0.500010 0.369070 0.579480 -0.616071
O2    O     O_R   0.499990 0.630930 0.420520 -0.610347
O3    O     O_R   0.500010 0.369060 0.420520 -0.620206
O4    O     O_R   0.499990 0.630940 0.579480 -0.614862
O5    O     O_R   0.271750 0.500000 0.560890 -0.621080
O6    O     O_R   0.728250 0.500000 0.439110 -0.618005
O7    O     O_R   0.271750 0.499990 0.401930 -0.630456
O8    O     O_R   0.728250 0.500010 0.598070 -0.631158
Zn1   Zn    Zn3+2 0.500000 0.500010 0.606140 0.947508
Zn2   Zn    Zn3+2 0.500000 0.499990 0.393860 0.955506

loop_
_geom_bond_atom_site_label_1
_geom_bond_atom_site_label_2
_ccdc_geom_bond_type
C33   H14   S    
O2    Zn2   S    
C34   C37   A    
C17   C29   S    
C39   N2    A    
C3    C23   A    
C11   H18   S    
C8    H12   S    
C36   N1    A    
C7    C8    D    
C30   H10   S    
C26   C27   A    
C1    O3    A    
C7    H1    S    
C19   C21   A    
C30   C31   A    
C11   C14   A    
C36   H22   S    
C37   N2    A    
N2    Zn1   S    
C35   H15   S    
C25   H6    S    
O4    Zn1   S    
C33   C35   A    
O1    Zn1   S    
C2    C39   A    
C40   F3    S    
C2    F4    S    
C18   C20   A    
C19   F2    S    
C12   O4    A    
C22   C28   A    
N1    Zn2   S    
C32   H13   S    
C34   H21   S    
C6    O6    A    
O8    Zn1   S    
C10   C21   A    
C4    C34   A    
C24   C25   A    
C18   F1    S    
C5    C7    S    
C6    C8    S    
C25   C26   A    
C1    O1    A    
C5    O7    A    
C2    C4    A    
C29   C30   A    
C9    C20   A    
C31   C32   A    
C13   H19   S    
C12   C15   S    
C38   N1    A    
C9    C11   A    
C38   H3    S    
C23   H20   S    
C3    C40   A    
C13   C15   A    
C14   C16   A    
C10   H17   S    
C3    C4    S    
C27   H8    S    
C24   H5    S    
C15   C17   A    
C12   O2    A    
C16   C22   S    
C10   C13   A    
C28   H9    S    
C6    O8    A    
C29   C35   A    
C9    H16   S    
C32   C33   A    
C26   H7    S    
C38   C40   A    
C17   C19   A    
C22   C24   A    
C5    O5    A    
O7    Zn2   S    
C20   C21   S    
C16   C18   A    
C23   C36   A    
O6    Zn2   S    
C27   C28   A    
O5    Zn1   S    
C1    C14   S    
C31   H11   S    
C37   H2    S    
O3    Zn2   S    
C39   H4    S    
