data_mof_unit_66591.cif
_audit_creation_date              2012-12-10T19:48:35-0500
_audit_creation_method            fapswitch 2.2
_symmetry_space_group_name_H-M    P1
_symmetry_Int_Tables_number       1
_space_group_crystal_system       triclinic
_cell_length_a                    11.286301
_cell_length_b                    10.675849
_cell_length_c                    9.509286
_cell_angle_alpha                 90.105286
_cell_angle_beta                  89.38646
_cell_angle_gamma                 94.981254
_cell_volume                      1141.38855605

loop_
_atom_site_label
_atom_site_type_symbol
_atom_type_description
_atom_site_fract_x
_atom_site_fract_y
_atom_site_fract_z
_atom_type_partial_charge
C1    C     C_R   0.504179 0.259999 0.500482 0.795933
C2    C     C_R   0.507043 0.740324 0.500604 0.785145
C3    C     C_R   0.872600 0.500103 0.501920 -0.100515
C4    C     C_R   0.128558 0.499180 0.495021 -0.113360
C5    C     C_R   0.938457 0.469738 0.621817 0.028306
C6    C     C_R   0.064013 0.533876 0.375111 0.026061
C7    C     C_3   0.567032 0.049025 0.618408 -0.226191
C8    C     C_3   0.455266 0.951355 0.389653 -0.210658
C9    C     C_3   0.623780 0.971955 0.502026 0.152584
C10   C     C_3   0.398731 0.027114 0.506740 0.216172
C11   C     C_3   0.513602 0.877356 0.503676 -0.016615
C12   C     C_3   0.507984 0.122877 0.503356 -0.010174
C13   C     C_3   0.456615 0.951893 0.620805 -0.227583
C14   C     C_3   0.566629 0.048047 0.387024 -0.217832
C15   C     C_3   0.544698 0.605338 0.046893 0.286718
C16   C     C_3   0.453633 0.394944 0.952291 0.278246
C17   C     C_3   0.438728 0.587734 0.949458 -0.050880
C18   C     C_3   0.559745 0.412038 0.049730 -0.051017
C19   C     C_3   0.605301 0.519294 0.945838 -0.054834
C20   C     C_3   0.393364 0.481626 0.053353 -0.084070
C21   C     C_R   0.262450 0.500915 0.499221 0.757989
C22   C     C_R   0.738086 0.500684 0.500323 0.756686
C23   C     C_R   0.208883 0.778902 0.136786 -0.162000
C24   C     C_R   0.805597 0.334643 0.954337 -0.177165
C25   C     C_R   0.172319 0.711393 0.256695 -0.159046
C26   C     C_R   0.838904 0.347313 0.813961 -0.156905
C27   C     C_R   0.122528 0.586331 0.246841 0.129863
C28   C     C_R   0.887651 0.463654 0.763448 0.084137
C29   C     C_R   0.115715 0.525212 0.112892 0.116138
C30   C     C_R   0.901969 0.570519 0.852903 0.101954
C31   C     C_R   0.154616 0.596985 0.994382 -0.179742
C32   C     C_R   0.871962 0.554361 0.996245 -0.157491
C33   C     C_R   0.196966 0.722959 0.005716 -0.165117
C34   C     C_R   0.824068 0.437147 0.045724 -0.174670
C35   C     C_R   0.938971 0.535578 0.381533 -0.273874
C36   C     C_R   0.062407 0.462998 0.614809 -0.265766
Cu1   Cu    Cu3+1 0.500030 0.499990 0.643150 0.934639
Cu2   Cu    Cu3+1 0.499970 0.500010 0.356850 0.934071
H1    H     H_    0.224254 0.776265 0.912398 0.128312
H2    H     H_    0.793315 0.427431 0.153129 0.159860
H3    H     H_    0.396337 0.665727 0.899862 0.130719
H4    H     H_    0.599642 0.331241 0.097610 0.116853
H5    H     H_    0.682628 0.554305 0.884120 0.173991
H6    H     H_    0.313417 0.456827 0.113830 0.154665
H7    H     H_    0.245215 0.875208 0.144550 0.125648
H8    H     H_    0.764664 0.245565 0.992240 0.123585
H9    H     H_    0.178416 0.758449 0.357709 0.122672
H10   H     H_    0.828300 0.266313 0.744941 0.123251
H11   H     H_    0.155289 0.554068 0.891805 0.136379
H12   H     H_    0.878410 0.632355 0.068566 0.130472
H13   H     H_    0.893454 0.571063 0.293196 0.155481
H14   H     H_    0.108207 0.433507 0.706782 0.144237
H15   H     H_    0.613668 0.090533 0.711982 0.133802
H16   H     H_    0.409166 0.909910 0.296127 0.140306
H17   H     H_    0.411437 0.911271 0.716776 0.134649
H18   H     H_    0.611854 0.088571 0.291091 0.131592
N1    N     N_3   0.500090 0.499970 0.858290 -0.189874
N2    N     N_3   0.499910 0.500030 0.141710 -0.179591
O1    O     O_R   0.500060 0.316850 0.620870 -0.578878
O2    O     O_R   0.499940 0.683150 0.379130 -0.576571
O3    O     O_R   0.500000 0.316860 0.379090 -0.588453
O4    O     O_R   0.500000 0.683140 0.620910 -0.590606
O5    O     O_R   0.319670 0.500010 0.620890 -0.586459
O6    O     O_R   0.680330 0.499990 0.379110 -0.597135
O7    O     O_R   0.319620 0.500010 0.379110 -0.575911
O8    O     O_R   0.680380 0.499990 0.620890 -0.581088
C37   C     C_3   0.603038 0.730860 0.095904 -0.877162
H19   H     H_    0.637513 0.786056 0.003251 0.193974
H20   H     H_    0.537298 0.785366 0.150474 0.249643
H21   H     H_    0.678198 0.714355 0.165071 0.232330
C38   C     C_3   0.395980 0.270052 0.898806 -0.869733
H22   H     H_    0.352297 0.216266 0.987449 0.195975
H23   H     H_    0.327966 0.286659 0.819091 0.245188
H24   H     H_    0.464686 0.213359 0.853369 0.244059
C39   C     C_3   0.085410 0.384158 0.084108 -0.422501
C40   C     C_3   0.026757 0.300858 0.201229 -0.312114
C41   C     C_3   0.000522 0.164953 0.151665 -0.881511
H25   H     H_    0.981424 0.103135 0.243744 0.252707
H26   H     H_    0.921660 0.155718 0.083516 0.248492
H27   H     H_    0.076048 0.132043 0.090611 0.257494
H28   H     H_    0.085992 0.304224 0.292293 0.225565
H29   H     H_    0.942251 0.333298 0.238351 0.230173
H30   H     H_    0.031507 0.373248 0.988636 0.230612
H31   H     H_    0.166067 0.341262 0.048567 0.168742
C42   C     C_3   0.943993 0.698713 0.790582 -0.397606
C43   C     C_3   0.932465 0.813817 0.885868 -0.355338
C44   C     C_3   0.988199 0.933805 0.815755 -0.885531
H32   H     H_    0.950426 0.945923 0.710084 0.258893
H33   H     H_    0.970618 0.016503 0.881009 0.245770
H34   H     H_    0.085931 0.930337 0.804785 0.248190
H35   H     H_    0.836950 0.823960 0.907761 0.210569
H36   H     H_    0.978186 0.803767 0.987187 0.238060
H37   H     H_    0.037852 0.697186 0.754874 0.205981
H38   H     H_    0.889559 0.712365 0.696201 0.194921
C45   C     C_3   0.753743 0.943789 0.511247 -0.440456
C46   C     C_3   0.794245 0.873408 0.381905 -0.352845
C47   C     C_3   0.926825 0.856020 0.387245 -0.886680
H39   H     H_    0.979773 0.946605 0.407019 0.251671
H40   H     H_    0.945131 0.789783 0.472247 0.260818
H41   H     H_    0.955379 0.817408 0.285182 0.249220
H42   H     H_    0.744503 0.779263 0.378179 0.222231
H43   H     H_    0.776158 0.926357 0.285018 0.224610
H44   H     H_    0.809221 0.034463 0.522333 0.197148
H45   H     H_    0.764039 0.886137 0.606718 0.198340
C48   C     C_3   0.266826 0.047266 0.516713 -0.449491
C49   C     C_3   0.232750 0.156665 0.427655 -0.334696
C50   C     C_3   0.272828 0.148675 0.273885 -0.779810
H46   H     H_    0.368995 0.140208 0.261479 0.257141
H47   H     H_    0.223810 0.067416 0.222693 0.232267
H48   H     H_    0.257214 0.236177 0.218626 0.238928
H49   H     H_    0.134522 0.155674 0.433506 0.198033
H50   H     H_    0.269852 0.246462 0.474208 0.211566
H51   H     H_    0.213987 0.959446 0.484634 0.188684
H52   H     H_    0.243813 0.066380 0.628194 0.166433

loop_
_geom_bond_atom_site_label_1
_geom_bond_atom_site_label_2
_ccdc_geom_bond_type
C14   H18   S    
C44   H32   S    
C4    C36   A    
C23   H7    S    
C46   H43   S    
C27   C29   A    
C45   C46   S    
C9    C14   S    
Cu1   O4    S    
C10   C48   S    
C49   H50   S    
C41   H25   S    
C19   N1    S    
C15   C19   S    
C1    C12   S    
C33   H1    S    
C34   H2    S    
C48   H51   S    
C24   C26   A    
C43   H35   S    
C18   H4    S    
C2    O2    A    
C39   H31   S    
C49   C50   S    
C5    C36   A    
C17   C20   S    
C6    C35   A    
C15   C17   S    
C18   C19   S    
C22   O8    A    
C47   H40   S    
Cu2   N2    S    
C42   H37   S    
C18   N2    S    
C19   H5    S    
C23   C33   A    
C50   H46   S    
C31   C33   A    
C9    C45   S    
C36   H14   S    
C26   H10   S    
Cu2   O3    S    
C46   H42   S    
Cu1   O8    S    
C50   H47   S    
C16   C38   S    
C31   H11   S    
C2    C11   S    
Cu1   O5    S    
C45   H44   S    
C47   H39   S    
Cu2   O6    S    
C49   H49   S    
C41   H26   S    
C7    C12   S    
C37   H19   S    
C48   H52   S    
C40   C41   S    
C4    C6    A    
C40   H29   S    
C38   H23   S    
C43   C44   S    
C42   C43   S    
C24   C34   A    
C37   H20   S    
C32   C34   A    
C39   C40   S    
Cu1   Cu2   S    
C5    C28   S    
C42   H38   S    
C6    C27   S    
Cu2   O7    S    
C3    C35   A    
C16   C20   S    
C15   C37   S    
C46   C47   S    
C30   C42   S    
C9    C11   S    
C32   H12   S    
Cu1   O1    S    
C10   C12   S    
Cu2   O2    S    
C16   C18   S    
C12   C14   S    
C20   H6    S    
C44   H33   S    
C35   H13   S    
C15   N2    S    
C7    H15   S    
C20   N2    S    
C47   H41   S    
C45   H45   S    
C41   H27   S    
C7    C9    S    
C25   H9    S    
C8    C14   S    
C21   O7    A    
C3    C5    A    
C10   C13   S    
C1    O3    A    
C40   H28   S    
C38   H24   S    
C29   C39   S    
C25   C27   A    
C48   C49   S    
C26   C28   A    
C8    H16   S    
C37   H21   S    
C24   H8    S    
C1    O1    A    
C38   H22   S    
C29   C31   A    
C43   H36   S    
C30   C32   A    
C4    C21   S    
C11   C13   S    
C39   H30   S    
C8    C11   S    
C28   C30   A    
C50   H48   S    
C16   N1    S    
C23   C25   A    
C17   H3    S    
C21   O5    A    
C22   O6    A    
C7    C13   S    
C8    C10   S    
C44   H34   S    
C3    C22   S    
Cu1   N1    S    
C2    O4    A    
C17   N1    S    
C13   H17   S    
