data_mof_unit_35101.cif
_audit_creation_date              2012-12-10T17:31:08-0500
_audit_creation_method            fapswitch 2.2
_symmetry_space_group_name_H-M    P1
_symmetry_Int_Tables_number       1
_space_group_crystal_system       triclinic
_cell_length_a                    12.0105
_cell_length_b                    12.819566
_cell_length_c                    15.634708
_cell_angle_alpha                 86.307046
_cell_angle_beta                  116.456831
_cell_angle_gamma                 94.747357
_cell_volume                      2146.73737572

loop_
_atom_site_label
_atom_site_type_symbol
_atom_type_description
_atom_site_fract_x
_atom_site_fract_y
_atom_site_fract_z
_atom_type_partial_charge
C1    C     C_R   0.475461 0.299392 0.497612 0.886530
C2    C     C_R   0.524539 0.700608 0.502388 0.886531
C3    C     C_R   0.514495 0.361319 0.042491 -0.246136
C4    C     C_R   0.485504 0.638681 0.957509 -0.246136
C5    C     C_R   0.597605 0.328397 0.011882 -0.019821
C6    C     C_R   0.402394 0.671603 0.988118 -0.019821
C7    C     C_R   0.543005 0.812450 0.506944 -0.102319
C8    C     C_R   0.456995 0.187550 0.493056 -0.102319
C9    C     C_R   0.334889 0.029727 0.423118 -0.259137
C10   C     C_R   0.665111 0.970273 0.576882 -0.259137
C11   C     C_R   0.341247 0.136975 0.433990 -0.021031
C12   C     C_R   0.658753 0.863025 0.566010 -0.021031
C13   C     C_R   0.563086 0.131350 0.542396 -0.285230
C14   C     C_R   0.436914 0.868650 0.457604 -0.285229
C15   C     C_R   0.557365 0.025484 0.530195 0.154793
C16   C     C_R   0.442635 0.974515 0.469805 0.154793
C17   C     C_R   0.006044 0.603656 0.412932 -0.090410
C18   C     C_R   0.993956 0.396343 0.587068 -0.090410
C19   C     C_R   0.126459 0.592860 0.421791 -0.016124
C20   C     C_R   0.873541 0.407140 0.578209 -0.016124
C21   C     C_R   0.159569 0.454782 0.536916 -0.034522
C22   C     C_R   0.840431 0.545218 0.463084 -0.034522
C23   C     C_R   0.577523 0.497515 0.680034 0.878464
C24   C     C_R   0.422477 0.502485 0.319966 0.878464
C25   C     C_R   0.039001 0.462081 0.531529 -0.005867
C26   C     C_R   0.960999 0.537918 0.468471 -0.005867
C27   C     C_R   0.625079 0.487310 0.783454 -0.093148
C28   C     C_R   0.374921 0.512690 0.216546 -0.093148
C29   C     C_R   0.707024 0.360418 0.912611 -0.190383
C30   C     C_R   0.292975 0.639582 0.087389 -0.190383
C31   C     C_R   0.706487 0.408457 0.830622 -0.212702
C32   C     C_R   0.293513 0.591543 0.169378 -0.212702
C33   C     C_R   0.564911 0.535696 0.828727 -0.064730
C34   C     C_R   0.435089 0.464304 0.171273 -0.064731
C35   C     C_R   0.572807 0.491388 0.916969 0.046223
C36   C     C_R   0.427192 0.508612 0.083031 0.046223
C37   C     C_R   0.629819 0.394196 0.949964 0.099019
C38   C     C_R   0.370180 0.605804 0.050035 0.099019
C39   C     C_R   0.514431 0.533041 0.967859 0.035551
C40   C     C_R   0.485568 0.466958 0.032140 0.035551
H1    H     H_    0.838758 0.356918 0.620503 0.126869
H2    H     H_    0.161242 0.643081 0.379497 0.126869
H3    H     H_    0.244807 0.626622 0.203240 0.156154
H4    H     H_    0.755192 0.373378 0.796760 0.156154
H5    H     H_    0.758872 0.290938 0.940945 0.154742
H6    H     H_    0.241127 0.709061 0.059054 0.154742
H7    H     H_    0.474604 0.303526 0.075882 0.171633
H8    H     H_    0.525395 0.696474 0.924118 0.171633
H9    H     H_    0.348508 0.829055 0.411594 0.154547
H10   H     H_    0.651492 0.170944 0.588406 0.154547
H11   H     H_    0.246908 0.989740 0.377007 0.149484
H12   H     H_    0.753092 0.010260 0.622993 0.149484
H13   H     H_    0.778593 0.602397 0.415492 0.145558
H14   H     H_    0.221407 0.397603 0.584508 0.145558
N1    N     N_R   0.799120 0.480200 0.517090 -0.099581
N2    N     N_R   0.200880 0.519800 0.482910 -0.099581
O1    O     O_R   0.580150 0.341050 0.504560 -0.615776
O2    O     O_R   0.419850 0.658950 0.495440 -0.615776
O3    O     O_R   0.388090 0.353760 0.493600 -0.612377
O4    O     O_R   0.611910 0.646240 0.506400 -0.612377
O5    O     O_R   0.650890 0.490020 0.640860 -0.620257
O6    O     O_R   0.349110 0.509980 0.359140 -0.620257
O7    O     O_R   0.458830 0.502730 0.629890 -0.601401
O8    O     O_R   0.541170 0.497270 0.370110 -0.601401
Zn1   Zn    Zn3+2 0.628240 0.491510 0.507320 0.959188
Zn2   Zn    Zn3+2 0.371760 0.508490 0.492680 0.959188
C41   C     C_1   0.638425 0.222988 0.037984 0.165415
N3    N     N_1   0.671019 0.138669 0.058998 -0.191153
C42   C     C_1   0.361573 0.777012 0.962016 0.165414
N4    N     N_1   0.328979 0.861331 0.941002 -0.191153
C43   C     C_1   0.931314 0.682203 0.346345 0.112680
N5    N     N_1   0.871374 0.745099 0.292939 -0.196641
C44   C     C_1   0.068685 0.317797 0.653656 0.112680
N6    N     N_1   0.128626 0.254901 0.707061 -0.196641
C45   C     C_R   0.523474 0.382158 0.226926 0.112313
C46   C     C_R   0.479222 0.287528 0.254921 -0.182438
C47   C     C_R   0.562372 0.212568 0.310587 -0.105521
C48   C     C_R   0.690180 0.231981 0.339883 -0.085479
C49   C     C_R   0.735159 0.326198 0.313181 -0.127061
C50   C     C_R   0.652444 0.401310 0.257243 -0.090043
H15   H     H_    0.380539 0.272119 0.233671 0.128003
H16   H     H_    0.527767 0.139640 0.331502 0.145349
H17   H     H_    0.754406 0.174137 0.383564 0.133246
H18   H     H_    0.834248 0.341381 0.336437 0.142863
H19   H     H_    0.688606 0.474690 0.238235 0.129825
C51   C     C_R   0.476527 0.617842 0.773074 0.112313
C52   C     C_R   0.347557 0.598691 0.742756 -0.090043
C53   C     C_R   0.264843 0.673803 0.686818 -0.127061
C54   C     C_R   0.309822 0.768020 0.660117 -0.085478
C55   C     C_R   0.437630 0.787432 0.689414 -0.105521
C56   C     C_R   0.520779 0.712473 0.745080 -0.182439
H20   H     H_    0.311394 0.525311 0.761763 0.129825
H21   H     H_    0.165753 0.658621 0.663562 0.142863
H22   H     H_    0.245596 0.825864 0.616436 0.133246
H23   H     H_    0.472235 0.860361 0.668499 0.145349
H24   H     H_    0.619463 0.727880 0.766330 0.128004
C57   C     C_1   0.769728 0.806705 0.620052 0.182533
N7    N     N_1   0.858586 0.761587 0.663330 -0.201694
C58   C     C_1   0.230272 0.193295 0.379948 0.182533
N8    N     N_1   0.141414 0.238412 0.336670 -0.201694

loop_
_geom_bond_atom_site_label_1
_geom_bond_atom_site_label_2
_ccdc_geom_bond_type
C19   N2    A    
C6    C42   S    
C52   C53   A    
C8    C13   A    
C5    C37   A    
C1    C8    S    
C44   N6    T    
C2    C7    S    
C9    H11   S    
C5    C41   S    
C10   H12   S    
C57   N7    T    
C55   H23   S    
C47   C48   A    
C27   C33   A    
C17   C26   A    
C35   C37   A    
C9    C16   A    
C51   C56   A    
C1    O3    A    
O3    Zn2   S    
C49   H18   S    
C2    O4    A    
C14   H9    S    
C15   C16   A    
C30   C38   A    
C11   C58   S    
C54   H22   S    
C17   C19   A    
C56   H24   S    
C48   H17   S    
O2    Zn2   S    
C7    C14   A    
C6    C38   A    
C23   C27   S    
C45   C50   A    
C34   C36   A    
C19   H2    S    
C34   C45   S    
C23   O7    A    
O7    Zn2   S    
C28   C34   A    
C24   O8    A    
C52   H20   S    
C18   C25   A    
C20   N1    A    
N1    Zn1   S    
C20   H1    S    
C22   H13   S    
C7    C12   A    
C31   H4    S    
O6    Zn2   S    
C27   C31   A    
C41   N3    T    
C28   C32   A    
C46   C47   A    
C4    C6    A    
C39   C40   A    
C51   C52   A    
C25   C26   A    
C49   C50   A    
C29   H5    S    
C35   C39   A    
C45   C46   A    
C50   H19   S    
C1    O1    A    
C58   N8    T    
C4    C39   A    
C36   C40   A    
C9    C11   A    
C12   C57   S    
C10   C12   A    
O4    Zn1   S    
C17   C43   S    
C18   C44   S    
C13   C15   A    
C14   C16   A    
C4    H8    S    
C21   C25   A    
C53   H21   S    
C24   O6    A    
C48   C49   A    
C30   H6    S    
C24   C28   S    
O1    Zn1   S    
C3    C5    A    
C46   H15   S    
C3    C40   A    
C21   N2    A    
C2    O2    A    
C22   N1    A    
C10   C15   A    
O8    Zn1   S    
C36   C38   A    
C43   N5    T    
C29   C31   A    
C30   C32   A    
C55   C56   A    
C21   H14   S    
C47   H16   S    
C8    C11   A    
N2    Zn2   S    
C3    H7    S    
C33   C35   A    
C32   H3    S    
C18   C20   A    
C42   N4    T    
C13   H10   S    
O5    Zn1   S    
C23   O5    A    
C53   C54   A    
C22   C26   A    
C29   C37   A    
C54   C55   A    
C33   C51   S    
