data_mof_unit_21663.cif
_audit_creation_date              2012-12-10T19:53:08-0500
_audit_creation_method            fapswitch 2.2
_symmetry_space_group_name_H-M    P1
_symmetry_Int_Tables_number       1
_space_group_crystal_system       triclinic
_cell_length_a                    15.037175
_cell_length_b                    14.154948
_cell_length_c                    15.782447
_cell_angle_alpha                 90.195483
_cell_angle_beta                  90.503547
_cell_angle_gamma                 90.098864
_cell_volume                      3359.14617261

loop_
_atom_site_label
_atom_site_type_symbol
_atom_type_description
_atom_site_fract_x
_atom_site_fract_y
_atom_site_fract_z
_atom_type_partial_charge
C1    C     C_R   0.327649 0.499922 0.499228 0.864311
C2    C     C_R   0.185250 0.414204 0.500695 -0.164226
C3    C     C_R   0.231777 0.499815 0.495514 -0.025638
C4    C     C_R   0.048267 0.499992 0.488412 0.159476
C5    C     C_R   0.904939 0.440361 0.436464 -0.220921
C6    C     C_R   0.909433 0.561136 0.545525 -0.206518
C7    C     C_R   0.498479 0.499992 0.338380 0.922190
C8    C     C_R   0.812810 0.439828 0.437647 0.318423
C9    C     C_R   0.817606 0.561386 0.549891 0.408362
C10   C     C_R   0.768404 0.500189 0.495585 -0.311300
C11   C     C_R   0.952487 0.500733 0.489748 -0.042750
C12   C     C_3   0.593759 0.580606 0.953599 0.455117
C13   C     C_R   0.438303 0.104952 0.450896 -0.246696
C14   C     C_R   0.474936 0.894605 0.427364 -0.242431
C15   C     C_R   0.439511 0.204262 0.451718 0.062844
C16   C     C_R   0.474970 0.795319 0.428864 0.039125
C17   C     C_R   0.560502 0.204897 0.548288 0.098358
C18   C     C_R   0.524645 0.795932 0.571261 0.091672
C19   C     C_R   0.561939 0.105602 0.548985 -0.246466
C20   C     C_R   0.525137 0.895243 0.572631 -0.254792
C21   C     C_R   0.500163 0.053454 0.499924 0.131486
C22   C     C_R   0.500164 0.946753 0.499954 0.130535
C23   C     C_3   0.583261 0.588474 0.058018 0.366354
C24   C     C_R   0.672304 0.500036 0.498636 1.014045
C25   C     C_R   0.500429 0.500164 0.661822 0.919356
C26   C     C_3   0.415887 0.537377 0.045936 0.130065
C27   C     C_3   0.542376 0.409712 0.048557 0.159816
C28   C     C_3   0.524617 0.404829 0.952465 0.095749
C29   C     C_3   0.419198 0.538384 0.947631 0.084382
C30   C     C_1   0.506395 0.501239 0.750386 0.016103
C31   C     C_3   0.510741 0.509128 0.084136 -0.389616
C32   C     C_3   0.515502 0.509955 0.916892 -0.365105
C33   C     C_1   0.512018 0.504894 0.825431 0.278497
C34   C     C_1   0.504735 0.504464 0.175167 0.326103
C35   C     C_1   0.500823 0.500892 0.250067 0.071910
C36   C     C_R   0.094462 0.585342 0.481851 -0.133654
C37   C     C_R   0.093455 0.414366 0.497201 -0.139466
C38   C     C_R   0.186173 0.585339 0.485525 -0.162578
H1    H     H_    0.375384 0.479809 0.925824 0.193193
H2    H     H_    0.398672 0.607809 0.068930 0.221675
H3    H     H_    0.059449 0.651675 0.474291 0.159782
H4    H     H_    0.057645 0.348248 0.503102 0.150451
H5    H     H_    0.221117 0.652050 0.480567 0.171813
H6    H     H_    0.219518 0.347466 0.508248 0.165929
H7    H     H_    0.940348 0.394866 0.392995 0.197834
H8    H     H_    0.948159 0.607048 0.586764 0.194398
H9    H     H_    0.759133 0.244973 0.445703 0.342571
H10   H     H_    0.719706 0.782179 0.620221 0.376809
H11   H     H_    0.391668 0.242948 0.413859 0.142675
H12   H     H_    0.458968 0.369815 0.947116 0.205127
H13   H     H_    0.454931 0.756551 0.372745 0.153123
H14   H     H_    0.263642 0.331690 0.062227 0.409199
H15   H     H_    0.579322 0.204233 0.185826 0.395004
H16   H     H_    0.551445 0.184726 0.831560 0.386807
H17   H     H_    0.221432 0.635193 0.841902 0.395057
H18   H     H_    0.526420 0.768264 0.222896 0.383405
H19   H     H_    0.792023 0.473647 0.153351 0.418073
H20   H     H_    0.681984 0.816253 0.891659 0.389158
H21   H     H_    0.794008 0.418809 0.935044 0.411138
H22   H     H_    0.388253 0.069079 0.413006 0.153048
H23   H     H_    0.456334 0.929946 0.369185 0.158904
H24   H     H_    0.608324 0.244089 0.586134 0.143769
H25   H     H_    0.544052 0.757636 0.627599 0.185369
H26   H     H_    0.612047 0.070243 0.586842 0.150799
H27   H     H_    0.543746 0.931103 0.630804 0.159437
H28   H     H_    0.614213 0.406799 0.055134 0.249767
N1    N     N_R   0.499980 0.252470 0.500000 -0.095491
N2    N     N_R   0.499980 0.747530 0.500000 -0.103389
O1    O     O_R   0.369070 0.579480 0.500010 -0.632516
O2    O     O_2   0.820758 0.329155 0.297663 -0.250307
O3    O     O_3   0.710211 0.273839 0.412343 -0.506425
O4    O     O_2   0.689351 0.592856 0.664321 -0.259263
O5    O     O_2   0.834657 0.664391 0.693183 -0.240626
O6    O     O_3   0.736325 0.737689 0.574461 -0.538817
O7    O     O_2   0.316903 0.466088 0.176382 -0.285890
O8    O     O_2   0.237598 0.521240 0.051025 -0.194702
O9    O     O_3   0.318585 0.361127 0.040292 -0.499329
O10   O     O_2   0.438971 0.319604 0.170178 -0.256514
O11   O     O_2   0.475790 0.228362 0.044116 -0.181227
O12   O     O_R   0.369070 0.420520 0.500010 -0.642818
O13   O     O_3   0.600149 0.260626 0.154692 -0.445148
O14   O     O_2   0.638267 0.352743 0.821354 -0.257350
O15   O     O_2   0.651090 0.264930 0.954216 -0.172051
O16   O     O_3   0.514533 0.234724 0.857653 -0.511551
O17   O     O_2   0.338002 0.713352 0.952910 -0.170136
O18   O     O_2   0.396114 0.663709 0.814944 -0.267255
O19   O     O_3   0.254572 0.583498 0.870094 -0.501653
O20   O     O_2   0.623285 0.776929 0.087655 -0.151977
O21   O     O_2   0.466929 0.748943 0.060265 -0.231474
O22   O     O_3   0.529102 0.701701 0.203584 -0.561090
O23   O     O_R   0.500010 0.579510 0.377140 -0.622470
O24   O     O_2   0.756170 0.645593 0.092346 -0.153870
O25   O     O_2   0.672102 0.593881 0.212209 -0.241412
O26   O     O_3   0.737511 0.466936 0.118131 -0.481845
O27   O     O_2   0.602566 0.681518 0.804812 -0.255598
O28   O     O_2   0.511621 0.754914 0.910977 -0.166736
O29   O     O_3   0.680546 0.761673 0.930741 -0.420384
O30   O     O_2   0.702395 0.522915 0.824521 -0.191721
O31   O     O_2   0.776238 0.606078 0.937309 -0.150256
O32   O     O_3   0.735787 0.432857 0.961084 -0.478065
O33   O     O_R   0.500010 0.420490 0.377140 -0.574885
O34   O     O_R   0.630940 0.579480 0.499990 -0.551398
O35   O     O_R   0.630940 0.420520 0.499990 -0.584058
O36   O     O_R   0.500000 0.579440 0.622860 -0.588689
O37   O     O_R   0.500000 0.420560 0.622860 -0.629160
O38   O     O_2   0.685822 0.421442 0.318219 -0.239775
S1    S     S_3+6 0.757061 0.366048 0.362747 0.081061
S2    S     S_3+6 0.703739 0.535753 0.918879 0.156429
S3    S     S_3+6 0.768604 0.638842 0.624731 0.076433
S4    S     S_3+6 0.319752 0.470854 0.081353 0.082402
S5    S     S_3+6 0.509181 0.302619 0.104883 0.130902
S6    S     S_3+6 0.587711 0.314868 0.895376 0.106624
S7    S     S_3+6 0.354215 0.630412 0.895628 0.105654
S8    S     S_3+6 0.548955 0.707157 0.098965 0.114577
S9    S     S_3+6 0.689043 0.573735 0.120209 0.133676
S10   S     S_3+6 0.592959 0.696271 0.898592 0.162601
Zn1   Zn    Zn3+2 0.500010 0.606140 0.500000 1.044300
Zn2   Zn    Zn3+2 0.500010 0.393860 0.500000 1.036227

loop_
_geom_bond_atom_site_label_1
_geom_bond_atom_site_label_2
_ccdc_geom_bond_type
C4    C36   A    
O3    S1    S    
C16   H13   S    
O6    S3    S    
H16   O16   S    
C25   O37   A    
C13   H22   S    
C28   S6    S    
O22   S8    S    
O31   S2    D    
C12   C23   S    
O16   S6    S    
O18   S7    D    
O33   Zn2   S    
C19   C21   A    
C5    C11   A    
C29   C32   S    
O2    S1    D    
N2    Zn1   S    
C18   H25   S    
O38   S1    D    
C18   N2    A    
O30   S2    D    
H15   O13   S    
C34   C35   T    
O25   S9    D    
O1    Zn1   S    
C37   H4    S    
O4    S3    D    
C28   H12   S    
O13   S5    S    
C3    C38   A    
C2    H6    S    
O23   Zn1   S    
O10   S5    D    
C16   N2    A    
C9    C10   A    
C19   H26   S    
C24   O34   A    
H18   O22   S    
C15   N1    A    
C26   C31   S    
C21   C22   S    
C12   C32   S    
O20   S8    D    
H21   O32   S    
C36   H3    S    
H20   O29   S    
C6    C9    A    
O24   S9    D    
C9    S3    S    
O12   Zn2   S    
C17   N1    A    
O32   S2    S    
C27   C31   S    
H10   O6    S    
C20   H27   S    
C28   C32   S    
C6    C11   A    
C12   S2    S    
C10   C24   S    
C14   H23   S    
C5    H7    S    
C1    O1    A    
O29   S10   S    
O14   S6    D    
C17   H24   S    
O27   S10   D    
C7    O23   A    
C29   H1    S    
C31   C34   S    
C13   C21   A    
C4    C11   S    
H9    O3    S    
O34   Zn1   S    
C26   S4    S    
O8    S4    D    
C20   C22   A    
H19   O26   S    
C13   C15   A    
C14   C16   A    
O37   Zn2   S    
O35   Zn2   S    
H14   O9    S    
C8    S1    S    
O36   Zn1   S    
C25   C30   S    
C29   S7    S    
O21   S8    D    
O7    S4    D    
C6    H8    S    
C30   C33   T    
C7    C35   S    
C5    C8    A    
O26   S9    S    
C25   O36   A    
O5    S3    D    
O11   S5    D    
C24   O35   A    
C32   C33   S    
C14   C22   A    
C36   C38   A    
C2    C3    A    
C38   H5    S    
C27   H28   S    
C23   S8    S    
C2    C37   A    
C26   H2    S    
O17   S7    D    
C17   C19   A    
C18   C20   A    
C15   H11   S    
H17   O19   S    
O9    S4    S    
N1    Zn2   S    
O19   S7    S    
C23   S9    S    
C4    C37   A    
C26   C29   S    
C8    C10   A    
C7    O33   A    
C27   C28   S    
C1    O12   A    
O15   S6    D    
O28   S10   D    
C1    C3    S    
C27   S5    S    
C23   C31   S    
C12   S10   S    
