data_mof_unit_11727.cif
_audit_creation_date              2012-12-10T17:48:55-0500
_audit_creation_method            fapswitch 2.2
_symmetry_space_group_name_H-M    P1
_symmetry_Int_Tables_number       1
_space_group_crystal_system       triclinic
_cell_length_a                    10.719701
_cell_length_b                    14.696184
_cell_length_c                    14.715017
_cell_angle_alpha                 65.052588
_cell_angle_beta                  103.381074
_cell_angle_gamma                 103.056764
_cell_volume                      2023.07863425

loop_
_atom_site_label
_atom_site_type_symbol
_atom_type_description
_atom_site_fract_x
_atom_site_fract_y
_atom_site_fract_z
_atom_type_partial_charge
C1    C     C_R   0.479240 0.119765 0.312220 0.826161
C2    C     C_R   0.512668 0.360977 0.079637 0.091445
C3    C     C_R   0.493141 0.321659 0.003671 0.161068
C4    C     C_R   0.259889 0.000253 0.499765 0.814290
C5    C     C_R   0.542966 0.467489 0.053620 0.068412
C6    C     C_R   0.537038 0.533915 0.949773 0.087495
C7    C     C_R   0.519969 0.491713 0.876328 -0.218369
C8    C     C_R   0.499722 0.387533 0.903262 -0.233035
C9    C     C_R   0.582065 0.509574 0.128070 -0.261489
C10   C     C_R   0.604832 0.613603 0.101476 -0.187394
C11   C     C_R   0.586695 0.680114 0.999854 0.119606
C12   C     C_3   0.877573 0.999661 0.498978 0.107444
C13   C     C_R   0.550930 0.640427 0.923061 0.016441
C14   C     C_R   0.603556 0.785732 0.974077 0.398724
C15   C     C_R   0.582843 0.851488 0.871506 -0.301032
C16   C     C_R   0.523026 0.880251 0.687828 0.815240
C17   C     C_R   0.526022 0.708314 0.821924 -0.270924
C18   C     C_R   0.714576 0.284799 0.669111 -0.323589
C19   C     C_R   0.681556 0.203144 0.639404 0.072035
C20   C     C_R   0.519266 0.285343 0.508511 -0.000245
C21   C     C_R   0.548622 0.371559 0.534519 0.006927
C22   C     C_R   0.648223 0.368895 0.617405 0.166844
C23   C     C_3   0.956876 0.985041 0.605431 -0.395887
C24   C     C_R   0.482980 0.459100 0.482415 0.002865
C25   C     C_R   0.517725 0.541836 0.515251 0.076218
C26   C     C_R   0.616711 0.534104 0.599282 -0.218349
C27   C     C_R   0.680554 0.449649 0.648732 -0.204557
C28   C     C_R   0.739921 0.999838 0.499640 0.770333
C29   C     C_R   0.384218 0.466641 0.398551 -0.314738
C30   C     C_R   0.320839 0.551676 0.347404 0.460769
C31   C     C_R   0.351665 0.631973 0.380443 0.049007
C32   C     C_R   0.451628 0.629101 0.463468 -0.080344
C33   C     C_R   0.284385 0.716007 0.330537 -0.280181
C34   C     C_3   0.933358 0.101770 0.419847 -0.402082
C35   C     C_R   0.317294 0.796875 0.361330 0.059157
C36   C     C_R   0.481254 0.714936 0.490169 0.038217
C37   C     C_3   0.034888 0.912716 0.470826 -0.335271
C38   C     C_3   0.892097 0.912318 0.470937 -0.371940
C39   C     C_3   0.100750 0.984893 0.605492 -0.488269
C40   C     C_3   0.078647 0.103419 0.420602 0.246292
C41   C     C_3   0.121549 0.000555 0.498742 0.134837
C42   C     C_3   0.278182 0.591536 0.175898 0.062435
C43   C     C_3   0.255477 0.509171 0.134360 -0.784939
C44   C     C_R   0.476817 0.187514 0.204859 -0.049923
C45   C     C_R   0.543416 0.812824 0.795630 -0.096884
C46   C     C_R   0.467604 0.216537 0.029107 -0.195778
C47   C     C_R   0.460838 0.149731 0.129379 -0.187632
C48   C     C_R   0.498629 0.292266 0.179004 -0.251326
Cu1   Cu    Cu3+1 0.465900 0.918260 0.475680 0.935736
Cu2   Cu    Cu3+1 0.534100 0.081740 0.524320 0.931100
H1    H     H_    0.063627 0.838334 0.526463 0.161080
H2    H     H_    0.444001 0.068840 0.147833 0.156401
H3    H     H_    0.502242 0.318637 0.237728 0.145821
H4    H     H_    0.047457 0.920911 0.394592 0.206900
H5    H     H_    0.526162 0.537198 0.797392 0.142551
H6    H     H_    0.599729 0.464066 0.208161 0.152855
H7    H     H_    0.756020 0.447415 0.712733 0.142897
H8    H     H_    0.557881 0.720680 0.550095 0.116283
H9    H     H_    0.266278 0.861906 0.322037 0.133033
H10   H     H_    0.791068 0.281960 0.732587 0.140286
H11   H     H_    0.731884 0.137813 0.679804 0.122441
H12   H     H_    0.923155 0.166137 0.437380 0.148412
H13   H     H_    0.443383 0.279478 0.448194 0.123890
H14   H     H_    0.836277 0.921062 0.394524 0.185546
H15   H     H_    0.647463 0.592166 0.629442 0.123167
H16   H     H_    0.353249 0.407536 0.369878 0.150874
H17   H     H_    0.207114 0.719956 0.267394 0.174083
H18   H     H_    0.852718 0.837789 0.526432 0.167696
H19   H     H_    0.130916 0.911618 0.662688 0.175279
H20   H     H_    0.917706 0.912204 0.663202 0.165378
H21   H     H_    0.136965 0.165429 0.444023 0.094111
H22   H     H_    0.877030 0.112866 0.343097 0.179189
H23   H     H_    0.161502 0.046257 0.628317 0.178485
H24   H     H_    0.646857 0.897931 0.018882 0.320676
H25   H     H_    0.383853 0.621821 0.183615 0.140671
H26   H     H_    0.227807 0.655535 0.118975 0.164570
H27   H     H_    0.150437 0.480028 0.123586 0.253746
H28   H     H_    0.290498 0.540844 0.060102 0.215747
H29   H     H_    0.308868 0.445553 0.187596 0.232932
H30   H     H_    0.096304 0.194625 0.281622 0.323200
H31   H     H_    0.948858 0.047115 0.627307 0.177189
H32   H     H_    0.487627 0.358411 0.844727 0.151930
H33   H     H_    0.489426 0.681228 0.761925 0.162884
H34   H     H_    0.596665 0.932645 0.851168 0.149497
H35   H     H_    0.634526 0.641598 0.161708 0.195704
H36   H     H_    0.453981 0.186022 0.971500 0.134034
N1    N     N_R   0.585360 0.204570 0.560800 -0.177846
N2    N     N_R   0.414550 0.795430 0.439160 -0.177639
O1    O     O_R   0.455060 0.022100 0.338110 -0.583496
O2    O     O_3   0.223748 0.553731 0.266338 -0.589676
O3    O     O_3   0.100173 0.121467 0.323311 -0.749693
O4    O     O_R   0.512640 0.160150 0.379180 -0.589527
O5    O     O_R   0.288900 0.930980 0.479450 -0.587997
O6    O     O_R   0.346480 0.069030 0.520520 -0.596650
O7    O     O_R   0.487360 0.839850 0.620820 -0.593746
O8    O     O_R   0.544940 0.977900 0.661890 -0.588588
O9    O     O_R   0.653520 0.930970 0.479480 -0.592156
O10   O     O_R   0.711100 0.069020 0.520550 -0.587987
O11   O     O_3   0.639877 0.822908 0.049903 -0.759356

loop_
_geom_bond_atom_site_label_1
_geom_bond_atom_site_label_2
_ccdc_geom_bond_type
C28   O9    A    
C10   H35   S    
C40   H21   S    
C23   H20   S    
C7    H5    S    
C30   O2    S    
C7    C8    A    
C39   C41   S    
C36   N2    A    
C43   H28   S    
C12   C23   S    
C42   H25   S    
C29   C30   A    
C12   C28   S    
C34   C40   S    
C32   C36   A    
C17   C45   A    
C15   H34   S    
C36   H8    S    
C5    C6    A    
C37   H1    S    
C11   C14   A    
C4    C41   S    
C43   H29   S    
C20   N1    A    
C34   H12   S    
C35   H9    S    
C18   C19   A    
C24   C29   A    
C31   C33   A    
C9    C10   A    
C44   C47   A    
C25   C32   A    
C21   C22   A    
C12   C38   S    
Cu1   N2    S    
C38   H14   S    
C48   H3    S    
Cu2   O10   S    
C16   O8    A    
C14   O11   S    
C24   C25   A    
C3    C8    A    
C27   H7    S    
H24   O11   S    
Cu2   O6    S    
C2    C48   A    
C25   C26   A    
C4    O5    A    
C17   H33   S    
C5    C9    A    
C37   C38   S    
C28   O10   A    
C35   N2    A    
C1    C44   S    
C31   C32   A    
C39   H19   S    
C9    H6    S    
Cu1   O7    S    
C6    C7    A    
Cu2   N1    S    
C4    O6    A    
C37   H4    S    
Cu2   O4    S    
C40   C41   S    
C38   H18   S    
C1    O4    A    
C22   C27   A    
C26   C27   A    
C8    H32   S    
C2    C5    A    
C42   C43   S    
C15   C45   A    
C12   C34   S    
C34   H22   S    
C33   H17   S    
C18   H10   S    
C46   C47   A    
C16   O7    A    
C1    O1    A    
C23   H31   S    
C18   C22   A    
C26   H15   S    
Cu1   O1    S    
C16   C45   S    
C47   H2    S    
C43   H27   S    
C3    C46   A    
C42   H26   S    
C13   C17   A    
Cu1   O5    S    
C20   H13   S    
C2    C3    A    
C19   N1    A    
C6    C13   A    
C11   C13   A    
Cu2   O8    S    
C30   C31   A    
C19   H11   S    
H30   O3    S    
C23   C39   S    
C33   C35   A    
C39   H23   S    
C40   O3    S    
C37   C41   S    
C10   C11   A    
Cu1   O9    S    
C29   H16   S    
C20   C21   A    
Cu1   Cu2   S    
C21   C24   A    
C14   C15   A    
C42   O2    S    
C44   C48   A    
C46   H36   S    
