data_mof_unit_37213.cif
_audit_creation_date              2012-12-11T17:16:04-0500
_audit_creation_method            fapswitch 2.2
_symmetry_space_group_name_H-M    P1
_symmetry_Int_Tables_number       1
_space_group_crystal_system       triclinic
_cell_length_a                    14.784334
_cell_length_b                    7.50546
_cell_length_c                    13.564519
_cell_angle_alpha                 89.559954
_cell_angle_beta                  100.87977
_cell_angle_gamma                 90.600804
_cell_volume                      1478.0019618

loop_
_atom_site_label
_atom_site_type_symbol
_atom_type_description
_atom_site_fract_x
_atom_site_fract_y
_atom_site_fract_z
_atom_type_partial_charge
O1    O     O_R   0.398210 0.494340 0.401550 -0.529436
O2    O     O_R   0.601790 0.994340 0.598450 -0.520185
O3    O     O_R   0.586310 0.821730 0.403360 -0.520279
O4    O     O_R   0.413690 0.321730 0.596640 -0.537027
C1    C     C_R   0.619834 0.657388 0.388534 0.790499
C2    C     C_R   0.385967 0.153016 0.618487 0.775440
O5    O     O_R   0.397970 0.823900 0.389580 -0.530045
O6    O     O_R   0.602030 0.323900 0.610420 -0.527325
O7    O     O_R   0.412100 0.996500 0.584560 -0.487464
O8    O     O_R   0.587900 0.496500 0.415440 -0.528354
C3    C     C_R   0.365882 0.655330 0.363640 0.763058
C4    C     C_R   0.633961 0.155583 0.636537 0.780730
O9    O     O_3   0.504860 0.661550 0.563990 -0.365170
O10   O     O_3   0.495140 0.161550 0.436010 -0.400537
V1    V     V_3+5 0.499100 0.935510 0.488130 1.675689
V2    V     V_3+5 0.500900 0.435510 0.511870 1.641963
C5    C     C_1   0.715592 0.145051 0.716962 -0.059422
C6    C     C_1   0.283936 0.644659 0.283654 -0.075438
C7    C     C_1   0.783896 0.133640 0.783695 -0.023765
C8    C     C_1   0.215376 0.633903 0.217203 -0.013988
C9    C     C_3   0.266998 0.256349 0.849064 0.241665
C10   C     C_3   0.733476 0.755524 0.150451 0.220505
H1    H     H_    0.301153 0.221366 0.923661 0.189856
H2    H     H_    0.693319 0.703740 0.081417 0.207786
C11   C     C_3   0.339323 0.260449 0.780253 -0.397136
C12   C     C_3   0.670476 0.776450 0.229254 -0.378437
H3    H     H_    0.406940 0.219801 0.825479 0.139465
H4    H     H_    0.597313 0.755346 0.192762 0.177744
H5    H     H_    0.354533 0.393594 0.760548 0.269746
H6    H     H_    0.677296 0.915367 0.254702 0.288073
C13   C     C_3   0.138943 0.178220 0.698370 0.559016
C14   C     C_3   0.866785 0.690769 0.298437 0.492527
C15   C     C_3   0.238982 0.937525 0.813277 0.524215
C16   C     C_3   0.755273 0.440263 0.197414 0.556328
C17   C     C_3   0.186488 0.124029 0.812205 -0.427228
C18   C     C_3   0.813462 0.624466 0.188827 -0.382673
C19   C     C_3   0.312884 0.135087 0.687722 -0.327339
C20   C     C_3   0.696249 0.647955 0.322696 -0.285824
C21   C     C_3   0.213148 0.169367 0.628278 0.211181
C22   C     C_3   0.797727 0.693084 0.375343 0.186540
C23   C     C_3   0.309242 0.946375 0.738661 0.137974
C24   C     C_3   0.702947 0.451184 0.288578 0.022890
H7    H     H_    0.378822 0.940859 0.786528 0.166783
H8    H     H_    0.630293 0.412028 0.259945 0.134702
H9    H     H_    0.197906 0.051064 0.580081 0.149947
H10   H     H_    0.821453 0.591344 0.430887 0.188361
O11   O     O_R   0.912140 0.786650 0.084610 -0.499125
O12   O     O_R   0.087860 0.286650 0.915390 -0.504000
O13   O     O_R   0.102040 0.454810 0.110430 -0.534603
O14   O     O_R   0.897960 0.954810 0.889570 -0.526589
C25   C     C_R   0.133639 0.623388 0.136921 0.805921
C26   C     C_R   0.865561 0.123120 0.864079 0.791330
O15   O     O_R   0.913690 0.457060 0.096650 -0.494447
O16   O     O_R   0.086310 0.957060 0.903350 -0.488143
O17   O     O_R   0.898200 0.284560 0.901540 -0.534789
O18   O     O_R   0.101800 0.784560 0.098460 -0.522666
C27   C     C_R   0.883301 0.622537 0.115092 0.802198
C28   C     C_R   0.115310 0.124204 0.883816 0.811845
O19   O     O_3   0.995160 0.617270 0.936040 -0.371138
O20   O     O_3   0.004840 0.117270 0.063960 -0.369207
V3    V     V_3+5 0.000900 0.343280 0.011870 1.807655
V4    V     V_3+5 0.999100 0.843280 0.988130 1.818902
Cl1   Cl    Cl    0.238436 0.463526 0.888011 -0.426571
Cl2   Cl    Cl    0.753829 0.950798 0.084205 -0.478813
S1    S     S_3+6 0.315137 0.748947 0.663734 0.133640
O21   O     O_2   0.259706 0.593832 0.686507 -0.225227
O22   O     O_2   0.288604 0.779125 0.552344 -0.297345
O23   O     O_3   0.427483 0.703133 0.701163 -0.494108
H11   H     H_    0.434796 0.573645 0.703867 0.348976
S2    S     S_3+6 0.740837 0.295119 0.396335 0.143016
O24   O     O_2   0.837611 0.231883 0.404368 -0.145496
O25   O     O_2   0.737877 0.375352 0.496877 -0.321051
O26   O     O_3   0.668463 0.121110 0.382931 -0.446000
H12   H     H_    0.616941 0.152016 0.328011 0.321024
S3    S     S_3+6 0.036660 0.050944 0.638915 0.148317
O27   O     O_2   0.979916 0.991477 0.713994 -0.313729
O28   O     O_2   0.976602 0.166084 0.563023 -0.188603
O29   O     O_3   0.063848 0.871071 0.577559 -0.439336
H13   H     H_    0.057004 0.909185 0.506543 0.407016
S4    S     S_3+6 0.973966 0.569685 0.351392 0.135547
O30   O     O_2   0.993777 0.417808 0.288085 -0.259334
O31   O     O_2   0.056279 0.692423 0.361420 -0.307073
O32   O     O_3   0.971944 0.487660 0.466509 -0.378510
H14   H     H_    0.979171 0.592019 0.511410 0.412732
Cl3   Cl    Cl    0.091319 0.396331 0.698315 -0.309355
Cl4   Cl    Cl    0.909022 0.911823 0.287827 -0.340032
Cl5   Cl    Cl    0.203605 0.339369 0.532676 -0.372341
Cl6   Cl    Cl    0.808597 0.870367 0.463448 -0.372092
Cl7   Cl    Cl    0.150899 0.774545 0.774576 -0.290745
Cl8   Cl    Cl    0.828435 0.257863 0.209257 -0.300714
S5    S     S_3+6 0.306837 0.862342 0.937011 0.017046
O33   O     O_2   0.368487 0.996187 0.999109 -0.384600
O34   O     O_2   0.243399 0.787272 0.000952 -0.318780
O35   O     O_3   0.380288 0.703659 0.915346 -0.450244
H15   H     H_    0.410943 0.661632 0.982699 0.401789
S6    S     S_3+6 0.666572 0.373039 0.087607 0.002624
O36   O     O_2   0.586118 0.497416 0.063169 -0.385341
O37   O     O_2   0.709518 0.351027 0.996471 -0.319549
O38   O     O_3   0.618782 0.179635 0.115734 -0.475760
H16   H     H_    0.572057 0.149905 0.055446 0.400268

loop_
_geom_bond_atom_site_label_1
_geom_bond_atom_site_label_2
_ccdc_geom_bond_type
C3    C6    S    
C13   Cl3   S    
O26   H12   S    
O1    C3    A    
C21   Cl5   S    
O2    C4    A    
O11   V4    S    
O5    C3    A    
C17   C28   S    
C14   C18   S    
C10   H2    S    
C16   S6    S    
C20   C24   S    
C8    C25   S    
C15   S5    S    
C14   S4    S    
S6    O38   S    
C24   S2    S    
C25   O18   A    
C11   C19   S    
O15   V3    S    
C7    C26   S    
O38   H16   S    
O23   H11   S    
S1    O22   D    
S6    O37   D    
C4    C5    S    
O14   C26   A    
S2    O24   D    
C6    C8    T    
C26   O17   A    
C21   H9    S    
O5    V1    S    
O6    V2    S    
C1    C20   S    
C23   H7    S    
C24   H8    S    
C2    O7    A    
S4    O32   S    
C11   H5    S    
C16   C24   S    
O13   V3    S    
S4    O31   D    
C18   C27   S    
S5    O33   D    
O15   C27   A    
O29   H13   S    
C12   C20   S    
C23   S1    S    
O16   V4    S    
O13   C25   A    
S5    O34   D    
O20   V3    S    
O4    V2    S    
C22   H10   S    
S3    O27   D    
C16   Cl8   S    
C15   Cl7   S    
O11   C27   A    
C13   S3    S    
O32   H14   S    
O6    C4    A    
S1    O23   S    
C14   Cl4   S    
S6    O36   D    
S2    O26   S    
C2    C19   S    
O1    V2    S    
O2    V1    S    
S3    O28   D    
O4    C2    A    
C12   H6    S    
C9    H1    S    
O14   V4    S    
O18   V4    S    
C5    C7    T    
O3    V1    S    
O16   C28   A    
C9    C11   S    
O19   V4    S    
S4    O30   D    
O3    C1    A    
O12   C28   A    
C9    C17   S    
C11   H3    S    
C10   C18   S    
C12   H4    S    
C15   C23   S    
C22   Cl6   S    
O7    V1    S    
C1    O8    A    
C19   C21   S    
O8    V2    S    
S5    O35   S    
C20   C22   S    
O12   V3    S    
O17   V3    S    
C13   C17   S    
C15   C17   S    
C13   C21   S    
C16   C18   S    
C14   C22   S    
C19   C23   S    
O35   H15   S    
S3    O29   S    
C9    Cl1   S    
C10   Cl2   S    
S1    O21   D    
C10   C12   S    
O9    V2    S    
O10   V1    S    
S2    O25   D    
