data_mof_unit_8435.cif
_audit_creation_date              2012-12-11T15:37:24-0500
_audit_creation_method            fapswitch 2.2
_symmetry_space_group_name_H-M    P1
_symmetry_Int_Tables_number       1
_space_group_crystal_system       triclinic
_cell_length_a                    17.275589
_cell_length_b                    24.308518
_cell_length_c                    14.666914
_cell_angle_alpha                 90.08678
_cell_angle_beta                  125.663265
_cell_angle_gamma                 89.998726
_cell_volume                      5004.14630889

loop_
_atom_site_label
_atom_site_type_symbol
_atom_type_description
_atom_site_fract_x
_atom_site_fract_y
_atom_site_fract_z
_atom_type_partial_charge
C1    C     C_R   0.808936 0.625197 0.907306 -0.124275
C2    C     C_R   0.149097 0.347359 0.092670 -0.140003
C3    C     C_R   0.149706 0.652532 0.092593 -0.142843
C4    C     C_R   0.809009 0.374568 0.907259 -0.123639
C5    C     C_R   0.309034 0.125426 0.907121 -0.124660
C6    C     C_R   0.649569 0.847507 0.092639 -0.141615
C7    C     C_R   0.649570 0.152573 0.092801 -0.142152
C8    C     C_R   0.308983 0.874586 0.907100 -0.124419
C9    C     C_3   0.424904 0.500572 0.353340 0.183579
C10   C     C_3   0.598731 0.499294 0.531143 0.184895
C11   C     C_3   0.924904 0.000595 0.353378 0.183550
C12   C     C_3   0.098735 0.999290 0.531156 0.184613
C13   C     C_R   0.657015 0.314477 0.900507 -0.167338
C14   C     C_R   0.210936 0.767426 0.102016 -0.172752
C15   C     C_R   0.210028 0.232335 0.102226 -0.172334
C16   C     C_R   0.656910 0.685150 0.900467 -0.168657
C17   C     C_R   0.157027 0.814319 0.899917 -0.168271
C18   C     C_R   0.711090 0.267495 0.102621 -0.172492
C19   C     C_R   0.711169 0.732705 0.102445 -0.172873
C20   C     C_R   0.156826 0.185456 0.900092 -0.168368
C21   C     C_R   0.109437 0.768230 0.898803 -0.173075
C22   C     C_R   0.759571 0.313020 0.103578 -0.170727
C23   C     C_R   0.759533 0.687087 0.103515 -0.172216
C24   C     C_R   0.108554 0.231199 0.899030 -0.173299
C25   C     C_R   0.609195 0.268504 0.899417 -0.170661
C26   C     C_R   0.259178 0.813066 0.102995 -0.172645
C27   C     C_R   0.258999 0.187062 0.103167 -0.172175
C28   C     C_R   0.609279 0.731269 0.899253 -0.171335
C29   C     C_R   0.142690 0.741425 0.999751 0.143900
C30   C     C_R   0.739462 0.332717 0.002325 0.143727
C31   C     C_R   0.739312 0.667049 0.002337 0.144503
C32   C     C_R   0.141387 0.258047 0.999994 0.142490
C33   C     C_R   0.642444 0.241651 0.000329 0.142403
C34   C     C_R   0.239259 0.832691 0.001808 0.144928
C35   C     C_R   0.239271 0.167409 0.001956 0.144493
C36   C     C_R   0.642561 0.758367 0.000102 0.143230
C37   C     C_R   0.071708 0.447696 0.586009 0.233384
C38   C     C_R   0.159199 0.540982 0.570486 0.229193
C39   C     C_R   0.123291 0.444807 0.541059 0.230716
C40   C     C_R   0.138045 0.540353 0.650691 0.211585
C41   C     C_R   0.640572 0.950582 0.655950 0.219517
C42   C     C_R   0.648675 0.049603 0.565591 0.230958
C43   C     C_R   0.648939 0.950781 0.565334 0.232020
C44   C     C_R   0.640596 0.049580 0.656427 0.218941
C45   C     C_R   0.136684 0.493987 0.502963 -0.053563
C46   C     C_R   0.080748 0.496325 0.645886 -0.075877
C47   C     C_R   0.628356 0.000193 0.504011 -0.070894
C48   C     C_R   0.612929 0.000031 0.681052 -0.067212
C49   C     C_R   0.904076 0.376115 0.095202 -0.127729
C50   C     C_R   0.055672 0.651248 0.906017 -0.133848
C51   C     C_R   0.054208 0.348093 0.906417 -0.146321
C52   C     C_R   0.903950 0.623596 0.095329 -0.127094
C53   C     C_R   0.403982 0.875991 0.094990 -0.126345
C54   C     C_R   0.555064 0.151576 0.906403 -0.140879
C55   C     C_R   0.555091 0.848381 0.906239 -0.141356
C56   C     C_R   0.404006 0.124105 0.095040 -0.126349
C57   C     C_R   0.060752 0.544692 0.312279 -0.156842
C58   C     C_R   0.016015 0.453538 0.746700 -0.142462
C59   C     C_R   0.005907 0.545736 0.733862 -0.156255
C60   C     C_R   0.059418 0.453455 0.308906 -0.144461
C61   C     C_R   0.554786 0.045680 0.309260 -0.155242
C62   C     C_R   0.517530 0.953896 0.747196 -0.146292
C63   C     C_R   0.517418 0.046059 0.747107 -0.146819
C64   C     C_R   0.554794 0.954490 0.309246 -0.156140
C65   C     C_R   0.740290 0.454195 0.697828 -0.141171
C66   C     C_R   0.268305 0.545908 0.246502 -0.125632
C67   C     C_R   0.268425 0.454513 0.245544 -0.137135
C68   C     C_R   0.740512 0.545256 0.696856 -0.152689
C69   C     C_R   0.240289 0.954197 0.697828 -0.141619
C70   C     C_R   0.768298 0.045915 0.246503 -0.124561
C71   C     C_R   0.768437 0.954520 0.245575 -0.137668
C72   C     C_R   0.240499 0.045256 0.696867 -0.153186
C73   C     C_R   0.812746 0.637312 0.002138 0.040463
C74   C     C_R   0.116771 0.315660 0.999155 0.052459
C75   C     C_R   0.118259 0.683808 0.998897 0.049858
C76   C     C_R   0.812894 0.362375 0.002043 0.041228
C77   C     C_R   0.312856 0.137797 0.001824 0.040042
C78   C     C_R   0.617849 0.815979 0.999065 0.051687
C79   C     C_R   0.617796 0.184045 0.999312 0.052152
C80   C     C_R   0.312778 0.862349 0.001750 0.040622
C81   C     C_R   0.086934 0.498111 0.379709 0.109187
C82   C     C_R   0.035506 0.498983 0.705860 0.134925
C83   C     C_R   0.579583 0.000140 0.378968 0.120352
C84   C     C_R   0.552738 0.999977 0.724592 0.116906
C85   C     C_R   0.690637 0.499534 0.637289 0.039443
C86   C     C_R   0.323737 0.500397 0.269017 0.029014
C87   C     C_R   0.190628 0.999534 0.637305 0.039755
C88   C     C_R   0.823740 0.000409 0.269067 0.029056
C89   C     C_3   0.531894 0.449575 0.488288 -0.168308
C90   C     C_3   0.491645 0.550369 0.395879 -0.167198
C91   C     C_3   0.501692 0.462189 0.368466 -0.155378
C92   C     C_3   0.521418 0.537500 0.515142 -0.154027
C93   C     C_3   0.032085 0.949475 0.487875 -0.168691
C94   C     C_3   0.991466 0.050485 0.396352 -0.166691
C95   C     C_3   0.001822 0.962458 0.368156 -0.155469
C96   C     C_3   0.021287 0.037248 0.515495 -0.153306
C97   C     C_3   0.454144 0.487884 0.471938 -0.134194
C98   C     C_3   0.571099 0.512096 0.413508 -0.143510
C99   C     C_3   0.954198 0.987537 0.471867 -0.134074
C100  C     C_3   0.071048 0.012462 0.413632 -0.143935
H1    H     H_    0.750528 0.631274 0.820712 0.089702
H2    H     H_    0.187685 0.333826 0.178712 0.083800
H3    H     H_    0.188012 0.666372 0.178505 0.084580
H4    H     H_    0.750589 0.368313 0.820714 0.089566
H5    H     H_    0.250669 0.131448 0.820490 0.089795
H6    H     H_    0.688005 0.833904 0.178616 0.084613
H7    H     H_    0.688009 0.166294 0.178804 0.084856
H8    H     H_    0.250624 0.868361 0.820525 0.089566
H9    H     H_    0.932426 0.371360 0.182529 0.092443
H10   H     H_    0.008350 0.664788 0.820012 0.084535
H11   H     H_    0.005958 0.334116 0.820709 0.087506
H12   H     H_    0.932307 0.628045 0.182788 0.093487
H13   H     H_    0.432253 0.870913 0.182164 0.091399
H14   H     H_    0.507229 0.165380 0.820648 0.085718
H15   H     H_    0.507323 0.834481 0.820426 0.085769
H16   H     H_    0.432217 0.129191 0.182230 0.091425
H17   H     H_    0.078535 0.586766 0.340701 0.113209
H18   H     H_    0.035078 0.411432 0.747155 0.129054
H19   H     H_    0.008764 0.588068 0.713799 0.117470
H20   H     H_    0.077905 0.411096 0.332098 0.117497
H21   H     H_    0.567861 0.088268 0.333714 0.114933
H22   H     H_    0.523769 0.911290 0.732580 0.120516
H23   H     H_    0.523534 0.088643 0.732384 0.120600
H24   H     H_    0.567884 0.911944 0.333716 0.115229
H25   H     H_    0.726884 0.412074 0.668581 0.087879
H26   H     H_    0.290849 0.588399 0.263196 0.097028
H27   H     H_    0.291530 0.412133 0.261780 0.102314
H28   H     H_    0.726502 0.587228 0.666934 0.092826
H29   H     H_    0.226898 0.912082 0.668548 0.087041
H30   H     H_    0.790827 0.088408 0.263174 0.096994
H31   H     H_    0.791578 0.912149 0.261884 0.102555
H32   H     H_    0.226483 0.087224 0.666925 0.093157
H33   H     H_    0.404528 0.478051 0.494604 0.118571
H34   H     H_    0.622346 0.521887 0.393407 0.114041
H35   H     H_    0.904633 0.977402 0.494465 0.119232
H36   H     H_    0.122248 0.022545 0.393602 0.113575
H37   H     H_    0.549402 0.408303 0.527888 0.105990
H38   H     H_    0.473001 0.591456 0.355432 0.110218
H39   H     H_    0.490625 0.431706 0.305443 0.115458
H40   H     H_    0.531132 0.568116 0.577333 0.110590
H41   H     H_    0.049736 0.908109 0.527105 0.105786
H42   H     H_    0.972700 0.091666 0.356282 0.110474
H43   H     H_    0.990852 0.932191 0.304856 0.115285
H44   H     H_    0.030903 0.067650 0.577958 0.111099
H45   H     H_    0.634814 0.331524 0.820700 0.106114
H46   H     H_    0.234509 0.750037 0.182009 0.105713
H47   H     H_    0.233332 0.249768 0.182211 0.105904
H48   H     H_    0.634622 0.667857 0.820700 0.105117
H49   H     H_    0.134892 0.831337 0.820115 0.105953
H50   H     H_    0.734754 0.250037 0.182601 0.106825
H51   H     H_    0.734907 0.750349 0.182411 0.105983
H52   H     H_    0.134915 0.168442 0.820265 0.105542
H53   H     H_    0.053070 0.751178 0.818510 0.106328
H54   H     H_    0.818740 0.328579 0.183797 0.108133
H55   H     H_    0.818745 0.671713 0.183745 0.107971
H56   H     H_    0.052038 0.248051 0.818750 0.107712
H57   H     H_    0.552632 0.251553 0.819119 0.106740
H58   H     H_    0.318085 0.828768 0.183226 0.107900
H59   H     H_    0.318155 0.171644 0.183381 0.107822
H60   H     H_    0.552783 0.748100 0.818939 0.106767
N1    N     N_R   0.892620 0.603790 0.941800 -0.039646
N2    N     N_R   0.107380 0.396210 0.058200 -0.036141
N3    N     N_R   0.107380 0.603790 0.058200 -0.037087
N4    N     N_R   0.892620 0.396210 0.941800 -0.039326
N5    N     N_R   0.392620 0.103790 0.941800 -0.039335
N6    N     N_R   0.607380 0.896210 0.058200 -0.036215
N7    N     N_R   0.607380 0.103790 0.058200 -0.036677
N8    N     N_R   0.392620 0.896210 0.941800 -0.039699
N9    N     N_R   0.952210 0.397600 0.057910 -0.039257
N10   N     N_R   0.047790 0.602400 0.942090 -0.036840
N11   N     N_R   0.047790 0.397600 0.942090 -0.037326
N12   N     N_R   0.952210 0.602400 0.057910 -0.039106
N13   N     N_R   0.452210 0.897600 0.057910 -0.038977
N14   N     N_R   0.547790 0.102400 0.942090 -0.036721
N15   N     N_R   0.547790 0.897600 0.942090 -0.036782
N16   N     N_R   0.452210 0.102400 0.057910 -0.039056
N17   N     N_R   0.026300 0.529110 0.206760 -0.040338
N18   N     N_R   0.973700 0.470890 0.793240 -0.043903
N19   N     N_R   0.973700 0.529110 0.793240 -0.041250
N20   N     N_R   0.026300 0.470890 0.206760 -0.042334
N21   N     N_R   0.526300 0.029110 0.206760 -0.040531
N22   N     N_R   0.473700 0.970890 0.793240 -0.042378
N23   N     N_R   0.473700 0.029110 0.793240 -0.042176
N24   N     N_R   0.526300 0.970890 0.206760 -0.040372
N25   N     N_R   0.818530 0.472270 0.792960 -0.034785
N26   N     N_R   0.181470 0.527730 0.207040 -0.039359
N27   N     N_R   0.181470 0.472270 0.207040 -0.039327
N28   N     N_R   0.818530 0.527730 0.792960 -0.034265
N29   N     N_R   0.318530 0.972270 0.792960 -0.034939
N30   N     N_R   0.681470 0.027730 0.207040 -0.039483
N31   N     N_R   0.681470 0.972270 0.207040 -0.039169
N32   N     N_R   0.318530 0.027730 0.792960 -0.034371
Ni1   Ni    Ni4+2 0.934150 0.565840 0.869060 0.210321
Ni2   Ni    Ni4+2 0.065850 0.434160 0.130940 0.207361
Ni3   Ni    Ni4+2 0.065850 0.565840 0.130940 0.207954
Ni4   Ni    Ni4+2 0.934150 0.434160 0.869060 0.211223
Ni5   Ni    Ni4+2 0.434150 0.065840 0.869060 0.210263
Ni6   Ni    Ni4+2 0.565850 0.934160 0.130940 0.208315
Ni7   Ni    Ni4+2 0.565850 0.065840 0.130940 0.208965
Ni8   Ni    Ni4+2 0.434150 0.934160 0.869060 0.210298
C101  C     C_3   0.998990 0.402624 0.552024 -1.017556
H61   H     H_    0.969941 0.387735 0.466002 0.249698
H62   H     H_    0.032495 0.367109 0.610013 0.250437
H63   H     H_    0.935834 0.417820 0.546403 0.249145
C102  C     C_3   0.211315 0.588654 0.562884 -1.004678
H64   H     H_    0.280490 0.595775 0.644899 0.256458
H65   H     H_    0.229212 0.580188 0.502805 0.242907
H66   H     H_    0.167275 0.626469 0.537018 0.248380
C103  C     C_3   0.165772 0.391026 0.538771 -1.017084
H67   H     H_    0.209942 0.373600 0.624807 0.258726
H68   H     H_    0.109436 0.360752 0.482558 0.248954
H69   H     H_    0.213273 0.397241 0.511680 0.243969
C104  C     C_3   0.177693 0.585150 0.739024 -0.970338
H70   H     H_    0.254229 0.592054 0.776946 0.253454
H71   H     H_    0.138080 0.624093 0.700973 0.244705
H72   H     H_    0.176271 0.573672 0.811042 0.250711
C105  C     C_3   0.672540 0.901051 0.732455 -0.975741
H73   H     H_    0.745132 0.888145 0.761985 0.253832
H74   H     H_    0.679828 0.910554 0.811061 0.248967
H75   H     H_    0.622450 0.866233 0.687629 0.243289
C106  C     C_3   0.691421 0.098500 0.545925 -1.000091
H76   H     H_    0.759235 0.111272 0.624786 0.254629
H77   H     H_    0.712450 0.088116 0.489538 0.242009
H78   H     H_    0.640898 0.133596 0.512037 0.246441
C107  C     C_3   0.692419 0.902198 0.545793 -1.003041
H79   H     H_    0.760608 0.889995 0.624681 0.254435
H80   H     H_    0.642581 0.866711 0.512389 0.247201
H81   H     H_    0.712979 0.912699 0.489042 0.240949
C108  C     C_3   0.672982 0.098970 0.733699 -0.974998
H82   H     H_    0.745797 0.111663 0.763636 0.253643
H83   H     H_    0.623338 0.133939 0.689336 0.243444
H84   H     H_    0.679949 0.089396 0.812038 0.249190

loop_
_geom_bond_atom_site_label_1
_geom_bond_atom_site_label_2
_ccdc_geom_bond_type
C16   C28   A    
C57   N17   A    
C6    N6    A    
C10   C85   S    
C95   H43   S    
N30   N31   A    
C38   C102  S    
C23   H55   S    
C41   C43   A    
C101  H61   S    
C94   C100  S    
C59   C82   A    
C97   H33   S    
C70   C88   A    
C9    C91   S    
C45   C81   S    
N6    Ni6   S    
N18   N19   A    
C53   N13   A    
C15   C32   A    
C5    H5    S    
C102  H64   S    
C16   C31   A    
C40   C46   A    
N6    N15   A    
N23   Ni5   S    
C43   C107  S    
C56   N16   A    
C49   H9    S    
C38   C40   A    
C108  H84   S    
C67   H27   S    
C19   C36   A    
C58   C82   A    
C32   C74   S    
C6    C78   A    
C62   N22   A    
C52   H12   S    
C11   C95   S    
C96   C99   S    
C4    H4    S    
C70   H30   S    
C103  H69   S    
C39   C103  S    
C11   C99   S    
C10   C98   S    
N3    N10   A    
N22   N23   A    
C38   C45   A    
C7    N7    A    
C8    N8    A    
C34   C80   S    
C46   C82   S    
N1    N12   A    
C15   C27   A    
C26   C34   A    
N2    N11   A    
C20   C24   A    
C10   C89   S    
C53   H13   S    
C102  H66   S    
C40   C104  S    
C92   C97   S    
C9    C97   S    
C4    N4    A    
C26   H58   S    
C5    N5    A    
C89   C91   S    
C42   C106  S    
C3    C75   A    
C68   H28   S    
C1    N1    A    
C59   N19   A    
C69   C87   A    
C3    N3    A    
C39   C45   A    
C104  H71   S    
C10   C92   S    
C93   C95   S    
N19   Ni1   S    
N20   Ni2   S    
C68   C85   A    
C101  H62   S    
C2    N2    A    
N4    N9    A    
N21   N24   A    
C62   C84   A    
C42   C44   A    
C50   H10   S    
C21   H53   S    
C8    H8    S    
N31   Ni6   S    
C42   C47   A    
C90   H38   S    
C67   N27   A    
N30   Ni7   S    
C72   H32   S    
C102  H65   S    
C56   H16   S    
N8    N13   A    
C107  H80   S    
C65   N25   A    
C100  H36   S    
C63   N23   A    
C99   H35   S    
C94   H42   S    
N26   Ni3   S    
C53   C80   A    
N22   Ni8   S    
C103  H67   S    
C52   C73   A    
C61   C83   A    
C69   N29   A    
C55   C78   A    
C95   C100  S    
C33   C79   S    
N25   N28   A    
C61   N21   A    
C27   C35   A    
C105  H73   S    
C64   H24   S    
N18   Ni4   S    
C35   C77   S    
C17   C21   A    
C56   C77   A    
C48   C84   S    
C51   C74   A    
C89   C97   S    
C105  H75   S    
C65   H25   S    
N29   N32   A    
C19   C23   A    
C44   C108  S    
C24   C32   A    
C64   C83   A    
C108  H82   S    
N5    Ni5   S    
C9    C86   S    
C96   H44   S    
C106  H76   S    
C30   C76   S    
C60   C81   A    
C13   C30   A    
C90   C92   S    
C2    H2    S    
N3    Ni3   S    
C11   C88   S    
N17   N20   A    
N2    Ni2   S    
C107  H79   S    
C6    H6    S    
C49   C76   A    
N1    Ni1   S    
C58   N18   A    
N32   Ni5   S    
C14   C26   A    
C94   C96   S    
C71   C88   A    
C58   H18   S    
C55   N15   A    
C51   H11   S    
N7    N14   A    
C91   H39   S    
N29   Ni8   S    
C106  H77   S    
N28   Ni1   S    
N15   Ni8   S    
C89   H37   S    
C50   N10   A    
C28   H60   S    
C25   H57   S    
C13   H45   S    
C101  H63   S    
C57   C81   A    
C12   C93   S    
C60   N20   A    
C17   C34   A    
N16   Ni7   S    
C5    C77   A    
C107  H81   S    
N21   Ni7   S    
C1    H1    S    
C62   H22   S    
C72   C87   A    
C93   H41   S    
C70   N30   A    
C7    C79   A    
C54   C79   A    
C22   H54   S    
C104  H72   S    
C3    H3    S    
C68   N28   A    
C93   C99   S    
C67   C86   A    
C59   H19   S    
N17   Ni3   S    
C12   C87   S    
N13   Ni6   S    
C18   C22   A    
C17   H49   S    
C19   H51   S    
C20   C35   A    
N7    Ni7   S    
C61   H21   S    
C11   C94   S    
N11   Ni4   S    
C13   C25   A    
C91   C98   S    
C2    C74   A    
C9    C90   S    
C66   C86   A    
N10   Ni1   S    
C63   H23   S    
N4    Ni4   S    
C65   C85   A    
N9    Ni2   S    
C29   C75   S    
N25   Ni4   S    
C106  H78   S    
C14   H46   S    
N24   Ni6   S    
C63   C84   A    
C16   H48   S    
C1    C73   A    
C54   N14   A    
C66   N26   A    
N26   N27   A    
C66   H26   S    
N14   Ni5   S    
C108  H83   S    
C22   C30   A    
C50   C75   A    
C15   H47   S    
C55   H15   S    
C104  H70   S    
C54   H14   S    
C51   N11   A    
C52   N12   A    
C103  H68   S    
C41   C48   A    
C72   N32   A    
C60   H20   S    
C7    H7    S    
C98   H34   S    
C21   C29   A    
C105  H74   S    
N8    Ni8   S    
C18   C33   A    
C57   H17   S    
C12   C100  S    
C43   C47   A    
C31   C73   S    
C49   N9    A    
C71   H31   S    
C47   C83   S    
C64   N24   A    
C24   H56   S    
C37   C39   A    
C20   H52   S    
C4    C76   A    
C28   C36   A    
C69   H29   S    
C25   C33   A    
N27   Ni2   S    
C8    C80   A    
C37   C101  S    
C12   C96   S    
N12   Ni3   S    
C36   C78   S    
C14   C29   A    
C71   N31   A    
C37   C46   A    
C18   H50   S    
C27   H59   S    
C90   C98   S    
C44   C48   A    
C23   C31   A    
C41   C105  S    
N5    N16   A    
C92   H40   S    
