data_mof_unit_17697.cif
_audit_creation_date              2012-12-10T18:53:00-0500
_audit_creation_method            fapswitch 2.2
_symmetry_space_group_name_H-M    P1
_symmetry_Int_Tables_number       1
_space_group_crystal_system       triclinic
_cell_length_a                    9.915604
_cell_length_b                    10.770288
_cell_length_c                    15.599366
_cell_angle_alpha                 94.718191
_cell_angle_beta                  87.609196
_cell_angle_gamma                 90.012615
_cell_volume                      1658.8182141

loop_
_atom_site_label
_atom_site_type_symbol
_atom_type_description
_atom_site_fract_x
_atom_site_fract_y
_atom_site_fract_z
_atom_type_partial_charge
C1    C     C_R   0.500315 0.740282 0.495148 0.926773
C2    C     C_R   0.499724 0.261933 0.509493 0.931145
C3    C     C_R   0.624715 0.939127 0.495489 0.133718
C4    C     C_R   0.377851 0.067853 0.530497 0.146743
C5    C     C_R   0.624636 0.066403 0.517613 0.170004
C6    C     C_R   0.376223 0.940985 0.504130 0.193729
C7    C     C_R   0.500969 0.130852 0.523362 -0.237918
C8    C     C_R   0.500379 0.875158 0.493231 -0.201669
C9    C     C_R   0.932088 0.416740 0.445503 0.196447
C10   C     C_R   0.067942 0.581485 0.555673 0.183968
C11   C     C_R   0.075868 0.417740 0.444981 0.121832
C12   C     C_R   0.924275 0.581207 0.555694 0.161455
C13   C     C_R   0.483826 0.496602 0.657155 0.868819
C14   C     C_R   0.516136 0.508477 0.343012 0.921162
C15   C     C_R   0.477548 0.511316 0.753535 -0.234008
C16   C     C_R   0.519117 0.552802 0.252959 -0.189585
C17   C     C_R   0.595442 0.535722 0.800153 0.236379
C18   C     C_R   0.395651 0.567709 0.210497 0.182087
C19   C     C_R   0.586231 0.619333 0.874670 -0.214098
C20   C     C_R   0.392520 0.640342 0.139869 -0.259988
C21   C     C_R   0.460961 0.664131 0.908709 -0.020188
C22   C     C_R   0.508371 0.690718 0.104112 0.004694
C23   C     C_R   0.342618 0.614656 0.872231 0.228028
C24   C     C_R   0.632630 0.668720 0.139773 0.211010
C25   C     C_R   0.352142 0.530969 0.797959 0.134039
C26   C     C_R   0.639558 0.600859 0.213832 0.093724
C27   C     C_2   0.456792 0.782383 0.964980 0.159133
C28   C     C_2   0.492383 0.795059 0.048547 0.133665
H1    H     H_    0.296620 0.667572 0.117240 0.176980
H2    H     H_    0.676957 0.657997 0.901610 0.183048
N1    N     N_R   0.142790 0.500030 0.500020 -0.138319
N2    N     N_R   0.857210 0.499970 0.499980 -0.130633
O1    O     O_R   0.385380 0.683250 0.500010 -0.574994
O2    O     O_R   0.614620 0.316750 0.499990 -0.564356
O3    O     O_R   0.614710 0.683220 0.500000 -0.561061
O4    O     O_R   0.385290 0.316780 0.500000 -0.577854
O5    O     O_R   0.371780 0.500040 0.615800 -0.554439
O6    O     O_R   0.628220 0.499960 0.384200 -0.546307
O7    O     O_R   0.601110 0.500010 0.615800 -0.592801
O8    O     O_R   0.398890 0.499990 0.384200 -0.582287
Zn1   Zn    Zn3+2 0.346870 0.500020 0.500000 1.014956
Zn2   Zn    Zn3+2 0.653130 0.499980 0.500000 1.031436
N3    N     N_2   0.721063 0.477949 0.771176 -0.262417
H3    H     H_    0.711993 0.403511 0.725992 0.238979
C29   C     C_3   0.814165 0.450713 0.836172 -0.735121
H4    H     H_    0.891611 0.383567 0.807762 0.266744
H5    H     H_    0.760480 0.407210 0.889996 0.239568
H6    H     H_    0.866382 0.537026 0.859964 0.253628
N4    N     N_2   0.271194 0.520897 0.243585 -0.264453
H7    H     H_    0.222051 0.583402 0.287910 0.246806
C30   C     C_3   0.181380 0.463115 0.181007 -0.659221
H8    H     H_    0.101648 0.410302 0.213806 0.284329
H9    H     H_    0.237937 0.397795 0.133661 0.258009
H10   H     H_    0.128855 0.534931 0.147947 0.212478
I1    I     I_    0.836537 0.584080 0.263362 -0.433609
I2    I     I_    0.183630 0.417977 0.761997 -0.409626
I3    I     I_    0.504314 0.973654 0.117775 -0.280326
I4    I     I_    0.412213 0.940314 0.897112 -0.250271
N5    N     N_2   0.214189 0.657133 0.905891 -0.277501
H11   H     H_    0.146206 0.676018 0.860358 0.275295
C31   C     C_3   0.156742 0.588046 0.973839 -0.797912
H12   H     H_    0.118877 0.655530 0.026684 0.244651
H13   H     H_    0.232077 0.525341 0.999020 0.256187
H14   H     H_    0.071574 0.529972 0.949835 0.260003
N6    N     N_2   0.750014 0.722571 0.102979 -0.283064
H15   H     H_    0.806294 0.777796 0.145091 0.263527
C32   C     C_3   0.829178 0.638703 0.043824 -0.778180
H16   H     H_    0.876452 0.692129 0.992710 0.253234
H17   H     H_    0.765921 0.563410 0.013768 0.245785
H18   H     H_    0.909097 0.594169 0.078297 0.258672
N7    N     N_2   0.748852 0.876706 0.471130 -0.269642
H19   H     H_    0.826314 0.896486 0.512063 0.240649
C33   C     C_3   0.789621 0.883245 0.381584 -0.710031
H20   H     H_    0.806366 0.981376 0.367073 0.246814
H21   H     H_    0.710787 0.841579 0.339640 0.256785
H22   H     H_    0.885533 0.831292 0.367363 0.248739
N8    N     N_2   0.270896 0.123409 0.585208 -0.279600
H23   H     H_    0.298954 0.191574 0.631343 0.254617
C34   C     C_3   0.138180 0.140658 0.552853 -0.695569
H24   H     H_    0.063002 0.091563 0.592342 0.233454
H25   H     H_    0.132057 0.104089 0.484743 0.251096
H26   H     H_    0.111727 0.241088 0.558987 0.252644
N9    N     N_2   0.747246 0.129519 0.538327 -0.272111
H27   H     H_    0.833441 0.099250 0.503835 0.237580
C35   C     C_3   0.766803 0.151503 0.629641 -0.744835
H28   H     H_    0.788693 0.062194 0.657313 0.252351
H29   H     H_    0.675411 0.194987 0.663169 0.235455
H30   H     H_    0.853025 0.215900 0.640367 0.240589
N10   N     N_2   0.251975 0.879698 0.485795 -0.264847
H31   H     H_    0.168600 0.907516 0.523738 0.261398
C36   C     C_3   0.225628 0.859499 0.395161 -0.733120
H32   H     H_    0.209512 0.949947 0.367620 0.253118
H33   H     H_    0.133751 0.801553 0.386965 0.232261
H34   H     H_    0.311291 0.809377 0.359390 0.237853
I5    I     I_    0.835024 0.281487 0.360488 -0.275644
I6    I     I_    0.164924 0.709695 0.645431 -0.285893
I7    I     I_    0.187863 0.285720 0.359859 -0.302063
I8    I     I_    0.813259 0.706394 0.645893 -0.292712

loop_
_geom_bond_atom_site_label_1
_geom_bond_atom_site_label_2
_ccdc_geom_bond_type
C1    C8    S    
C33   H20   S    
C2    C7    S    
O2    Zn2   S    
C25   I2    S    
C26   I1    S    
C1    O1    A    
N8    H23   S    
C23   N5    S    
C19   C21   A    
C24   C26   A    
O6    Zn2   S    
C35   H28   S    
C5    N9    S    
C29   H6    S    
C14   O6    A    
C18   C20   A    
C31   H13   S    
O3    Zn2   S    
C9    N2    A    
C10   N1    A    
N6    C32   S    
N10   C36   S    
C9    I5    S    
C13   O5    A    
C2    O2    A    
C29   H5    S    
C21   C27   S    
C11   N1    A    
N5    H11   S    
C22   C28   S    
C12   N2    A    
C33   H21   S    
O4    Zn1   S    
C4    C7    A    
O7    Zn2   S    
C20   H1    S    
N8    C34   S    
C16   C26   A    
N5    C31   S    
C35   H29   S    
C32   H16   S    
C4    C6    A    
C3    C8    A    
C36   H32   S    
C34   H25   S    
C6    C8    A    
N4    C30   S    
C28   I3    S    
C30   H8    S    
C30   H9    S    
C31   H14   S    
C3    N7    S    
N3    H3    S    
C17   N3    S    
C36   H33   S    
N3    C29   S    
N9    H27   S    
C10   I6    S    
C9    C11   A    
C10   C12   A    
C24   N6    S    
O8    Zn1   S    
N9    C35   S    
C20   C22   A    
N6    H15   S    
C13   C15   S    
C33   H22   S    
C14   C16   S    
C1    O3    A    
C5    C7    A    
C35   H30   S    
C2    O4    A    
C15   C17   A    
N1    Zn1   S    
C12   I8    S    
C3    C5    A    
C27   I4    S    
C34   H26   S    
C6    N10   S    
C11   I7    S    
C30   H10   S    
O1    Zn1   S    
C32   H18   S    
C21   C23   A    
N7    H19   S    
C36   H34   S    
C17   C19   A    
C22   C24   A    
C23   C25   A    
O5    Zn1   S    
C31   H12   S    
C13   O7    A    
C15   C25   A    
C14   O8    A    
C34   H24   S    
C29   H4    S    
C4    N8    S    
C16   C18   A    
N4    H7    S    
N7    C33   S    
C27   C28   D    
N2    Zn2   S    
C32   H17   S    
N10   H31   S    
C19   H2    S    
C18   N4    S    
