data_mof_unit_16633.cif
_audit_creation_date              2012-12-11T16:25:34-0500
_audit_creation_method            fapswitch 2.2
_symmetry_space_group_name_H-M    P1
_symmetry_Int_Tables_number       1
_space_group_crystal_system       triclinic
_cell_length_a                    20.716948
_cell_length_b                    7.269729
_cell_length_c                    13.119356
_cell_angle_alpha                 90.001087
_cell_angle_beta                  103.509334
_cell_angle_gamma                 89.999857
_cell_volume                      1921.19318969

loop_
_atom_site_label
_atom_site_type_symbol
_atom_type_description
_atom_site_fract_x
_atom_site_fract_y
_atom_site_fract_z
_atom_type_partial_charge
O1    O     O_R   0.449520 0.506760 0.599710 -0.538457
O2    O     O_R   0.550480 0.006760 0.400290 -0.538474
O3    O     O_R   0.587930 0.180200 0.595790 -0.531203
O4    O     O_R   0.412070 0.680200 0.404210 -0.531212
C1    C     C_R   0.613766 0.344415 0.620768 0.657404
C2    C     C_R   0.386235 0.844413 0.379230 0.657431
O5    O     O_R   0.452350 0.177380 0.611700 -0.525982
O6    O     O_R   0.547650 0.677380 0.388300 -0.525965
O7    O     O_R   0.413930 0.001760 0.416320 -0.542468
O8    O     O_R   0.586070 0.501760 0.583680 -0.542465
C3    C     C_R   0.433334 0.344935 0.635034 0.670073
C4    C     C_R   0.566666 0.844935 0.364965 0.670106
O9    O     O_3   0.487550 0.337460 0.435880 -0.366645
O10   O     O_3   0.512450 0.837460 0.564120 -0.366614
V1    V     V_3+5 0.502310 0.064670 0.511900 1.495807
V2    V     V_3+5 0.497690 0.564670 0.488100 1.495820
C5    C     C_R   0.614759 0.837852 0.104491 -0.175573
C6    C     C_R   0.385237 0.337580 0.895506 -0.175539
H1    H     H_    0.524307 0.869073 0.151033 0.110421
H2    H     H_    0.475697 0.368731 0.848989 0.110428
H3    H     H_    0.695338 0.809016 0.976011 0.149674
H4    H     H_    0.304653 0.308620 0.023971 0.149601
C7    C     C_R   0.607345 0.850397 0.286006 -0.025652
C8    C     C_R   0.392653 0.350389 0.713993 -0.025701
C9    C     C_R   0.926953 0.894655 0.320691 -0.113858
C10   C     C_R   0.073052 0.394992 0.679336 -0.113493
C11   C     C_R   0.892560 0.892049 0.399607 -0.105267
C12   C     C_R   0.107445 0.392583 0.600415 -0.105408
C13   C     C_R   0.824068 0.868691 0.375790 -0.161752
C14   C     C_R   0.175932 0.369102 0.624214 -0.161647
C15   C     C_R   0.787820 0.848292 0.270823 0.069762
C16   C     C_R   0.212176 0.348423 0.729170 0.069712
C17   C     C_R   0.823931 0.844415 0.190077 0.095217
C18   C     C_R   0.176064 0.344388 0.809915 0.095207
C19   C     C_R   0.716855 0.839529 0.243027 0.068425
C20   C     C_R   0.283140 0.339567 0.756963 0.068392
C21   C     C_R   0.684050 0.829960 0.135219 0.122184
C22   C     C_R   0.315944 0.329800 0.864770 0.122185
C23   C     C_R   0.720399 0.818543 0.058208 -0.190333
C24   C     C_R   0.279593 0.318285 0.941775 -0.190316
C25   C     C_R   0.789126 0.827635 0.084919 -0.197740
C26   C     C_R   0.210867 0.327429 0.915066 -0.197726
C27   C     C_R   0.676930 0.843622 0.317831 -0.229051
C28   C     C_R   0.323065 0.343743 0.682160 -0.229035
C29   C     C_R   0.577092 0.854038 0.178840 -0.125504
C30   C     C_R   0.422908 0.353822 0.821167 -0.125584
C31   C     C_R   0.894084 0.864632 0.216081 -0.031609
C32   C     C_R   0.105914 0.364675 0.783922 -0.031590
H5    H     H_    0.698128 0.841152 0.401058 0.104143
H6    H     H_    0.301866 0.341401 0.598928 0.104165
H7    H     H_    0.800928 0.872114 0.441216 0.134515
H8    H     H_    0.199074 0.372696 0.558791 0.134609
H9    H     H_    0.919277 0.911262 0.480112 0.181043
H10   H     H_    0.080733 0.412072 0.519926 0.180940
H11   H     H_    0.814709 0.825605 0.021806 0.114245
H12   H     H_    0.185284 0.325305 0.978178 0.114251
H13   H     H_    0.122079 0.859737 0.502661 0.142861
H14   H     H_    0.877899 0.360267 0.497255 0.143158
C33   C     C_R   0.229246 0.822771 0.019301 -0.034002
C34   C     C_R   0.770759 0.322872 0.980677 -0.034022
C35   C     C_R   0.281088 0.767416 0.975420 -0.111185
C36   C     C_R   0.718911 0.267605 0.024566 -0.111163
C37   C     C_R   0.342317 0.727404 0.037373 -0.172173
C38   C     C_R   0.657685 0.227557 0.962617 -0.172246
C39   C     C_R   0.355451 0.749616 0.145497 -0.023045
C40   C     C_R   0.644561 0.249641 0.854489 -0.023079
C41   C     C_R   0.305060 0.811715 0.196255 0.006896
C42   C     C_R   0.694950 0.311724 0.803726 0.006944
C43   C     C_R   0.238653 0.834042 0.131895 0.000487
C44   C     C_R   0.761356 0.334075 0.868080 0.000542
C45   C     C_R   0.317908 0.850978 0.307172 -0.165826
C46   C     C_R   0.682098 0.350977 0.692813 -0.165813
C47   C     C_R   0.263647 0.883646 0.353533 0.083346
C48   C     C_R   0.736355 0.383696 0.646447 0.083418
C49   C     C_R   0.197164 0.859962 0.294109 0.028117
C50   C     C_R   0.802847 0.360050 0.705857 0.027708
C51   C     C_R   0.184216 0.854420 0.181827 -0.164570
C52   C     C_R   0.815794 0.354435 0.818145 -0.164591
C53   C     C_R   0.274823 0.926017 0.461938 -0.161830
C54   C     C_R   0.725158 0.426122 0.538050 -0.161784
C55   C     C_R   0.223292 0.927200 0.512851 -0.153518
C56   C     C_R   0.776677 0.427455 0.487119 -0.153973
C57   C     C_R   0.160421 0.874631 0.459371 -0.099058
C58   C     C_R   0.839562 0.374987 0.540570 -0.098580
C59   C     C_R   0.147026 0.835356 0.351977 -0.028571
C60   C     C_R   0.852986 0.335596 0.647956 -0.028517
H15   H     H_    0.274625 0.757823 0.891112 0.161135
H16   H     H_    0.725372 0.258088 0.108875 0.161130
H17   H     H_    0.323675 0.954735 0.509961 0.128671
H18   H     H_    0.676299 0.454790 0.490039 0.128708
H19   H     H_    0.233072 0.957740 0.595856 0.142183
H20   H     H_    0.766880 0.458054 0.404121 0.142201
O11   O     O_R   0.913760 0.203480 0.916370 -0.526254
O12   O     O_R   0.086240 0.703480 0.083630 -0.526130
O13   O     O_R   0.047590 0.535230 0.888250 -0.513412
O14   O     O_R   0.952410 0.035230 0.111750 -0.513329
C61   C     C_R   0.066452 0.369424 0.864625 0.658126
C62   C     C_R   0.933549 0.869421 0.135379 0.658189
O15   O     O_R   0.912020 0.532880 0.904260 -0.552588
O16   O     O_R   0.087980 0.032880 0.095740 -0.552531
O17   O     O_R   0.949590 0.708460 0.099750 -0.545436
O18   O     O_R   0.050410 0.208460 0.900250 -0.545481
C63   C     C_R   0.885634 0.364464 0.882928 0.621074
C64   C     C_R   0.114369 0.864464 0.117063 0.621259
O19   O     O_3   0.012370 0.375360 0.064120 -0.367090
O20   O     O_3   0.987630 0.875360 0.935880 -0.367324
V3    V     V_3+5 0.997700 0.648160 0.988110 1.506992
V4    V     V_3+5 0.002300 0.148160 0.011890 1.507125
C65   C     C_2   0.169245 0.883099 0.941586 0.373083
H21   H     H_    0.144256 0.006708 0.954965 0.070557
O21   O     O_2   0.149526 0.800522 0.859090 -0.524755
C66   C     C_2   0.830756 0.383222 0.058387 0.373134
H22   H     H_    0.855728 0.506866 0.045012 0.070574
O22   O     O_2   0.850483 0.300637 0.140872 -0.524716
H23   H     H_    0.381187 0.685446 0.999467 0.147494
H24   H     H_    0.618812 0.185642 0.000524 0.147419
C67   C     C_2   0.423694 0.707399 0.199236 0.393689
H25   H     H_    0.452466 0.812681 0.246162 -0.001807
O23   O     O_2   0.448686 0.559014 0.187510 -0.533533
C68   C     C_2   0.576331 0.207270 0.800746 0.393700
H26   H     H_    0.547525 0.312506 0.753834 -0.001759
O24   O     O_2   0.551389 0.058799 0.812442 -0.533532
C69   C     C_2   0.084066 0.740376 0.309308 0.359054
H27   H     H_    0.047789 0.801562 0.247271 0.031066
O25   O     O_2   0.071726 0.594021 0.346139 -0.537698
C70   C     C_2   0.915995 0.240756 0.690546 0.358437
H28   H     H_    0.952160 0.301505 0.752880 0.031523
O26   O     O_2   0.928553 0.095101 0.653230 -0.537930
H29   H     H_    0.589545 0.835911 0.022184 0.148986
H30   H     H_    0.410451 0.335490 0.977817 0.148924
H31   H     H_    0.979504 0.922636 0.342189 0.100444
H32   H     H_    0.020508 0.423089 0.657873 0.100602

loop_
_geom_bond_atom_site_label_1
_geom_bond_atom_site_label_2
_ccdc_geom_bond_type
O17   V3    S    
C40   C42   A    
C37   C39   A    
C70   H28   S    
C7    C29   A    
C11   C13   A    
C43   C51   A    
O1    C3    A    
O2    C4    A    
O11   C63   A    
C2    O7    A    
C66   O22   D    
C10   H32   S    
C69   H27   S    
C23   C25   A    
O5    C3    A    
C32   C61   S    
C4    C7    S    
C31   C62   S    
C48   C50   A    
C38   H24   S    
C16   C20   A    
C19   C21   A    
C58   C60   A    
C1    C46   S    
C65   O21   D    
O11   V4    S    
C69   O25   D    
C44   C52   A    
O20   V3    S    
C3    C8    S    
O16   C64   A    
C56   H20   S    
C34   C36   A    
C35   C37   A    
C25   H11   S    
C36   C38   A    
C35   H15   S    
C26   H12   S    
C49   C59   A    
C18   C26   A    
C39   C41   A    
O14   C62   A    
H13   C57   S    
O18   V4    S    
C19   C27   A    
C9    C31   A    
C61   O18   A    
C10   C32   A    
C37   H23   S    
C24   C26   A    
O14   V4    S    
O12   C64   A    
O6    V2    S    
C22   C24   A    
C40   C68   S    
C11   H9    S    
C54   H18   S    
C47   C49   A    
C6    C30   A    
C66   H22   S    
C55   C57   A    
C68   O24   D    
C2    C45   S    
O19   V4    S    
O12   V3    S    
O16   V4    S    
C33   C35   A    
C5    H29   S    
C46   C48   A    
O15   C63   A    
C53   C55   A    
C12   H10   S    
C27   H5    S    
C36   H16   S    
C5    C29   A    
C42   C46   A    
C41   C43   A    
C38   C40   A    
O4    V2    S    
C34   C66   S    
H14   C58   S    
H3    C23   S    
C34   C44   A    
O6    C4    A    
H4    C24   S    
C15   C17   A    
C47   C53   A    
O1    V2    S    
C5    C21   A    
O2    V1    S    
C49   C51   A    
O13   V3    S    
C33   C43   A    
C54   C56   A    
C57   C59   A    
C56   C58   A    
C17   C31   A    
C15   C19   A    
C6    H30   S    
O4    C2    A    
C18   C32   A    
C20   C22   A    
C9    H31   S    
C50   C60   A    
O3    V1    S    
C68   H26   S    
C45   C47   A    
C13   H7    S    
C28   H6    S    
C14   H8    S    
O13   C61   A    
C70   O26   D    
C52   C63   S    
C7    C27   A    
C50   C52   A    
O3    C1    A    
H1    C29   S    
C9    C11   A    
C62   O17   A    
O15   V3    S    
C10   C12   A    
C17   C25   A    
C60   C70   S    
C67   O23   D    
O7    V1    S    
C8    C30   A    
C12   C14   A    
C21   C23   A    
O8    V2    S    
C65   H21   S    
C14   C16   A    
C8    C28   A    
O5    V1    S    
C33   C65   S    
C59   C69   S    
C41   C45   A    
C6    C22   A    
C53   H17   S    
C20   C28   A    
C55   H19   S    
C1    O8    A    
C13   C15   A    
O9    V2    S    
C42   C44   A    
C39   C67   S    
O10   V1    S    
C51   C64   S    
C48   C54   A    
C67   H25   S    
H2    C30   S    
C16   C18   A    
