data_mof_unit_45684.cif
_audit_creation_date              2012-12-11T17:47:25-0500
_audit_creation_method            fapswitch 2.2
_symmetry_space_group_name_H-M    P1
_symmetry_Int_Tables_number       1
_space_group_crystal_system       triclinic
_cell_length_a                    14.845339
_cell_length_b                    14.907489
_cell_length_c                    15.129235
_cell_angle_alpha                 110.451732
_cell_angle_beta                  109.225068
_cell_angle_gamma                 108.764642
_cell_volume                      2576.11376284

loop_
_atom_site_label
_atom_site_type_symbol
_atom_type_description
_atom_site_fract_x
_atom_site_fract_y
_atom_site_fract_z
_atom_type_partial_charge
C1    C     C_R   0.908076 0.194871 0.993744 -0.145883
C2    C     C_R   0.827484 0.958194 0.914088 -0.220452
C3    C     C_R   0.139090 0.070027 0.743152 0.002681
C4    C     C_R   0.880328 0.973621 0.222200 -0.122386
C5    C     C_R   0.044286 0.015666 0.745289 -0.129595
C6    C     C_R   0.902178 0.961119 0.137046 -0.165197
C7    C     C_R   0.670046 0.322743 0.201969 -0.102333
C8    C     C_R   0.396445 0.695401 0.889000 -0.083359
C9    C     C_R   0.777114 0.389715 0.290031 -0.125831
C10   C     C_R   0.306737 0.616379 0.785230 -0.124802
C11   C     C_R   0.844701 0.344136 0.313585 0.118423
C12   C     C_R   0.026209 0.751941 0.938508 -0.130091
C13   C     C_R   0.259540 0.648638 0.713608 0.106823
C14   C     C_R   0.803964 0.230999 0.247658 -0.200722
C15   C     C_R   0.307485 0.760816 0.745676 -0.160159
C16   C     C_R   0.296471 0.806055 0.207897 -0.122557
C17   C     C_R   0.684092 0.241310 0.775773 -0.101721
C18   C     C_R   0.697077 0.164513 0.159173 -0.085420
C19   C     C_R   0.398481 0.839528 0.849062 -0.113516
C20   C     C_R   0.629980 0.210330 0.136500 -0.113790
C21   C     C_R   0.442078 0.806991 0.921150 -0.126717
C22   C     C_R   0.966739 0.414664 0.503252 -0.252891
C23   C     C_R   0.295959 0.872387 0.299546 0.133806
C24   C     C_R   0.146875 0.564716 0.513808 -0.236076
C25   C     C_R   0.063204 0.491685 0.602039 0.062652
C26   C     C_R   0.047868 0.490485 0.415912 0.071549
C27   C     C_R   0.155879 0.566605 0.608914 0.023072
C28   C     C_R   0.956543 0.414336 0.410108 0.014041
C29   C     C_R   0.052767 0.018002 0.841173 0.058086
C30   C     C_R   0.818637 0.882570 0.028899 0.051907
C31   C     C_R   0.251718 0.117988 0.927332 -0.024798
C32   C     C_R   0.691752 0.831541 0.092740 -0.019199
C33   C     C_R   0.084368 0.947551 0.429561 -0.245745
C34   C     C_R   0.673667 0.215842 0.673445 0.140764
C35   C     C_R   0.783150 0.011695 0.511495 -0.265480
C36   C     C_R   0.178359 0.004032 0.426783 -0.293795
C37   C     C_R   0.689298 0.018366 0.503353 -0.251602
C38   C     C_R   0.278358 0.014352 0.491201 0.273188
C39   C     C_R   0.658929 0.081436 0.462042 0.240055
C40   C     C_R   0.225567 0.409497 0.976575 0.707628
C41   C     C_R   0.786143 0.589661 0.092070 0.717591
C42   C     C_R   0.285098 0.976055 0.564578 -0.204425
C43   C     C_R   0.718710 0.130655 0.421188 -0.166741
C44   C     C_R   0.191779 0.921551 0.568314 -0.339886
C45   C     C_R   0.326862 0.501522 0.051829 -0.017396
C46   C     C_R   0.813043 0.124392 0.430311 -0.383023
C47   C     C_R   0.089959 0.903080 0.498483 0.678420
C48   C     C_R   0.848539 0.068791 0.479829 0.699826
C49   C     C_R   0.472115 0.143689 0.565236 0.536410
C50   C     C_R   0.469052 0.041141 0.372355 0.566334
C51   C     C_R   0.571406 0.155042 0.568034 -0.197884
C52   C     C_R   0.373999 0.992418 0.378270 -0.195414
C53   C     C_R   0.568499 0.100249 0.468324 -0.175471
C54   C     C_R   0.373280 0.052585 0.474716 -0.182828
C55   C     C_R   0.242559 0.118796 0.832777 -0.061864
C56   C     C_R   0.694344 0.497766 0.060309 -0.028129
C57   C     C_R   0.775387 0.907511 0.200042 -0.033457
C58   C     C_R   0.839922 0.880957 0.940285 0.030021
C59   C     C_R   0.954297 0.960883 0.846103 0.011973
C60   C     C_R   0.157148 0.068818 0.932052 -0.083088
C61   C     C_R   0.712634 0.819098 0.006872 -0.083023
C62   C     C_R   0.899428 0.833240 0.905172 0.071048
C63   C     C_R   0.901487 0.013367 0.888604 0.062734
C64   C     C_R   0.056539 0.591420 0.314553 -0.151279
C65   C     C_R   0.000361 0.407540 0.699421 -0.181474
C66   C     C_3   0.493771 0.392997 0.025999 -0.365046
C67   C     C_R   0.037429 0.497446 0.321646 0.053245
C68   C     C_3   0.537866 0.604372 0.119255 -0.359332
C69   C     C_3   0.434299 0.440998 0.968818 -0.305690
C70   C     C_3   0.598327 0.556393 0.176823 -0.331420
C71   C     C_3   0.428423 0.501313 0.070966 -0.009270
C72   C     C_3   0.602778 0.496277 0.073993 -0.027684
C73   C     C_3   0.486783 0.453678 0.127468 0.866414
C74   C     C_3   0.543100 0.543113 0.017653 0.833604
C75   C     C_R   0.315777 0.593122 0.067112 -0.275185
C76   C     C_R   0.696756 0.407081 0.999856 -0.240767
C77   C     C_R   0.973805 0.406982 0.218852 -0.096411
C78   C     C_R   0.054882 0.497952 0.695193 0.063121
C79   C     C_R   0.088024 0.590861 0.788456 -0.119772
C80   C     C_R   0.206329 0.803528 0.298917 -0.139224
C81   C     C_R   0.778733 0.253882 0.687966 -0.146066
C82   C     C_R   0.995237 0.195122 0.899703 0.008776
C83   C     C_R   0.929550 0.746508 0.024935 -0.117750
C84   C     C_R   0.936857 0.130672 0.928741 0.011375
C85   C     C_R   0.946857 0.776851 0.952445 0.034343
C86   C     C_3   0.909002 0.768011 0.406882 -0.184803
C87   C     C_3   0.034900 0.164774 0.557481 -0.345078
C88   C     C_3   0.489068 0.308772 0.663513 -0.214214
C89   C     C_R   0.934897 0.860220 0.838193 -0.218558
C90   C     C_3   0.414363 0.052144 0.219535 -0.294530
F1    F     F_    0.453796 0.407644 0.183962 -0.712057
F2    F     F_    0.572103 0.585598 0.957254 -0.747064
F3    F     F_    0.204769 0.304410 0.928525 -0.738637
F4    F     F_    0.821555 0.694242 0.166667 -0.761463
H1    H     H_    0.849748 0.167539 0.019148 0.099434
H2    H     H_    0.428987 0.669659 0.944664 0.136935
H3    H     H_    0.807057 0.476652 0.340327 0.111074
H4    H     H_    0.271788 0.530398 0.762096 0.111430
H5    H     H_    0.855967 0.195109 0.262977 0.114281
H6    H     H_    0.272368 0.787663 0.692121 0.107755
H7    H     H_    0.666436 0.077613 0.108156 0.107031
H8    H     H_    0.433916 0.925949 0.874045 0.101764
H9    H     H_    0.894614 0.360822 0.500018 0.141386
H10   H     H_    0.215904 0.622053 0.515969 0.134339
H11   H     H_    0.964665 0.975598 0.674225 0.144089
H12   H     H_    0.062051 0.765286 0.889834 0.095223
H13   H     H_    0.983455 0.013886 0.154896 0.122209
H14   H     H_    0.345844 0.830097 0.173371 0.168715
H15   H     H_    0.620096 0.222877 0.796372 0.154855
H16   H     H_    0.165006 0.069078 0.005933 0.106146
H17   H     H_    0.646390 0.761661 0.923758 0.154591
H18   H     H_    0.007560 0.937654 0.377532 0.195062
H19   H     H_    0.806399 0.964066 0.544774 0.146705
H20   H     H_    0.171889 0.033673 0.370264 0.151711
H21   H     H_    0.642341 0.977671 0.532789 0.149061
H22   H     H_    0.361745 0.984028 0.615478 0.145179
H23   H     H_    0.132743 0.074423 0.672015 0.132233
H24   H     H_    0.695217 0.177724 0.387029 0.166884
H25   H     H_    0.198048 0.891628 0.624538 0.155464
H26   H     H_    0.859353 0.163574 0.400050 0.151024
H27   H     H_    0.971616 0.818978 0.801050 0.130998
H28   H     H_    0.779456 0.991625 0.938741 0.121204
H29   H     H_    0.367180 0.395226 0.883062 0.171516
H30   H     H_    0.666861 0.601381 0.261484 0.156681
H31   H     H_    0.479337 0.307520 0.990509 0.145458
H32   H     H_    0.555251 0.690715 0.159049 0.151369
H33   H     H_    0.100261 0.675757 0.380390 0.107980
H34   H     H_    0.944412 0.035652 0.304938 0.145754
H35   H     H_    0.973674 0.323071 0.644702 0.103443
H36   H     H_    0.379581 0.678368 0.116360 0.148312
H37   H     H_    0.642585 0.322350 0.971793 0.138907
H38   H     H_    0.945666 0.321831 0.195582 0.108036
H39   H     H_    0.141346 0.675384 0.815391 0.107351
H40   H     H_    0.172243 0.821768 0.350145 0.124069
H41   H     H_    0.803493 0.257770 0.629984 0.125148
H42   H     H_    0.007998 0.167270 0.831633 0.137363
H43   H     H_    0.870811 0.747997 0.050659 0.188880
H44   H     H_    0.315253 0.157892 0.828854 0.107379
H45   H     H_    0.331868 0.156235 0.997167 0.111512
H46   H     H_    0.757898 0.915588 0.265384 0.122377
H47   H     H_    0.930843 0.717020 0.353291 0.152601
H48   H     H_    0.865451 0.803050 0.367127 0.203810
H49   H     H_    0.851359 0.712311 0.419934 0.148408
H50   H     H_    0.107535 0.155969 0.562811 0.191062
H51   H     H_    0.046760 0.201086 0.641123 0.160068
H52   H     H_    0.033299 0.221512 0.525799 0.146705
H53   H     H_    0.423813 0.297150 0.590577 0.131669
H54   H     H_    0.571460 0.355549 0.674999 0.145754
H55   H     H_    0.486371 0.359091 0.735654 0.196714
H56   H     H_    0.610335 0.783736 0.076425 0.110716
H57   H     H_    0.453353 0.143322 0.269111 0.160655
H58   H     H_    0.325891 0.012367 0.195009 0.146343
H59   H     H_    0.419532 0.032485 0.144146 0.173831
H60   H     H_    0.547044 0.158838 0.068260 0.090672
H61   H     H_    0.510754 0.868451 0.001998 0.106206
H62   H     H_    0.618009 0.357955 0.184995 0.149169
N1    N     N_R   0.947560 0.293820 0.002910 -0.046120
N2    N     N_R   0.789450 0.443190 0.997090 -0.073670
N3    N     N_R   0.945970 0.443180 0.152110 -0.044245
N4    N     N_R   0.054030 0.556820 0.847890 -0.037838
N5    N     N_R   0.151530 0.706170 0.208880 -0.043749
N6    N     N_R   0.848470 0.293830 0.791120 -0.052613
N7    N     N_R   0.004980 0.293810 0.946140 -0.054974
N8    N     N_R   0.995020 0.706190 0.053860 -0.043542
N9    N     N_R   0.052440 0.706180 0.997090 -0.042990
N10   N     N_R   0.208960 0.706170 0.152110 -0.047352
N11   N     N_R   0.791040 0.293830 0.847890 -0.052512
N12   N     N_R   0.154330 0.443160 0.946140 -0.116282
N13   N     N_R   0.845670 0.556840 0.053860 -0.114280
N14   N     N_R   0.002190 0.556820 0.208880 -0.048995
N15   N     N_R   0.997810 0.443180 0.791120 -0.039235
N16   N     N_R   0.210550 0.556810 0.002910 -0.072286
Ni1   Ni    Ni4+2 0.869690 0.369690 0.000000 0.202698
Ni2   Ni    Ni4+2 0.130310 0.630310 0.000000 0.206272
Ni3   Ni    Ni4+2 0.001390 0.369680 0.869810 0.216758
Ni4   Ni    Ni4+2 0.998610 0.630320 0.130190 0.239763
O1    O     O_3   0.001127 0.852049 0.509109 -0.642984
O2    O     O_3   0.940363 0.059712 0.487710 -0.640441
O3    O     O_3   0.470713 0.207062 0.656336 -0.639491
O4    O     O_3   0.470051 0.011419 0.275435 -0.634990

loop_
_geom_bond_atom_site_label_1
_geom_bond_atom_site_label_2
_ccdc_geom_bond_type
C58   C62   A    
N12   Ni3   S    
C83   N8    A    
C56   C76   A    
N3    N14   A    
C45   C71   S    
C81   N6    A    
C14   C18   A    
C8    H2    S    
C24   C27   A    
C83   H43   S    
C15   H6    S    
C36   H20   S    
C48   O2    S    
C14   H5    S    
N14   Ni4   S    
C1    C84   A    
C15   C19   A    
C76   N2    A    
C34   C51   S    
C55   H44   S    
C20   H60   S    
C12   C85   A    
C65   N15   A    
C88   H53   S    
C26   C67   S    
N8    N9    A    
C87   H52   S    
C24   C26   A    
C32   C61   A    
C38   C42   A    
C19   H8    S    
C66   C69   S    
C82   N7    A    
C69   H29   S    
C68   C74   S    
C49   C54   A    
C62   C89   A    
C33   C36   A    
C80   H40   S    
C69   C71   S    
C59   C89   A    
C74   F2    S    
C10   H4    S    
C3    H23   S    
C3    C55   A    
N4    N15   A    
C66   C72   S    
C7    H62   S    
C29   C59   S    
N16   Ni2   S    
C49   C51   A    
C22   C25   A    
C67   C77   A    
C4    C57   A    
C76   H37   S    
C50   C52   A    
C6    H13   S    
C35   H19   S    
C34   C81   A    
C23   C80   A    
C40   F3    S    
N5    N10   A    
C44   C47   A    
N11   Ni1   S    
N7    Ni3   S    
C22   C28   A    
C89   H27   S    
C64   N14   A    
C42   C44   A    
C32   C57   A    
C35   C48   A    
C26   C28   A    
C52   C54   A    
C86   H49   S    
C81   H41   S    
C5    C29   A    
C2    H28   S    
C88   H54   S    
C40   C45   A    
C79   H39   S    
C62   C85   S    
C90   O4    S    
N10   Ni2   S    
C50   C53   A    
C4    H34   S    
C25   C78   S    
C64   C67   A    
C73   F1    S    
C72   C74   S    
C17   N11   A    
C16   N10   A    
C79   N4    A    
C71   C73   S    
N5    Ni4   S    
C78   C79   A    
C5    H11   S    
N6    Ni3   S    
C44   H25   S    
C56   C72   S    
N9    Ni2   S    
C66   C73   S    
C41   N13   A    
C6    C30   A    
C88   H55   S    
C22   H9    S    
C57   H46   S    
C51   C53   A    
C77   H38   S    
C31   C60   A    
C50   O4    S    
C41   C56   A    
N2    Ni1   S    
C65   H35   S    
C41   F4    S    
C38   C54   S    
C29   C60   A    
C1    H1    S    
C64   H33   S    
C70   C73   S    
C8    C21   A    
C21   H61   S    
C46   H26   S    
C69   C74   S    
C33   H18   S    
C90   H59   S    
C9    C11   A    
C77   N3    A    
C90   H58   S    
C83   C85   A    
C16   C23   A    
C82   C84   A    
C13   C15   A    
C75   H36   S    
C87   H50   S    
C4    C6    A    
C17   C34   A    
C31   H45   S    
C61   H17   S    
C68   H32   S    
C12   N9    A    
C2    C63   A    
C86   H48   S    
C88   O3    S    
C42   H22   S    
C7    C9    A    
N1    N7    A    
C9    H3    S    
C65   C78   A    
C87   H51   S    
C19   C21   A    
N4    Ni2   S    
C8    C10   A    
C90   H57   S    
C3    C5    A    
C10   C13   A    
C17   H15   S    
C39   C43   A    
C2    C58   A    
N2    N13   A    
C37   H21   S    
C25   C27   A    
C59   C63   A    
C66   H31   S    
C63   C84   S    
C45   C75   A    
C31   C55   A    
C1    N1    A    
C35   C37   A    
C47   O1    S    
C87   O2    S    
C12   H12   S    
C23   C52   S    
C39   C53   S    
N15   Ni3   S    
C11   C28   S    
C68   C71   S    
C33   C47   A    
C30   C58   S    
C36   C38   A    
C11   C14   A    
N13   Ni4   S    
N8    Ni4   S    
C18   C20   A    
C86   O1    S    
C82   H42   S    
C43   C46   A    
C80   N5    A    
C40   N12   A    
C60   H16   S    
C16   H14   S    
C43   H24   S    
N6    N11   A    
C46   C48   A    
C70   H30   S    
N12   N16   A    
C32   H56   S    
C37   C39   A    
C7    C20   A    
N3    Ni1   S    
C30   C61   A    
C75   N16   A    
C68   C70   S    
C13   C27   S    
C70   C72   S    
C24   H10   S    
C18   H7    S    
C86   H47   S    
N1    Ni1   S    
C49   O3    S    
