data_mof_unit_43393.cif
_audit_creation_date              2012-12-10T16:54:55-0500
_audit_creation_method            fapswitch 2.2
_symmetry_space_group_name_H-M    P1
_symmetry_Int_Tables_number       1
_space_group_crystal_system       triclinic
_cell_length_a                    7.786293
_cell_length_b                    8.568589
_cell_length_c                    15.728606
_cell_angle_alpha                 91.155433
_cell_angle_beta                  85.543424
_cell_angle_gamma                 93.551774
_cell_volume                      1044.06741973

loop_
_atom_site_label
_atom_site_type_symbol
_atom_type_description
_atom_site_fract_x
_atom_site_fract_y
_atom_site_fract_z
_atom_type_partial_charge
C1    C     C_R   0.545652 0.794656 0.497785 0.951254
C2    C     C_3   0.310209 0.568614 0.056473 -0.005618
C3    C     C_3   0.485604 0.509016 0.083381 0.242869
C4    C     C_3   0.511835 0.341856 0.046774 -0.407560
C5    C     C_3   0.515675 0.342437 0.948828 -0.425876
C6    C     C_1   0.490402 0.505440 0.174876 -0.077439
C7    C     C_1   0.501431 0.505488 0.825644 -0.091880
C8    C     C_1   0.504296 0.502435 0.750248 -0.161888
C9    C     C_2   0.569729 0.958107 0.496412 -0.373634
C10   C     C_2   0.430272 0.041898 0.503261 -0.363680
C11   C     C_R   0.501537 0.500221 0.661532 0.891488
C12   C     C_R   0.454347 0.205347 0.502093 0.956564
C13   C     C_R   0.498360 0.499945 0.338486 0.900441
C14   C     C_3   0.314395 0.563960 0.955756 -0.203415
C15   C     C_3   0.640910 0.620693 0.948222 -0.394296
C16   C     C_3   0.639105 0.617865 0.046187 -0.412036
C17   C     C_1   0.494454 0.502515 0.249910 -0.137583
C18   C     C_3   0.492871 0.509612 0.917539 0.271262
H1    H     H_    0.214129 0.475818 0.934928 0.128074
H2    H     H_    0.635510 0.299782 0.065972 0.195093
H3    H     H_    0.701527 0.008956 0.489825 0.186749
H4    H     H_    0.298476 0.991060 0.509812 0.186363
H5    H     H_    0.986683 0.618678 0.563538 0.145504
H6    H     H_    0.767789 0.583914 0.919701 0.181500
H7    H     H_    0.627027 0.742210 0.927231 0.183915
H8    H     H_    0.630715 0.738815 0.072601 0.183669
H9    H     H_    0.763396 0.575614 0.064396 0.198128
H10   H     H_    0.411072 0.259906 0.927279 0.185036
H11   H     H_    0.640602 0.299721 0.921224 0.188517
H12   H     H_    0.407179 0.257624 0.072658 0.194818
N1    N     N_2   0.950340 0.457950 0.477370 0.098980
N2    N     N_2   0.049660 0.542050 0.522630 -0.072142
O1    O     O_R   0.389240 0.738570 0.505550 -0.620926
O2    O     O_R   0.678400 0.711630 0.491050 -0.640187
O3    O     O_R   0.355360 0.513470 0.630110 -0.619941
O4    O     O_R   0.644510 0.486530 0.615610 -0.635309
O5    O     O_R   0.321600 0.288370 0.508950 -0.569262
O6    O     O_R   0.610760 0.261430 0.494450 -0.629678
O7    O     O_R   0.355490 0.513470 0.384390 -0.556290
O8    O     O_R   0.644640 0.486530 0.369890 -0.623425
Zn1   Zn    Zn3+2 0.306930 0.517990 0.509680 1.022598
Zn2   Zn    Zn3+2 0.693070 0.482010 0.490320 0.978946
C19   C     C_1   0.283807 0.727168 0.093428 0.162547
N3    N     N_1   0.263399 0.850617 0.122267 -0.201977
C20   C     C_1   0.161833 0.467196 0.091872 0.120469
N4    N     N_1   0.045925 0.387904 0.119506 -0.204620
O9    O     O_3   0.030009 0.357435 0.423883 -0.621904
H13   H     H_    0.935871 0.302018 0.394287 0.344237
C21   C     C_1   0.271677 0.713159 0.918181 0.161010
N5    N     N_1   0.238410 0.829283 0.888816 -0.209463

loop_
_geom_bond_atom_site_label_1
_geom_bond_atom_site_label_2
_ccdc_geom_bond_type
C15   C18   S    
N2    Zn1   S    
N1    Zn2   S    
C5    H10   S    
C9    C10   D    
C14   C18   S    
O4    Zn2   S    
N1    N2    D    
O2    Zn2   S    
C13   C17   S    
C2    C19   S    
C19   N3    T    
C3    C6    S    
O1    Zn1   S    
H5    N2    S    
C7    C18   S    
C16   H9    S    
O8    Zn2   S    
C2    C3    S    
C1    O1    A    
C7    C8    T    
O7    Zn1   S    
N1    O9    S    
C20   N4    T    
C10   H4    S    
O5    Zn1   S    
C9    H3    S    
C10   C12   S    
C8    C11   S    
C2    C14   S    
C11   O3    A    
C15   H6    S    
C1    O2    A    
O6    Zn2   S    
C5    H11   S    
C2    C20   S    
C12   O6    A    
O3    Zn1   S    
C13   O7    A    
C14   C21   S    
C15   H7    S    
C15   C16   S    
C3    C4    S    
C4    H2    S    
C1    C9    S    
C21   N5    T    
C12   O5    A    
C6    C17   T    
C11   O4    A    
C13   O8    A    
C5    C18   S    
C14   H1    S    
C4    H12   S    
C3    C16   S    
O9    H13   S    
C4    C5    S    
C16   H8    S    
