data_mof_unit_67074.cif
_audit_creation_date              2012-12-11T17:41:22-0500
_audit_creation_method            fapswitch 2.2
_symmetry_space_group_name_H-M    P1
_symmetry_Int_Tables_number       1
_space_group_crystal_system       triclinic
_cell_length_a                    8.248075
_cell_length_b                    12.705136
_cell_length_c                    14.308631
_cell_angle_alpha                 92.489657
_cell_angle_beta                  90.884363
_cell_angle_gamma                 98.804188
_cell_volume                      1480.00645632

loop_
_atom_site_label
_atom_site_type_symbol
_atom_type_description
_atom_site_fract_x
_atom_site_fract_y
_atom_site_fract_z
_atom_type_partial_charge
Ba1   Ba    Ba6+2 0.855630 0.555280 0.454520 1.498178
Ba2   Ba    Ba6+2 0.334200 0.444810 0.545490 1.486879
C1    C     C_3   0.816633 0.944051 0.116905 -0.351789
C2    C     C_R   0.179696 0.500582 0.195484 0.042839
C3    C     C_R   0.330443 0.557309 0.226194 -0.378171
C4    C     C_3   0.152883 0.789736 0.198195 0.306197
C5    C     C_R   0.441559 0.607210 0.163831 0.041628
C6    C     C_R   0.400649 0.606527 0.068338 0.330953
C7    C     C_R   0.246048 0.553843 0.034719 -0.060969
C8    C     C_R   0.136205 0.496915 0.097503 -0.074944
C9    C     C_R   0.055373 0.497927 0.901028 -0.040332
C10   C     C_R   0.947338 0.439330 0.963326 0.013464
C11   C     C_R   0.009998 0.497245 0.803563 0.044648
C12   C     C_3   0.726340 0.863446 0.183722 0.787134
C13   C     C_R   0.857731 0.441920 0.773123 -0.236850
C14   C     C_R   0.748587 0.389242 0.835334 -0.024550
C15   C     C_R   0.794833 0.385482 0.929341 -0.169282
C16   C     C_3   0.168104 0.823883 0.097212 -0.399525
C17   C     C_R   0.203013 0.555422 0.938652 -0.040597
C18   C     C_R   0.767019 0.176633 0.529844 -0.274222
C19   C     C_R   0.424678 0.814084 0.465664 -0.254427
C20   C     C_R   0.401650 0.995057 0.430811 -0.112987
C21   C     C_R   0.336087 0.887654 0.427212 0.005296
C22   C     C_R   0.575162 0.847134 0.513090 0.042405
C23   C     C_3   0.470811 0.317469 0.261699 0.324168
C24   C     C_R   0.643451 0.957162 0.517029 -0.051373
C25   C     C_R   0.555188 0.031579 0.474702 -0.064895
C26   C     C_R   0.620356 0.141324 0.480559 0.039581
C27   C     C_R   0.857832 0.104669 0.567470 -0.041764
C28   C     C_3   0.175034 0.771556 0.662038 0.283104
C29   C     C_R   0.795185 0.995913 0.562937 -0.091892
C30   C     C_3   0.123445 0.876660 0.692679 -0.319253
C31   C     C_3   0.973179 0.236567 0.343592 0.253228
C32   C     C_3   0.970278 0.118172 0.323368 -0.331549
C33   C     C_3   0.578469 0.719531 0.745312 0.244737
C34   C     C_3   0.469346 0.305038 0.155782 -0.392065
C35   C     C_3   0.569015 0.795318 0.829589 -0.360214
C36   C     C_3   0.516069 0.963702 0.211176 0.048709
C37   C     C_3   0.508719 0.060870 0.707290 0.191473
C38   C     C_3   0.629031 0.595404 0.981907 0.247396
C39   C     C_3   0.007072 0.183419 0.796377 0.355669
C40   C     C_3   0.975965 0.130520 0.889138 -0.366374
C41   C     C_3   0.510695 0.149839 0.850880 0.834526
C42   C     C_3   0.499635 0.119956 0.952779 -0.266560
C43   C     C_R   0.988452 0.438739 0.059716 -0.047766
H1    H     H_    0.773341 0.882966 0.256855 0.004877
H2    H     H_    0.593910 0.639380 0.767232 0.072145
H3    H     H_    0.463674 0.711792 0.705392 0.069230
H4    H     H_    0.779294 0.024000 0.123374 0.059155
H5    H     H_    0.676664 0.795733 0.877209 0.127465
H6    H     H_    0.454352 0.771070 0.867686 0.146704
H7    H     H_    0.568608 0.877250 0.806179 0.133385
H8    H     H_    0.793503 0.913968 0.043071 0.121722
H9    H     H_    0.347498 0.330451 0.284571 0.017118
H10   H     H_    0.562840 0.388199 0.282739 0.075317
H11   H     H_    0.380066 0.234232 0.131619 0.115298
H12   H     H_    0.203448 0.914559 0.751484 0.179062
H13   H     H_    0.434357 0.376729 0.124306 0.058547
H14   H     H_    0.594216 0.295412 0.132674 0.117265
H15   H     H_    0.949893 0.956864 0.132240 0.110377
H16   H     H_    0.251186 0.778133 0.058374 0.127910
H17   H     H_    0.089702 0.260621 0.809229 0.084337
H18   H     H_    0.887543 0.198891 0.767506 -0.044565
H19   H     H_    0.093105 0.114174 0.920189 0.140863
H20   H     H_    0.920400 0.183685 0.938672 0.071552
H21   H     H_    0.890627 0.054223 0.878066 0.105868
H22   H     H_    0.643836 0.172742 0.838008 -0.297538
H23   H     H_    0.134250 0.929540 0.632997 0.101751
H24   H     H_    0.561495 0.186239 0.998811 0.023698
H25   H     H_    0.561661 0.049484 0.963190 0.080552
H26   H     H_    0.060148 0.716557 0.199777 0.094879
H27   H     H_    0.369637 0.100327 0.973240 0.124771
H28   H     H_    0.366088 0.557628 0.299333 0.092426
H29   H     H_    0.707883 0.346501 0.977154 0.054341
H30   H     H_    0.819601 0.444976 0.700712 0.080488
H31   H     H_    0.903431 0.392730 0.104686 0.106547
H32   H     H_    0.286062 0.601946 0.893364 0.141154
H33   H     H_    0.330454 0.048725 0.398635 0.092359
H34   H     H_    0.995773 0.864032 0.717382 0.138721
H35   H     H_    0.864269 0.943647 0.597414 0.100543
H36   H     H_    0.815135 0.260910 0.534988 0.070667
H37   H     H_    0.273247 0.770296 0.221608 0.026658
H38   H     H_    0.372269 0.730525 0.462409 0.074254
H39   H     H_    0.046820 0.808465 0.060546 0.120153
H40   H     H_    0.219094 0.909774 0.094819 0.134312
H41   H     H_    0.298331 0.789565 0.632971 -0.082398
H42   H     H_    0.093040 0.733355 0.605235 0.116038
H43   H     H_    0.511557 0.017587 0.152491 0.086690
H44   H     H_    0.600364 0.003413 0.267915 0.016940
H45   H     H_    0.850057 0.251574 0.363673 0.012954
H46   H     H_    0.393066 0.952611 0.240595 0.096266
H47   H     H_    0.640976 0.054041 0.712786 -0.009617
H48   H     H_    0.489884 0.133832 0.671130 0.091797
H49   H     H_    0.446586 0.991030 0.664792 0.050445
H50   H     H_    0.631504 0.586664 0.905392 0.026989
H51   H     H_    0.607737 0.513675 0.009013 0.018540
H52   H     H_    0.752698 0.636006 0.004875 0.080274
H53   H     H_    0.062469 0.261728 0.401954 0.088158
H54   H     H_    0.874894 0.089422 0.269458 0.096227
H55   H     H_    0.941365 0.073985 0.387277 0.098144
H56   H     H_    0.091506 0.102784 0.298065 0.123328
O1    O     O_2   0.887370 0.460630 0.272300 -0.444125
O2    O     O_2   0.199793 0.113660 0.568070 -0.482027
O3    O     O_3   0.081864 0.116288 0.735712 -0.569895
O4    O     O_3   0.129410 0.451380 0.388510 -0.492277
O5    O     O_3   0.575400 0.626570 0.547370 -0.470958
O6    O     O_2   0.344320 0.238700 0.455090 -0.463047
O7    O     O_3   0.511287 0.224293 0.299038 -0.654859
O8    O     O_2   0.440245 0.433615 0.830201 -0.484545
O9    O     O_3   0.416884 0.231893 0.836452 -0.594897
O10   O     O_3   0.670210 0.653170 0.329170 -0.469070
O11   O     O_2   0.742734 0.563570 0.173016 -0.502798
O12   O     O_3   0.713416 0.758946 0.693205 -0.639235
O13   O     O_3   0.015866 0.289623 0.262043 -0.633294
O14   O     O_3   0.766892 0.763074 0.155283 -0.604065
O15   O     O_2   0.845380 0.761330 0.544970 -0.459881
O16   O     O_3   0.088930 0.704860 0.376040 -0.482245
O17   O     O_2   0.993167 0.886035 0.426172 -0.491367
O18   O     O_3   0.554735 0.863952 0.177446 -0.685587
O19   O     O_3   0.440598 0.058695 0.796482 -0.655028
O20   O     O_3   0.510406 0.659865 0.007918 -0.659764
O21   O     O_3   0.105914 0.872217 0.256051 -0.627864
O22   O     O_2   0.302330 0.539400 0.727760 -0.463559
O23   O     O_3   0.060300 0.548700 0.611500 -0.492652
O24   O     O_3   0.519500 0.346920 0.670840 -0.454568
O25   O     O_3   0.178382 0.710247 0.741062 -0.652763
O26   O     O_3   0.614310 0.373510 0.452640 -0.470229
O27   O     O_3   0.100780 0.295230 0.623970 -0.472539
P1    P     P_3+3 0.054400 0.427280 0.286870 0.987614
P2    P     P_3+3 0.668300 0.742890 0.573060 0.975208
P3    P     P_3+3 0.131743 0.841709 0.373151 0.939386
P4    P     P_3+3 0.135310 0.572810 0.713130 0.974633
P5    P     P_3+3 0.060066 0.156235 0.621394 0.965769
P6    P     P_3+3 0.651110 0.654078 0.207557 0.998090
P7    P     P_3+3 0.525039 0.242380 0.420890 0.933616
P8    P     P_3+3 0.535480 0.345850 0.793604 0.963818

loop_
_geom_bond_atom_site_label_1
_geom_bond_atom_site_label_2
_ccdc_geom_bond_type
C27   P5    S    
C28   O25   S    
C4    H37   S    
O22   P4    D    
C26   P7    S    
C1    H8    S    
C39   C40   S    
O21   P3    S    
C13   H30   S    
O1    P1    D    
C34   H14   S    
C33   H2    S    
C1    H4    S    
C29   H35   S    
C12   H1    S    
Ba2   O22   S    
C38   O20   S    
C36   H44   S    
C9    C17   A    
C31   O13   S    
C43   H31   S    
C30   H12   S    
C33   C35   S    
C22   C24   A    
C31   H53   S    
C34   H13   S    
C35   H6    S    
C6    O20   S    
C12   O14   S    
Ba2   O6    S    
O23   P4    S    
Ba1   Ba2   S    
C17   H32   S    
C37   H48   S    
O6    P7    D    
O17   P3    D    
O9    P8    S    
C7    C17   A    
C19   H38   S    
C14   C15   A    
C10   C15   A    
C40   H20   S    
Ba2   P4    S    
C42   H25   S    
Ba1   O15   S    
C28   H41   S    
C7    C8    A    
C41   O19   S    
C30   H23   S    
Ba2   O26   S    
C24   C29   A    
C18   H36   S    
O8    P8    D    
C39   H17   S    
C38   H51   S    
O16   P3    S    
C33   H3    S    
C31   C32   S    
C18   C27   A    
C4    H26   S    
C4    C16   S    
C32   H56   S    
O12   P2    S    
C16   H40   S    
Ba1   O26   S    
C5    C6    A    
C23   H9    S    
C20   H33   S    
O7    P7    S    
Ba1   P2    S    
O3    P5    S    
C38   H52   S    
C3    C5    A    
C35   H7    S    
C6    C7    A    
O4    P1    S    
C18   C26   A    
C33   O12   S    
C36   H46   S    
Ba2   O5    S    
C36   H43   S    
C41   C42   S    
C37   H49   S    
C34   H11   S    
C16   H39   S    
O25   P4    S    
C8    C43   A    
C32   H54   S    
C24   C25   A    
C21   P3    S    
C42   H24   S    
O10   P6    S    
Ba1   O16   S    
C1    C12   S    
C5    P6    S    
C36   O18   S    
O24   P8    S    
C41   O9    S    
C37   O19   S    
C20   C25   A    
C11   C13   A    
C15   H29   S    
O13   P1    S    
C39   H18   S    
C38   H50   S    
C2    C8    A    
C14   P8    S    
C40   H19   S    
C37   H47   S    
O5    P2    S    
C23   H10   S    
O11   P6    D    
C10   C43   A    
C9    C10   A    
C16   H16   S    
C2    P1    S    
O14   P6    S    
Ba2   O23   S    
Ba1   O5    S    
Ba2   O4    S    
Ba1   P1    S    
C39   O3    S    
C19   C21   A    
O2    P5    D    
Ba1   O23   S    
C27   C29   A    
O27   P5    S    
C1    H15   S    
C30   H34   S    
C28   C30   S    
C35   H5    S    
C9    C11   A    
C11   P4    S    
C42   H27   S    
C3    H28   S    
O26   P7    S    
C23   C34   S    
Ba2   O24   S    
C22   P2    S    
C2    C3    A    
O15   P2    D    
C41   H22   S    
C12   O18   S    
C19   C22   A    
C25   C26   A    
C40   H21   S    
C4    O21   S    
C20   C21   A    
C28   H42   S    
C31   H45   S    
C32   H55   S    
Ba1   O1    S    
Ba1   O10   S    
C13   C14   A    
C23   O7    S    
Ba1   O4    S    
Ba2   O27   S    
