data_mof_unit_16356.cif
_audit_creation_date              2012-12-10T18:41:17-0500
_audit_creation_method            fapswitch 2.2
_symmetry_space_group_name_H-M    P1
_symmetry_Int_Tables_number       1
_space_group_crystal_system       triclinic
_cell_length_a                    15.108051
_cell_length_b                    13.923082
_cell_length_c                    10.9125
_cell_angle_alpha                 90.228662
_cell_angle_beta                  91.512027
_cell_angle_gamma                 89.819253
_cell_volume                      2294.62307483

loop_
_atom_site_label
_atom_site_type_symbol
_atom_type_description
_atom_site_fract_x
_atom_site_fract_y
_atom_site_fract_z
_atom_type_partial_charge
C1    C     C_R   0.330322 0.500215 0.502679 0.810727
C2    C     C_R   0.453369 0.108446 0.406517 0.314203
C3    C     C_R   0.546562 0.210014 0.588077 0.031443
C4    C     C_R   0.452942 0.210272 0.411738 -0.031568
C5    C     C_R   0.498799 0.055695 0.500300 -0.032861
C6    C     C_R   0.424071 0.893059 0.464813 -0.192730
C7    C     C_R   0.574532 0.893466 0.536671 -0.213912
C8    C     C_R   0.427618 0.792425 0.455609 0.528846
C9    C     C_R   0.571859 0.792744 0.545065 0.515807
C10   C     C_R   0.499160 0.946412 0.500410 -0.010433
C11   C     C_R   0.499533 0.499418 0.262600 0.837644
C12   C     C_R   0.670060 0.499818 0.501735 0.879723
C13   C     C_R   0.503762 0.499775 0.737296 0.838491
C14   C     C_R   0.494403 0.579918 0.061841 -0.177501
C15   C     C_R   0.501191 0.580621 0.938617 -0.177696
C16   C     C_R   0.501331 0.496351 0.129868 -0.161793
C17   C     C_R   0.508274 0.497284 0.870085 -0.157799
C18   C     C_R   0.511613 0.408375 0.064761 0.314171
C19   C     C_R   0.518885 0.409463 0.934858 0.318673
C20   C     C_3   0.495905 0.688362 0.930281 0.283867
C21   C     C_3   0.485242 0.687552 0.070927 0.273017
C22   C     C_R   0.096969 0.563491 0.588324 0.402039
C23   C     C_R   0.186650 0.443384 0.424943 -0.240046
C24   C     C_R   0.908212 0.429104 0.567946 0.324388
C25   C     C_R   0.189402 0.560536 0.591754 0.424144
C26   C     C_R   0.814856 0.427254 0.566670 0.390899
C27   C     C_R   0.234195 0.500992 0.508122 -0.294955
C28   C     C_R   0.766858 0.499579 0.504221 -0.230765
C29   C     C_3   0.654220 0.689205 0.919089 0.073347
C30   C     C_3   0.730973 0.758464 0.905677 -0.745867
C31   C     C_3   0.328874 0.664844 0.086182 0.072565
C32   C     C_3   0.243960 0.721257 0.105266 -0.692234
C33   C     C_3   0.536587 0.046635 0.784336 0.048222
C34   C     C_R   0.810729 0.572910 0.443746 -0.240528
C35   C     C_3   0.588292 0.990733 0.882004 -0.720696
C36   C     C_3   0.423551 0.091678 0.198007 0.061351
C37   C     C_3   0.390840 0.017064 0.105358 -0.732653
C38   C     C_R   0.094769 0.444999 0.420130 0.431512
C39   C     C_R   0.902422 0.575239 0.441168 0.410536
C40   C     C_R   0.049105 0.505056 0.502747 -0.240555
C41   C     C_R   0.951947 0.503137 0.503823 -0.189017
C42   C     C_R   0.544920 0.109161 0.593061 0.282280
Cu1   Cu    Cu3+1 0.500000 0.596430 0.500000 0.960362
Cu2   Cu    Cu3+1 0.500000 0.403570 0.500000 1.003583
H1    H     H_    0.362491 0.928527 0.439910 0.224340
H2    H     H_    0.577458 0.285360 0.923938 0.329363
H3    H     H_    0.381401 0.696981 0.346809 0.371528
H4    H     H_    0.618316 0.697713 0.653604 0.369600
H5    H     H_    0.662667 0.628865 0.853358 0.161785
H6    H     H_    0.658062 0.660859 0.014144 0.140138
H7    H     H_    0.730986 0.788295 0.811558 0.279503
H8    H     H_    0.725258 0.818353 0.972568 0.244143
H9    H     H_    0.794594 0.720231 0.923591 0.219075
H10   H     H_    0.330923 0.603934 0.151821 0.147501
H11   H     H_    0.326566 0.636540 0.990728 0.150136
H12   H     H_    0.635405 0.929480 0.563184 0.224841
H13   H     H_    0.239832 0.782418 0.040301 0.251897
H14   H     H_    0.185843 0.673838 0.088867 0.212538
H15   H     H_    0.242402 0.749394 0.200493 0.272850
H16   H     H_    0.991584 0.618953 0.663875 0.335540
H17   H     H_    0.017857 0.370998 0.636001 0.348524
H18   H     H_    0.293185 0.589186 0.695853 0.309974
H19   H     H_    0.809737 0.310979 0.667458 0.380407
H20   H     H_    0.988555 0.398722 0.331517 0.342628
H21   H     H_    0.005096 0.641837 0.375578 0.341839
H22   H     H_    0.478284 0.002714 0.754480 0.156773
H23   H     H_    0.436085 0.713062 0.877849 0.135970
H24   H     H_    0.513332 0.115343 0.825270 0.158265
H25   H     H_    0.644289 0.034617 0.918755 0.245739
H26   H     H_    0.544738 0.971574 0.958243 0.205253
H27   H     H_    0.614734 0.923730 0.841385 0.289470
H28   H     H_    0.496059 0.101687 0.186304 0.154502
H29   H     H_    0.387652 0.159794 0.177892 0.154197
H30   H     H_    0.401798 0.043002 0.010904 0.183055
H31   H     H_    0.427011 0.948267 0.119801 0.267994
H32   H     H_    0.318893 0.004429 0.115950 0.265316
H33   H     H_    0.541227 0.720969 0.123379 0.129307
H34   H     H_    0.221415 0.398095 0.360855 0.189575
H35   H     H_    0.773232 0.628245 0.395561 0.209624
H36   H     H_    0.584658 0.249658 0.656443 0.212581
H37   H     H_    0.414473 0.251309 0.345438 0.159604
H38   H     H_    0.489349 0.271281 0.074272 0.308062
N1    N     N_R   0.500000 0.258690 0.500000 -0.228016
N2    N     N_R   0.500000 0.741330 0.500000 -0.275981
O1    O     O_R   0.371460 0.581430 0.500010 -0.558483
O2    O     O_3   0.539041 0.326631 0.871166 -0.741196
O3    O     O_3   0.356814 0.748358 0.398418 -0.700312
O4    O     O_3   0.642791 0.748912 0.602360 -0.719291
O5    O     O_3   0.573309 0.738002 0.892969 -0.595881
O6    O     O_3   0.402403 0.726068 0.108218 -0.588637
O7    O     O_3   0.056706 0.622682 0.672749 -0.656508
O8    O     O_3   0.953610 0.358047 0.632488 -0.717586
O9    O     O_3   0.232985 0.615330 0.680333 -0.664263
O10   O     O_3   0.768474 0.357804 0.628697 -0.709444
O11   O     O_3   0.053079 0.386741 0.333542 -0.692947
O12   O     O_R   0.628540 0.581430 0.499990 -0.588750
O13   O     O_3   0.940046 0.649180 0.376350 -0.694867
O14   O     O_3   0.592863 0.064378 0.685940 -0.577271
O15   O     O_3   0.404466 0.059426 0.316857 -0.583100
O16   O     O_R   0.371470 0.418560 0.500010 -0.584595
O17   O     O_R   0.628530 0.418560 0.499990 -0.527574
O18   O     O_R   0.499990 0.581450 0.319660 -0.617562
O19   O     O_R   0.500010 0.581450 0.680340 -0.618849
O20   O     O_R   0.500010 0.418580 0.319660 -0.528545
O21   O     O_R   0.499990 0.418580 0.680340 -0.525520
O22   O     O_3   0.513727 0.322669 0.128173 -0.736490

loop_
_geom_bond_atom_site_label_1
_geom_bond_atom_site_label_2
_ccdc_geom_bond_type
C26   O10   S    
C7    C10   A    
C30   H7    S    
C3    C42   A    
C25   O9    S    
Cu1   N2    S    
C6    H1    S    
C20   H23   S    
C32   H14   S    
C5    C42   A    
C19   O2    S    
C37   H30   S    
C29   O5    S    
Cu2   O20   S    
C39   C41   A    
C29   H5    S    
Cu2   O21   S    
H19   O10   S    
C12   C28   S    
C32   H13   S    
C14   C21   S    
C36   C37   S    
C24   C26   A    
C18   C19   A    
C42   O14   S    
C9    O4    S    
C39   O13   S    
C15   C17   A    
C33   O14   S    
C17   C19   A    
C4    H37   S    
C35   H26   S    
C22   C25   A    
C38   O11   S    
C22   O7    S    
H4    O4    S    
C11   O20   A    
C23   C27   A    
C13   O19   A    
H17   O8    S    
C29   H6    S    
Cu2   N1    S    
C37   H31   S    
C35   H27   S    
C23   H34   S    
C24   C41   A    
C7    H12   S    
C3    H36   S    
C24   O8    S    
C1    O16   A    
C33   H22   S    
C21   O6    S    
C1    O1    A    
C15   C20   S    
C30   H9    S    
C34   C39   A    
Cu1   O1    S    
C13   O21   A    
C6    C8    A    
H3    O3    S    
C2    C4    A    
Cu1   Cu2   S    
C18   O22   S    
C29   C30   S    
C34   H35   S    
C11   C16   S    
C31   C32   S    
C31   O6    S    
C22   C40   A    
Cu1   O12   S    
C11   O18   A    
C40   C41   S    
C37   H32   S    
C2    O15   S    
C3    N1    A    
C14   C16   A    
C2    C5    A    
H16   O7    S    
C7    C9    A    
C30   H8    S    
C8    N2    A    
H20   O11   S    
C6    C10   A    
Cu2   O17   S    
C25   C27   A    
C23   C38   A    
C20   O5    S    
C26   C28   A    
C13   C17   S    
C8    O3    S    
Cu1   O18   S    
H21   O13   S    
C12   O17   A    
C38   C40   A    
Cu2   O16   S    
C4    N1    A    
C33   C35   S    
C36   O15   S    
H38   O22   S    
C31   H10   S    
Cu1   O19   S    
C36   H29   S    
C9    N2    A    
C28   C34   A    
C5    C10   S    
C20   C21   S    
C35   H25   S    
C16   C18   A    
H18   O9    S    
C21   H33   S    
C1    C27   S    
C14   C15   A    
C12   O12   A    
C32   H15   S    
C31   H11   S    
C36   H28   S    
C33   H24   S    
H2    O2    S    
