data_mof_unit_63572.cif
_audit_creation_date              2012-12-10T18:35:41-0500
_audit_creation_method            fapswitch 2.2
_symmetry_space_group_name_H-M    P1
_symmetry_Int_Tables_number       1
_space_group_crystal_system       triclinic
_cell_length_a                    45.039294
_cell_length_b                    45.111044
_cell_length_c                    35.807239
_cell_angle_alpha                 89.9641
_cell_angle_beta                  51.065002
_cell_angle_gamma                 89.99941
_cell_volume                      56590.85653

loop_
_atom_site_label
_atom_site_type_symbol
_atom_type_description
_atom_site_fract_x
_atom_site_fract_y
_atom_site_fract_z
_atom_type_partial_charge
Br1   Br    Br    0.967830 0.633286 0.419274 -0.449187
Br2   Br    Br    0.413676 0.807880 0.463771 -0.446028
Br3   Br    Br    0.089262 0.306717 0.528099 -0.455340
Br4   Br    Br    0.910386 0.306636 0.472820 -0.423811
Br5   Br    Br    0.032202 0.633465 0.580107 -0.449454
Br6   Br    Br    0.467801 0.134209 0.421154 -0.450033
Br7   Br    Br    0.532178 0.133474 0.580122 -0.447395
Br8   Br    Br    0.597827 0.861883 0.434062 -0.457796
Br9   Br    Br    0.401866 0.861915 0.566321 -0.457689
Br10  Br    Br    0.103753 0.364431 0.427272 -0.460146
Br11  Br    Br    0.895570 0.364622 0.573484 -0.463191
Br12  Br    Br    0.586182 0.807894 0.536632 -0.446337
C1    C     C_R   0.790628 0.709405 0.500018 0.901995
C2    C     C_R   0.050815 0.751429 0.898490 -0.049182
C3    C     C_3   0.607094 0.141357 0.552682 -0.417482
C4    C     C_1   0.918991 0.581692 0.499321 0.005241
C5    C     C_1   0.081053 0.581694 0.500585 0.005055
C6    C     C_1   0.419006 0.081709 0.499331 0.006340
C7    C     C_1   0.581049 0.081698 0.500587 0.005501
C8    C     C_1   0.831986 0.668502 0.499472 -0.065982
C9    C     C_1   0.168034 0.668503 0.500487 -0.066745
C10   C     C_1   0.331985 0.168515 0.499493 -0.060887
C11   C     C_1   0.668027 0.168505 0.500493 -0.065326
C12   C     C_1   0.813024 0.687216 0.499785 -0.155326
C13   C     C_R   0.449282 0.251561 0.101517 -0.048892
C14   C     C_1   0.186986 0.687216 0.500194 -0.156091
C15   C     C_1   0.313021 0.187221 0.499799 -0.146585
C16   C     C_1   0.686982 0.187217 0.500198 -0.154810
C17   C     C_R   0.485167 0.754465 0.974465 0.043808
C18   C     C_R   0.459015 0.752772 0.025336 0.044250
C19   C     C_R   0.999893 0.276822 0.974546 0.044273
C20   C     C_R   0.975700 0.276867 0.025476 0.044506
C21   C     C_R   0.522622 0.742932 0.949290 0.076601
C22   C     C_R   0.471895 0.742623 0.050533 0.076400
C23   C     C_R   0.015117 0.249568 0.949364 0.076206
C24   C     C_R   0.550846 0.251482 0.898478 -0.048980
C25   C     C_R   0.964465 0.249476 0.050621 0.076047
C26   C     C_R   0.534684 0.730892 0.974466 0.044841
C27   C     C_R   0.509858 0.732253 0.025370 0.044198
C28   C     C_R   0.004643 0.222225 0.974511 0.045160
C29   C     C_R   0.977882 0.222110 0.025436 0.045000
C30   C     C_R   0.475388 0.767789 0.947708 -0.202129
C31   C     C_R   0.420202 0.760883 0.052131 -0.203848
C32   C     C_R   0.009615 0.303203 0.947644 -0.202441
C33   C     C_R   0.962777 0.303483 0.052364 -0.201987
C34   C     C_R   0.501089 0.768834 0.897922 -0.120885
C35   C     C_R   0.909683 0.754238 0.126985 -0.033717
C36   C     C_R   0.395501 0.760609 0.101960 -0.122496
C37   C     C_R   0.035019 0.302997 0.897842 -0.122270
C38   C     C_R   0.939005 0.303168 0.102135 -0.124416
C39   C     C_R   0.702588 0.750272 0.594303 0.923361
C40   C     C_R   0.297364 0.750268 0.405741 0.925551
C41   C     C_R   0.202983 0.249843 0.594388 0.918556
C42   C     C_R   0.797384 0.250223 0.405642 0.918598
C43   C     C_R   0.537520 0.756684 0.872839 -0.031703
C44   C     C_R   0.408459 0.752212 0.127033 -0.027926
C45   C     C_R   0.051508 0.276514 0.872852 -0.030250
C46   C     C_R   0.090452 0.753792 0.872992 -0.033773
C47   C     C_R   0.927229 0.276373 0.127137 -0.029839
C48   C     C_R   0.548398 0.743598 0.898335 -0.049274
C49   C     C_R   0.446576 0.743031 0.101501 -0.049495
C50   C     C_R   0.041368 0.249687 0.898401 -0.048915
C51   C     C_R   0.939736 0.249452 0.101588 -0.049065
C52   C     C_R   0.585179 0.731309 0.872761 -0.028306
C53   C     C_R   0.459377 0.734435 0.127045 -0.029760
C54   C     C_R   0.057758 0.223003 0.872859 -0.028627
C55   C     C_R   0.927667 0.222508 0.127134 -0.027936
C56   C     C_R   0.596068 0.718140 0.897782 -0.126197
C57   C     C_R   0.409706 0.254431 0.127004 -0.034121
C58   C     C_R   0.497074 0.725159 0.101986 -0.124172
C59   C     C_R   0.047896 0.196331 0.897862 -0.125985
C60   C     C_R   0.939540 0.195735 0.102133 -0.124577
C61   C     C_R   0.571361 0.717862 0.947617 -0.204656
C62   C     C_R   0.521853 0.724043 0.052186 -0.204016
C63   C     C_R   0.021955 0.195885 0.947632 -0.203060
C64   C     C_R   0.964023 0.195470 0.052330 -0.203919
C65   C     C_R   0.563636 0.757547 0.822558 0.523170
C66   C     C_R   0.384012 0.752683 0.177351 0.517952
C67   C     C_R   0.078007 0.276194 0.822585 0.522755
C68   C     C_R   0.590503 0.253504 0.872978 -0.033820
C69   C     C_R   0.903532 0.275859 0.177394 0.522645
C70   C     C_R   0.610316 0.732477 0.822456 0.520756
C71   C     C_R   0.434196 0.735764 0.177337 0.522093
C72   C     C_R   0.084200 0.223686 0.822604 0.521922
C73   C     C_R   0.903784 0.222988 0.177408 0.519672
C74   C     C_R   0.632992 0.721605 0.720368 -0.091496
C75   C     C_R   0.362892 0.720718 0.280022 -0.087083
C76   C     C_R   0.111663 0.239524 0.719978 -0.090930
C77   C     C_R   0.831085 0.258958 0.280080 -0.093422
C78   C     C_R   0.658109 0.723038 0.670494 -0.260850
C79   C     C_R   0.895569 0.757146 0.101860 -0.112607
C80   C     C_R   0.338807 0.722352 0.329865 -0.265372
C81   C     C_R   0.138592 0.239456 0.670202 -0.254538
C82   C     C_R   0.808258 0.259234 0.329859 -0.264154
C83   C     C_R   0.676293 0.749844 0.646973 -0.135249
C84   C     C_R   0.323233 0.749650 0.353169 -0.132695
C85   C     C_R   0.175746 0.250165 0.647181 -0.145206
C86   C     C_R   0.822897 0.249874 0.352901 -0.142919
C87   C     C_R   0.014712 0.750604 0.025434 0.044185
C88   C     C_R   0.985362 0.750934 0.974561 0.044265
C89   C     C_R   0.514722 0.250448 0.025447 0.044387
C90   C     C_R   0.104615 0.756360 0.898099 -0.112372
C91   C     C_R   0.485385 0.251290 0.974552 0.044146
C92   C     C_R   0.668597 0.775514 0.674366 0.365831
C93   C     C_R   0.332647 0.775614 0.325729 0.361942
C94   C     C_R   0.185609 0.260844 0.675279 0.366221
C95   C     C_R   0.861318 0.240428 0.324912 0.364213
C96   C     C_R   0.643209 0.773853 0.724385 -0.133754
C97   C     C_R   0.357138 0.773800 0.275742 -0.126710
C98   C     C_R   0.158268 0.260883 0.725220 -0.136313
C99   C     C_R   0.883942 0.240227 0.274969 -0.132998
C100  C     C_R   0.625492 0.746992 0.747341 0.247478
C101  C     C_R   0.395608 0.257508 0.101889 -0.111815
C102  C     C_R   0.372158 0.746418 0.252779 0.234860
C103  C     C_R   0.121433 0.250281 0.747509 0.244469
C104  C     C_R   0.868909 0.249414 0.252569 0.242766
C105  C     C_3   0.618284 0.839567 0.491015 0.076894
C106  C     C_3   0.381576 0.839572 0.509231 0.076784
C107  C     C_3   0.120919 0.339981 0.486552 0.079095
C108  C     C_3   0.878783 0.340009 0.513936 0.079116
C109  C     C_3   0.671026 0.876574 0.459701 -0.454424
C110  C     C_3   0.328932 0.876592 0.540242 -0.454771
C111  C     C_3   0.171089 0.377999 0.462412 -0.453856
C112  C     C_R   0.209373 0.709405 0.499981 0.900659
C113  C     C_R   0.604692 0.255752 0.898081 -0.112356
C114  C     C_3   0.828910 0.378093 0.537300 -0.456176
C115  C     C_3   0.646941 0.900940 0.459533 -0.368442
C116  C     C_3   0.353008 0.900958 0.540428 -0.368499
C117  C     C_3   0.146988 0.402374 0.462292 -0.370026
C118  C     C_3   0.853000 0.402468 0.537438 -0.369095
C119  C     C_1   0.562514 0.937119 0.500007 -0.121592
C120  C     C_1   0.437448 0.937119 0.500067 -0.121851
C121  C     C_1   0.062524 0.437121 0.499991 -0.122849
C122  C     C_1   0.937445 0.437115 0.500080 -0.122729
C123  C     C_3   0.644677 0.853793 0.500231 0.199043
C124  C     C_R   0.920160 0.756469 0.052033 -0.200856
C125  C     C_3   0.355294 0.853794 0.499823 0.199293
C126  C     C_3   0.144765 0.353789 0.500044 0.206235
C127  C     C_3   0.855224 0.353782 0.499987 0.203366
C128  C     C_3   0.593214 0.863870 0.492110 0.081025
C129  C     C_3   0.406638 0.863875 0.508156 0.081073
C130  C     C_3   0.095815 0.364246 0.487640 0.080016
C131  C     C_3   0.903876 0.364271 0.512881 0.077910
C132  C     C_3   0.603796 0.894943 0.499644 0.201383
C133  C     C_3   0.396159 0.894944 0.500442 0.201879
C134  C     C_3   0.103886 0.394961 0.499496 0.204082
C135  C     C_R   0.080011 0.755718 0.947932 -0.200690
C136  C     C_3   0.896083 0.394953 0.500575 0.204379
C137  C     C_R   0.974752 0.751717 0.050575 0.080035
C138  C     C_R   0.025341 0.751673 0.949414 0.079986
C139  C     C_R   0.474769 0.251778 0.050585 0.080010
C140  C     C_R   0.525367 0.251737 0.949410 0.080017
C141  C     C_3   0.595852 0.894719 0.548524 -0.449861
C142  C     C_3   0.404223 0.894698 0.451489 -0.450614
C143  C     C_3   0.093447 0.392920 0.549756 -0.447115
C144  C     C_3   0.906795 0.392773 0.450182 -0.448314
C145  C     C_3   0.620131 0.870584 0.548777 -0.354164
C146  C     C_R   0.420198 0.256890 0.052063 -0.200197
C147  C     C_3   0.379953 0.870563 0.451217 -0.354057
C148  C     C_3   0.117718 0.368777 0.550008 -0.365688
C149  C     C_3   0.882534 0.368633 0.449905 -0.362438
C150  C     C_1   0.581112 0.918139 0.499901 -0.024076
C151  C     C_1   0.418840 0.918140 0.500192 -0.024278
C152  C     C_1   0.081151 0.418146 0.499837 -0.025716
C153  C     C_1   0.918813 0.418139 0.500247 -0.025008
C154  C     C_1   0.667965 0.831306 0.500185 -0.022174
C155  C     C_1   0.332018 0.831306 0.499846 -0.022198
C156  C     C_1   0.168022 0.331302 0.500059 -0.028029
C157  C     C_R   0.580085 0.255147 0.947910 -0.200759
C158  C     C_1   0.831978 0.331297 0.499945 -0.026453
C159  C     C_1   0.686981 0.812759 0.500113 -0.119369
C160  C     C_1   0.313012 0.812759 0.499899 -0.118383
C161  C     C_1   0.187012 0.312757 0.500042 -0.131048
C162  C     C_1   0.812992 0.312754 0.499951 -0.124929
C163  C     C_R   0.459533 0.959531 0.500029 0.897663
C164  C     C_R   0.540455 0.959531 0.499995 0.897820
C165  C     C_R   0.959535 0.459529 0.500030 0.897158
C166  C     C_R   0.040455 0.459531 0.499993 0.897186
C167  C     C_R   0.959557 0.540602 0.499965 0.890396
C168  C     C_R   0.937607 0.747876 0.177334 0.544149
C169  C     C_R   0.040455 0.540601 0.500010 0.890412
C170  C     C_R   0.459558 0.040602 0.499966 0.890151
C171  C     C_R   0.540455 0.040602 0.500010 0.890404
C172  C     C_R   0.959977 0.752979 0.025369 0.044669
C173  C     C_R   0.040136 0.752604 0.974615 0.044659
C174  C     C_R   0.460005 0.253268 0.025375 0.044545
C175  C     C_R   0.540168 0.252383 0.974614 0.044785
C176  C     C_R   0.027844 0.747147 0.052157 -0.199336
C177  C     C_R   0.972170 0.747802 0.947861 -0.199490
C178  C     C_R   0.527817 0.246853 0.052195 -0.199273
C179  C     C_R   0.062420 0.748080 0.822677 0.543948
C180  C     C_R   0.472180 0.248505 0.947821 -0.198762
C181  C     C_R   0.002584 0.746097 0.101969 -0.118265
C182  C     C_R   0.997412 0.746707 0.898053 -0.118413
C183  C     C_R   0.502550 0.245830 0.102003 -0.118712
C184  C     C_R   0.497412 0.247427 0.898017 -0.118055
C185  C     C_R   0.437589 0.247760 0.177357 0.544262
C186  C     C_R   0.562424 0.248444 0.822655 0.543912
C187  C     C_R   0.885037 0.754176 0.177289 0.576559
C188  C     C_R   0.290626 0.209406 0.500022 0.912798
C189  C     C_R   0.115089 0.753718 0.822685 0.576561
C190  C     C_R   0.385055 0.254336 0.177309 0.576321
C191  C     C_R   0.615148 0.253421 0.822673 0.576414
C192  C     C_R   0.872942 0.774125 0.277892 -0.158604
C193  C     C_R   0.127338 0.774141 0.722081 -0.158691
C194  C     C_R   0.372937 0.274139 0.277906 -0.159337
C195  C     C_R   0.627605 0.274270 0.722054 -0.159193
C196  C     C_R   0.848202 0.774023 0.327834 -0.198413
C197  C     C_R   0.152059 0.774069 0.672140 -0.198656
C198  C     C_R   0.348193 0.274032 0.327847 -0.198248
C199  C     C_R   0.709371 0.209405 0.499983 0.902995
C200  C     C_R   0.652315 0.274191 0.672114 -0.198708
C201  C     C_R   0.823459 0.749993 0.353119 -0.106058
C202  C     C_R   0.176575 0.749950 0.646872 -0.105769
C203  C     C_R   0.323455 0.249998 0.353123 -0.105984
C204  C     C_R   0.676585 0.249955 0.646859 -0.105662
C205  C     C_R   0.797165 0.749992 0.405702 0.894123
C206  C     C_R   0.202846 0.749979 0.594296 0.893917
C207  C     C_R   0.297164 0.249992 0.405703 0.894493
C208  C     C_R   0.702849 0.249979 0.594291 0.894695
C209  C     C_R   0.824090 0.725911 0.327837 -0.243289
C210  C     C_R   0.963334 0.748576 0.127039 -0.031271
C211  C     C_R   0.175732 0.725745 0.672165 -0.243202
C212  C     C_R   0.324088 0.225919 0.327833 -0.242579
C213  C     C_R   0.675504 0.225640 0.672153 -0.242652
C214  C     C_R   0.849268 0.725746 0.277788 0.454005
C215  C     C_R   0.150557 0.725546 0.722215 0.454246
C216  C     C_R   0.349263 0.225764 0.277784 0.454213
C217  C     C_R   0.650325 0.225446 0.722202 0.454877
C218  C     C_R   0.873583 0.750100 0.252671 0.220187
C219  C     C_R   0.126474 0.749991 0.747320 0.219897
C220  C     C_R   0.373579 0.250116 0.252682 0.220312
C221  C     C_R   0.036705 0.748817 0.872971 -0.031172
C222  C     C_R   0.626496 0.250009 0.747301 0.219551
C223  C     C_3   0.833090 0.615955 0.517352 -0.383010
C224  C     C_3   0.166816 0.615918 0.482955 -0.383232
C225  C     C_3   0.333544 0.115777 0.516094 -0.380398
C226  C     C_3   0.666813 0.115918 0.482963 -0.378210
C227  C     C_3   0.865037 0.654966 0.531646 -0.384191
C228  C     C_3   0.135261 0.654896 0.467980 -0.385016
C229  C     C_3   0.364153 0.154608 0.532699 -0.377517
C230  C     C_3   0.635266 0.154900 0.467969 -0.388341
C231  C     C_3   0.888945 0.630537 0.532025 -0.437510
C232  C     C_R   0.463320 0.248460 0.127061 -0.031054
C233  C     C_3   0.111360 0.630466 0.467589 -0.437522
C234  C     C_3   0.388065 0.130177 0.533063 -0.438934
C235  C     C_3   0.611365 0.130469 0.467576 -0.436674
C236  C     C_1   0.937457 0.562882 0.499802 -0.106912
C237  C     C_1   0.062580 0.562883 0.500123 -0.106961
C238  C     C_1   0.437465 0.062891 0.499805 -0.106029
C239  C     C_1   0.562577 0.062885 0.500123 -0.106043
C240  C     C_3   0.855150 0.645705 0.498960 0.231134
C241  C     C_3   0.144877 0.645708 0.500980 0.231697
C242  C     C_3   0.355156 0.145727 0.498984 0.225130
C243  C     C_R   0.536718 0.249199 0.872947 -0.031412
C244  C     C_3   0.644870 0.145710 0.500986 0.230521
C245  C     C_3   0.857212 0.591842 0.517935 -0.419421
C246  C     C_3   0.142705 0.591803 0.482354 -0.419261
C247  C     C_3   0.357659 0.091660 0.516678 -0.418837
C248  C     C_3   0.642701 0.091802 0.482362 -0.419363
C249  C     C_3   0.896633 0.604641 0.498391 0.190376
C250  C     C_3   0.103405 0.604645 0.501521 0.190588
C251  C     C_3   0.396653 0.104669 0.498411 0.188377
C252  C     C_3   0.603399 0.104650 0.501524 0.189234
C253  C     C_R   0.709347 0.790605 0.500030 0.915738
C254  C     C_R   0.949272 0.751513 0.101501 -0.049054
C255  C     C_R   0.290655 0.790605 0.499966 0.917298
C256  C     C_R   0.209354 0.290605 0.500015 0.901044
C257  C     C_R   0.790651 0.290604 0.499975 0.911535
C258  C     C_3   0.917746 0.616822 0.446209 0.588796
C259  C     C_3   0.082143 0.616941 0.553643 0.588598
C260  C     C_3   0.418223 0.117442 0.446478 0.589469
C261  C     C_3   0.582122 0.116950 0.553657 0.588374
C262  C     C_3   0.892771 0.641231 0.447202 -0.417341
C263  C     C_3   0.107114 0.641348 0.552667 -0.416935
C264  C     C_3   0.393235 0.141837 0.447474 -0.418774
Cl1   Cl    Cl    0.926867 0.587657 0.405985 -0.565458
Cl2   Cl    Cl    0.148946 0.694167 0.752654 -0.534010
Cl3   Cl    Cl    0.350554 0.194565 0.247328 -0.531042
Cl4   Cl    Cl    0.648383 0.193929 0.752648 -0.530070
Cl5   Cl    Cl    0.072710 0.587866 0.594210 -0.565067
Cl6   Cl    Cl    0.428386 0.088738 0.405085 -0.562495
Cl7   Cl    Cl    0.572667 0.087880 0.594244 -0.561140
Cl8   Cl    Cl    0.688245 0.810450 0.648038 -0.562151
Cl9   Cl    Cl    0.316169 0.810955 0.352097 -0.565032
Cl10  Cl    Cl    0.231868 0.273108 0.650373 -0.561163
Cl11  Cl    Cl    0.883120 0.230037 0.350065 -0.532528
Cl12  Cl    Cl    0.850574 0.694525 0.247357 -0.535086
H1    H     H_    0.057548 0.744326 0.035580 0.151259
H2    H     H_    0.118985 0.676083 0.480798 0.198679
H3    H     H_    0.901635 0.351854 0.421860 0.222508
H4    H     H_    0.638954 0.881148 0.555116 0.191228
H5    H     H_    0.361210 0.881124 0.444740 0.191290
H6    H     H_    0.134716 0.379053 0.559424 0.185578
H7    H     H_    0.865740 0.378886 0.440160 0.184310
H8    H     H_    0.565041 0.890405 0.578219 0.199719
H9    H     H_    0.435041 0.890372 0.421881 0.199481
H10   H     H_    0.062607 0.387555 0.577418 0.198102
H11   H     H_    0.937628 0.387328 0.422761 0.199372
H12   H     H_    0.562569 0.859593 0.522454 0.182275
H13   H     H_    0.380196 0.175909 0.520543 0.200598
H14   H     H_    0.437292 0.859586 0.477897 0.182210
H15   H     H_    0.065092 0.358895 0.515994 0.181777
H16   H     H_    0.934599 0.358844 0.484762 0.181627
H17   H     H_    0.907090 0.759507 0.035403 0.149012
H18   H     H_    0.093135 0.758474 0.964542 0.149066
H19   H     H_    0.407113 0.260054 0.035478 0.149268
H20   H     H_    0.593269 0.257639 0.964479 0.148739
H21   H     H_    0.602703 0.916764 0.555371 0.199898
H22   H     H_    0.397449 0.916740 0.444514 0.199596
H23   H     H_    0.098456 0.414656 0.559674 0.198234
H24   H     H_    0.618989 0.176087 0.480784 0.197045
H25   H     H_    0.901992 0.414483 0.439942 0.198188
H26   H     H_    0.891677 0.792902 0.258648 0.163045
H27   H     H_    0.108788 0.792989 0.741310 0.162936
H28   H     H_    0.391672 0.292916 0.258665 0.162167
H29   H     H_    0.609249 0.293210 0.741277 0.162357
H30   H     H_    0.848115 0.792859 0.346645 0.175478
H31   H     H_    0.152318 0.792997 0.653315 0.175144
H32   H     H_    0.348099 0.292867 0.346663 0.174822
H33   H     H_    0.652767 0.293205 0.653276 0.174180
H34   H     H_    0.805472 0.707040 0.346905 0.197195
H35   H     H_    0.838385 0.658828 0.568923 0.189771
H36   H     H_    0.194169 0.706807 0.653103 0.197180
H37   H     H_    0.305472 0.207047 0.346893 0.197671
H38   H     H_    0.693748 0.206613 0.653088 0.197534
H39   H     H_    0.841630 0.583735 0.555367 0.182763
H40   H     H_    0.158392 0.583614 0.444963 0.182357
H41   H     H_    0.341751 0.083128 0.553940 0.183970
H42   H     H_    0.658402 0.083611 0.444966 0.183771
H43   H     H_    0.162022 0.658675 0.430746 0.188369
H44   H     H_    0.337150 0.158048 0.569831 0.194066
H45   H     H_    0.662032 0.158677 0.430730 0.188073
H46   H     H_    0.873215 0.622197 0.569364 0.194473
H47   H     H_    0.127195 0.622042 0.430296 0.193930
H48   H     H_    0.372011 0.121406 0.570216 0.195757
H49   H     H_    0.942418 0.745286 0.964455 0.151153
H50   H     H_    0.627212 0.122047 0.430276 0.194056
H51   H     H_    0.916144 0.640132 0.520992 0.220069
H52   H     H_    0.084262 0.640084 0.478344 0.220043
H53   H     H_    0.414915 0.139890 0.522974 0.220782
H54   H     H_    0.584268 0.140088 0.478330 0.219740
H55   H     H_    0.885962 0.635200 0.423191 0.209807
H56   H     H_    0.113730 0.635371 0.576897 0.209887
H57   H     H_    0.387054 0.136079 0.422748 0.210230
H58   H     H_    0.613694 0.135383 0.576928 0.210474
H59   H     H_    0.908534 0.662622 0.433424 0.195584
H60   H     H_    0.557493 0.243921 0.035664 0.151066
H61   H     H_    0.091435 0.662769 0.566183 0.195535
H62   H     H_    0.408689 0.163380 0.434613 0.195889
H63   H     H_    0.591412 0.162778 0.566199 0.195289
H64   H     H_    0.826249 0.608694 0.493817 0.197198
H65   H     H_    0.173461 0.608710 0.506719 0.197579
H66   H     H_    0.327348 0.108790 0.491801 0.198364
H67   H     H_    0.673451 0.108711 0.506733 0.199124
H68   H     H_    0.860685 0.572452 0.496338 0.220802
H69   H     H_    0.139041 0.572462 0.504180 0.221017
H70   H     H_    0.361774 0.072521 0.494293 0.221805
H71   H     H_    0.442415 0.246263 0.964366 0.151601
H72   H     H_    0.639030 0.072463 0.504195 0.221925
H73   H     H_    0.014059 0.743348 0.120783 0.196188
H74   H     H_    0.985888 0.744224 0.879259 0.196076
H75   H     H_    0.514005 0.242976 0.120824 0.195964
H76   H     H_    0.485869 0.245213 0.879210 0.196406
H77   H     H_    0.448331 0.778400 0.964152 0.149829
H78   H     H_    0.407663 0.767067 0.035712 0.149165
H79   H     H_    0.997745 0.324520 0.963851 0.148501
H80   H     H_    0.971184 0.325141 0.036147 0.148790
H81   H     H_    0.492228 0.779366 0.879146 0.196707
H82   H     H_    0.805558 0.618781 0.554220 0.183631
H83   H     H_    0.366111 0.767209 0.120782 0.196003
H84   H     H_    0.041782 0.323843 0.878973 0.195618
H85   H     H_    0.930072 0.324173 0.120967 0.195090
H86   H     H_    0.623931 0.708030 0.878911 0.193415
H87   H     H_    0.507744 0.718771 0.120791 0.195697
H88   H     H_    0.060426 0.175552 0.879034 0.193711
H89   H     H_    0.930053 0.174716 0.120993 0.194346
H90   H     H_    0.581738 0.706702 0.963987 0.147581
H91   H     H_    0.550640 0.717388 0.035794 0.148904
H92   H     H_    0.016866 0.174439 0.963858 0.147434
H93   H     H_    0.194445 0.618664 0.446147 0.182553
H94   H     H_    0.971086 0.173848 0.036116 0.147188
H95   H     H_    0.619182 0.700819 0.738127 0.153747
H96   H     H_    0.374321 0.699463 0.262506 0.160795
H97   H     H_    0.083134 0.231284 0.737237 0.158706
H98   H     H_    0.819389 0.266085 0.262806 0.157215
H99   H     H_    0.663613 0.703075 0.650228 0.179422
H100  H     H_    0.331827 0.702169 0.350316 0.177390
H101  H     H_    0.130170 0.231225 0.649666 0.190796
H102  H     H_    0.778917 0.266501 0.350402 0.183469
H103  H     H_    0.636956 0.793488 0.745614 0.177388
H104  H     H_    0.305703 0.118191 0.552760 0.187052
H105  H     H_    0.364823 0.793730 0.254540 0.183546
H106  H     H_    0.165687 0.268847 0.746954 0.177657
H107  H     H_    0.913466 0.233230 0.253324 0.180676
H108  H     H_    0.865294 0.759817 0.120639 0.196710
H109  H     H_    0.134936 0.758732 0.879302 0.196775
H110  H     H_    0.365343 0.260274 0.120676 0.197250
H111  H     H_    0.635040 0.257848 0.879282 0.196846
H112  H     H_    0.636643 0.828792 0.455107 0.177525
H113  H     H_    0.363136 0.828812 0.545176 0.177494
H114  H     H_    0.141035 0.330534 0.449776 0.178011
H115  H     H_    0.694449 0.118657 0.446153 0.186378
H116  H     H_    0.858481 0.330659 0.550781 0.176397
H117  H     H_    0.690637 0.886970 0.464864 0.197889
H118  H     H_    0.309399 0.886985 0.534942 0.197678
H119  H     H_    0.188919 0.388146 0.470654 0.195681
H120  H     H_    0.811279 0.388216 0.528726 0.194824
H121  H     H_    0.689073 0.865240 0.424214 0.192845
H122  H     H_    0.310804 0.865272 0.575770 0.192719
H123  H     H_    0.190909 0.367983 0.425988 0.192477
H124  H     H_    0.808905 0.368174 0.573802 0.192242
H125  H     H_    0.653821 0.901685 0.423791 0.217770
H126  H     H_    0.881403 0.676125 0.518562 0.198618
H127  H     H_    0.346045 0.901719 0.576216 0.217748
H128  H     H_    0.155612 0.404450 0.425699 0.217304
H129  H     H_    0.844189 0.404647 0.574111 0.217099
H130  H     H_    0.654696 0.922948 0.465243 0.181673
H131  H     H_    0.345330 0.922963 0.534588 0.181375
H132  H     H_    0.152931 0.424112 0.471104 0.180643
H133  H     H_    0.847260 0.424181 0.528296 0.180211
H134  H     H_    0.601110 0.854951 0.579010 0.222748
H135  H     H_    0.398988 0.854917 0.421059 0.222308
H136  H     H_    0.098619 0.352075 0.578271 0.218547
N1    N     N_R   0.899296 0.750605 0.201283 -0.342895
N2    N     N_R   0.100779 0.750471 0.798712 -0.342893
N3    N     N_R   0.399293 0.250626 0.201299 -0.343017
N4    N     N_R   0.600804 0.250497 0.798691 -0.342977
N5    N     N_R   0.599219 0.745602 0.798595 -0.348973
N6    N     N_R   0.397288 0.744805 0.201389 -0.346635
N7    N     N_R   0.093843 0.250045 0.798701 -0.348377
N8    N     N_R   0.892494 0.249415 0.201333 -0.347660
O1    O     O_R   0.763390 0.701950 0.499990 -0.618750
O2    O     O_2   0.347209 0.760844 0.202109 -0.544658
O3    O     O_2   0.087878 0.301757 0.797701 -0.540855
O4    O     O_2   0.891925 0.301551 0.202179 -0.545632
O5    O     O_2   0.645682 0.720858 0.797545 -0.548756
O6    O     O_2   0.446601 0.728436 0.202010 -0.543651
O7    O     O_2   0.100449 0.198287 0.797774 -0.546909
O8    O     O_2   0.891839 0.197288 0.202257 -0.545218
O9    O     O_R   0.449240 0.969370 0.540240 -0.606191
O10   O     O_R   0.550760 0.969370 0.459760 -0.606308
O11   O     O_R   0.949240 0.469370 0.540240 -0.605483
O12   O     O_R   0.236610 0.701950 0.500010 -0.618857
O13   O     O_R   0.050760 0.469370 0.459760 -0.605194
O14   O     O_R   0.489460 0.969350 0.459800 -0.609043
O15   O     O_R   0.510540 0.969350 0.540200 -0.608822
O16   O     O_R   0.989460 0.469350 0.459800 -0.609398
O17   O     O_R   0.010540 0.469350 0.540200 -0.609848
O18   O     O_R   0.949240 0.530790 0.540220 -0.620622
O19   O     O_R   0.050760 0.530790 0.459780 -0.620693
O20   O     O_R   0.449240 0.030790 0.540220 -0.620164
O21   O     O_R   0.550760 0.030790 0.459780 -0.620708
O22   O     O_R   0.989460 0.530770 0.459780 -0.589451
O23   O     O_R   0.263390 0.201950 0.499990 -0.617201
O24   O     O_R   0.010540 0.530770 0.540220 -0.589440
O25   O     O_R   0.489460 0.030770 0.459780 -0.589569
O26   O     O_R   0.510540 0.030770 0.540220 -0.588972
O27   O     O_R   0.798050 0.736630 0.499990 -0.611463
O28   O     O_R   0.201950 0.736630 0.500010 -0.611888
O29   O     O_R   0.298050 0.236630 0.499990 -0.598712
O30   O     O_R   0.701950 0.236630 0.500010 -0.616897
O31   O     O_R   0.768300 0.732660 0.428750 -0.617648
O32   O     O_R   0.231700 0.732660 0.571250 -0.617508
O33   O     O_R   0.268300 0.232660 0.428750 -0.616637
O34   O     O_R   0.736610 0.201950 0.500010 -0.611485
O35   O     O_R   0.731700 0.232660 0.571250 -0.617707
O36   O     O_R   0.802970 0.767330 0.428750 -0.625418
O37   O     O_R   0.197030 0.767330 0.571250 -0.625472
O38   O     O_R   0.302970 0.267330 0.428750 -0.625724
O39   O     O_R   0.697030 0.267330 0.571250 -0.624144
O40   O     O_R   0.701960 0.763380 0.500000 -0.597500
O41   O     O_R   0.298040 0.763380 0.500000 -0.597371
O42   O     O_R   0.201960 0.263380 0.500000 -0.596266
O43   O     O_R   0.798040 0.263380 0.500000 -0.578782
O44   O     O_R   0.736620 0.798060 0.500000 -0.606626
O45   O     O_2   0.847137 0.757670 0.202110 -0.524451
O46   O     O_R   0.263380 0.798060 0.500000 -0.606342
O47   O     O_R   0.236620 0.298060 0.500000 -0.621857
O48   O     O_R   0.763380 0.298060 0.500000 -0.627769
O49   O     O_R   0.697040 0.732680 0.571240 -0.626664
O50   O     O_R   0.302960 0.732680 0.428760 -0.624277
O51   O     O_R   0.197040 0.232680 0.571240 -0.630564
O52   O     O_R   0.802960 0.232680 0.428760 -0.558578
O53   O     O_R   0.731710 0.767350 0.571240 -0.564985
O54   O     O_R   0.268290 0.767350 0.428760 -0.567392
O55   O     O_R   0.231710 0.267350 0.571240 -0.558647
O56   O     O_2   0.153042 0.756888 0.797845 -0.524158
O57   O     O_R   0.768290 0.267350 0.428760 -0.633149
O58   O     O_2   0.950691 0.744368 0.202177 -0.537610
O59   O     O_2   0.049282 0.744878 0.797859 -0.537826
O60   O     O_2   0.450649 0.244118 0.202204 -0.537942
O61   O     O_2   0.549249 0.245556 0.797832 -0.537693
O62   O     O_2   0.347168 0.257937 0.202135 -0.523423
O63   O     O_2   0.653134 0.256270 0.797841 -0.523586
O64   O     O_2   0.553573 0.770096 0.797728 -0.535392
Zn1   Zn    Zn3+2 0.726860 0.726850 0.499990 1.021940
Zn2   Zn    Zn3+2 0.026790 0.500080 0.446300 1.035002
Zn3   Zn    Zn3+2 0.473210 0.000080 0.553700 1.036540
Zn4   Zn    Zn3+2 0.526790 0.000080 0.446300 1.035172
Zn5   Zn    Zn3+2 0.273140 0.726850 0.500010 1.024431
Zn6   Zn    Zn3+2 0.226860 0.226850 0.499990 1.022947
Zn7   Zn    Zn3+2 0.773140 0.226850 0.500010 1.077735
Zn8   Zn    Zn3+2 0.773150 0.773160 0.500000 1.043685
Zn9   Zn    Zn3+2 0.226850 0.773160 0.500000 1.041905
Zn10  Zn    Zn3+2 0.273150 0.273160 0.500000 1.045796
Zn11  Zn    Zn3+2 0.726850 0.273160 0.500000 0.987574
Zn12  Zn    Zn3+2 0.973210 0.500080 0.553700 1.034247

loop_
_geom_bond_atom_site_label_1
_geom_bond_atom_site_label_2
_ccdc_geom_bond_type
C183  C232  A    
O14   Zn4   S    
C130  H15   S    
C17   C30   A    
C20   C33   A    
C130  C134  S    
C125  C155  S    
C248  C252  S    
C138  C173  A    
C78   C83   A    
C128  H12   S    
C87   C137  A    
C111  C126  S    
C183  H75   S    
C245  C249  S    
C38   C47   A    
O42   Zn6   S    
C247  C251  S    
C226  H67   S    
C116  C133  S    
O49   Zn1   S    
C17   C21   A    
C27   C62   A    
C217  C222  A    
C258  C262  S    
C65   N5    A    
C184  H76   S    
O23   Zn6   S    
C74   H95   S    
C66   O2    S    
C171  O26   A    
C177  C182  A    
C192  C196  A    
C142  H9    S    
C109  H117  S    
C34   C43   A    
C58   C62   A    
C180  H71   S    
C168  C210  A    
C167  O22   A    
C224  C241  S    
O54   Zn9   S    
C113  C157  A    
C255  O41   A    
C248  H42   S    
C263  H61   S    
C129  C133  S    
C43   C48   A    
C136  C153  S    
C40   O54   A    
C190  N3    A    
C156  C161  T    
C114  H120  S    
O34   Zn7   S    
C140  C175  A    
C246  H40   S    
C212  C216  A    
C245  H68   S    
C25   C51   A    
C9    C14   T    
C141  H21   S    
C167  C236  S    
C162  C257  S    
C51   C55   A    
C4    C236  T    
C216  Cl3   S    
C260  Cl6   S    
C169  O19   A    
C55   C73   A    
C24   C243  A    
C32   H79   S    
C47   C69   A    
C225  C242  S    
C157  C175  A    
C235  H54   S    
O9    Zn3   S    
C263  H56   S    
C24   C68   A    
C71   N6    A    
C50   C54   A    
C88   C138  A    
C118  C136  S    
C89   C139  A    
C22   C49   A    
C22   C27   A    
C227  H35   S    
C120  C163  S    
C168  N1    A    
C234  H48   S    
C60   H89   S    
C200  H33   S    
C163  O14   A    
C122  C153  T    
C111  H123  S    
C257  O43   A    
O30   Zn11  S    
C109  H121  S    
C91   C140  A    
C110  H118  S    
C181  C210  A    
C10   C15   T    
C3    H63   S    
C228  C233  S    
C18   C31   A    
C13   C57   A    
C105  C123  S    
C87   C173  A    
C192  H26   S    
O57   Zn11  S    
C97   H105  S    
C158  C162  T    
C13   C232  A    
Br9   C129  S    
C224  C246  S    
C147  H5    S    
C110  C125  S    
C39   O49   A    
C108  H116  S    
C187  O45   S    
C47   C51   A    
C21   C26   A    
C246  H69   S    
C207  O33   A    
Br8   C128  S    
O15   Zn3   S    
C23   C28   A    
C120  C151  T    
C165  O16   A    
O24   Zn12  S    
C29   C64   A    
O10   Zn4   S    
C134  C152  S    
C33   C38   A    
C131  H16   S    
C123  C154  S    
C159  C253  S    
C122  C165  S    
C111  H119  S    
Br12  C105  S    
C126  C148  S    
C116  H127  S    
C195  H29   S    
O13   Zn2   S    
C114  C118  S    
C227  C231  S    
Br11  C131  S    
C161  C256  S    
C77   H98   S    
C39   C83   S    
C139  C174  A    
C215  C219  A    
C185  C232  A    
C196  C201  A    
C123  C145  S    
C163  O9    A    
C70   N5    A    
C58   H87   S    
C218  N1    S    
O52   Zn7   S    
C177  H49   S    
C225  H104  S    
C184  C243  A    
C57   C101  A    
C245  H39   S    
C41   O55   A    
C52   C56   A    
C118  H129  S    
C214  Cl12  S    
C205  O36   A    
Br10  C130  S    
C26   C27   A    
C210  C254  A    
C211  C215  A    
C121  C166  S    
C8    C240  S    
C68   C191  A    
C170  O20   A    
C198  C203  A    
C119  C164  S    
C77   C82   A    
C37   C45   A    
C126  C156  S    
C55   C60   A    
C5    C250  S    
C3    C261  S    
O32   Zn5   S    
C197  H31   S    
C7    C252  S    
O53   Zn8   S    
C72   O7    S    
C79   C124  A    
C145  H134  S    
O38   Zn10  S    
C137  C172  A    
C34   H81   S    
C231  H51   S    
O44   Zn8   S    
C57   C190  A    
C141  C145  S    
C35   C187  A    
C246  C250  S    
C223  C240  S    
C220  N3    S    
C1    O1    A    
C255  O46   A    
C256  O42   A    
C82   H102  S    
C253  O40   A    
C131  C136  S    
C114  C127  S    
C18   C22   A    
C226  H115  S    
C37   H84   S    
C61   H90   S    
C202  C206  S    
C231  H46   S    
C66   N6    A    
C24   C140  A    
C133  C151  S    
C119  C150  T    
C214  C218  A    
C169  O24   A    
C222  N4    S    
C93   Cl9   S    
C167  O18   A    
C114  H124  S    
C95   Cl11  S    
C256  O47   A    
C190  O62   S    
C17   C18   A    
C49   C53   A    
C90   C135  A    
C38   H85   S    
C194  C198  A    
C19   C20   A    
C99   H107  S    
C205  O31   A    
C20   C25   A    
C171  O21   A    
Br3   C107  S    
C178  C183  A    
C112  O28   A    
C133  C142  S    
C59   H88   S    
C247  H70   S    
C181  H73   S    
O19   Zn2   S    
C144  C149  S    
O18   Zn12  S    
C193  C219  A    
C199  O34   A    
C224  H65   S    
C4    C249  S    
C257  O48   A    
C81   C85   A    
O47   Zn10  S    
O50   Zn5   S    
O40   Zn1   S    
C107  C130  S    
C264  H62   S    
C28   C29   A    
C208  O35   A    
C227  C240  S    
C107  C126  S    
C95   C99   A    
C30   H77   S    
C233  H52   S    
C204  C208  S    
C11   C244  S    
C176  C181  A    
C31   H78   S    
C115  H125  S    
C262  H55   S    
C230  H45   S    
C13   C139  A    
C76   C103  A    
C100  N5    S    
C170  C238  S    
C168  O58   S    
C142  C147  S    
O51   Zn6   S    
C110  H122  S    
C7    C239  T    
C240  C262  S    
C230  H24   S    
C248  H72   S    
C5    C237  T    
C185  O60   S    
C207  O38   A    
O43   Zn7   S    
C116  H131  S    
C216  C220  A    
C25   C29   A    
C215  Cl2   S    
C202  C211  A    
C104  N8    S    
C9    C241  S    
O46   Zn9   S    
C67   N7    A    
C98   H106  S    
C231  C249  S    
C75   C80   A    
O55   Zn10  S    
C2    C221  A    
C11   C16   T    
C71   O6    S    
C186  C243  A    
C219  N2    S    
O1    Zn1   S    
C84   C93   A    
C186  O61   S    
C144  H11   S    
C209  H34   S    
C145  H4    S    
O36   Zn8   S    
C106  C129  S    
C203  C212  A    
C176  H1    S    
Br2   C106  S    
O22   Zn2   S    
C135  H18   S    
C36   H83   S    
C262  H59   S    
C180  C184  A    
C149  H3    S    
O41   Zn5   S    
C109  C115  S    
C73   O8    S    
O31   Zn1   S    
C193  H27   S    
C206  O32   A    
C259  Cl5   S    
C194  H28   S    
C82   C86   A    
C30   C34   A    
O35   Zn7   S    
C179  N2    A    
C93   C97   A    
O48   Zn11  S    
C198  H32   S    
C201  C209  A    
C134  C143  S    
C164  O10   A    
C99   C104  A    
C46   C90   A    
C142  H22   S    
C143  C148  S    
C144  H25   S    
C41   O51   A    
C3    H58   S    
O39   Zn11  S    
C118  H133  S    
C108  C131  S    
C14   C112  S    
C137  C254  A    
C146  C174  A    
C87   C176  A    
C206  O37   A    
C141  H8    S    
C129  H14   S    
C2    C46   A    
C125  C147  S    
O20   Zn3   S    
C194  C220  A    
C229  C234  S    
C127  C149  S    
C89   C178  A    
C42   O57   A    
C233  H47   S    
C209  C214  A    
C213  C217  A    
C86   C95   A    
C96   C100  A    
C16   C199  S    
C178  H60   S    
C203  C207  S    
C170  O25   A    
C54   C59   A    
C143  H10   S    
C260  C264  S    
C42   O52   A    
C2    C138  A    
C107  H114  S    
C70   O5    S    
C117  C134  S    
C85   C94   A    
C253  O44   A    
C80   H100  S    
C21   C48   A    
C81   H101  S    
C74   C78   A    
C19   C23   A    
C105  C128  S    
C182  C221  A    
C121  C152  T    
C92   C96   A    
C101  H110  S    
C258  Cl1   S    
C56   H86   S    
C94   Cl10  S    
C35   C79   A    
C189  O56   S    
C128  C132  S    
C65   O64   S    
C225  H66   S    
C223  H82   S    
C155  C160  T    
C179  C221  A    
C72   N7    A    
C264  H57   S    
C204  C213  A    
C28   C63   A    
C62   H91   S    
C92   Cl8   S    
C97   C102  A    
C227  H126  S    
C199  O30   A    
C115  C132  S    
C117  H128  S    
C110  C116  S    
C88   C172  A    
C166  O17   A    
C171  C239  S    
C63   H92   S    
C69   N8    A    
C6    C251  S    
C105  H112  S    
C208  O39   A    
C166  O13   A    
C44   C49   A    
C169  C237  S    
C136  C144  S    
C228  H43   S    
C98   C103  A    
C1    O27   A    
C117  H132  S    
C32   C37   A    
C187  N1    A    
O21   Zn4   S    
C230  C244  S    
C45   C67   A    
C88   C177  A    
C80   C84   A    
C60   C64   A    
C44   C66   A    
C45   C50   A    
C135  C173  A    
C259  C263  S    
C228  C241  S    
O25   Zn4   S    
C78   H99   S    
C76   H97   S    
C40   O50   A    
C223  H64   S    
C160  C255  S    
C43   C65   A    
C67   O3    S    
C53   C71   A    
C68   C113  A    
C127  C158  S    
O17   Zn12  S    
C132  C141  S    
C235  H50   S    
O29   Zn10  S    
C90   H109  S    
C124  H17   S    
C106  H113  S    
C200  C204  A    
C46   C189  A    
C250  C259  S    
C75   C102  A    
C225  C247  S    
C146  H19   S    
O37   Zn9   S    
C101  C146  A    
C234  H53   S    
C106  C125  S    
C31   C36   A    
C235  C252  S    
C77   C104  A    
C154  C159  T    
C111  C117  S    
C211  H36   S    
C124  C172  A    
C149  H7    S    
C91   C174  A    
C113  H111  S    
C233  C250  S    
C147  H135  S    
C48   C52   A    
C3    C244  S    
C148  H136  S    
C212  H37   S    
C143  H23   S    
Br5   C259  S    
O16   Zn2   S    
C19   C32   A    
O27   Zn8   S    
Br6   C260  S    
C79   H108  S    
C261  Cl7   S    
C8    C12   T    
C102  N6    S    
C69   O4    S    
C241  C263  S    
C201  C205  S    
Br1   C258  S    
C41   C85   S    
C56   C61   A    
C109  C123  S    
C1    C12   S    
C226  C244  S    
C188  O23   A    
O11   Zn12  S    
C74   C100  A    
C188  O29   A    
C197  C202  A    
C148  H6    S    
C224  H93   S    
C39   O53   A    
C64   H94   S    
C157  H20   S    
C193  C197  A    
C223  C245  S    
O12   Zn5   S    
C108  C127  S    
C226  C248  S    
C52   C70   A    
C249  C258  S    
C182  H74   S    
C35   C254  A    
C251  C260  S    
C195  C200  A    
C252  C261  S    
C33   H80   S    
C242  C264  S    
O28   Zn9   S    
C179  O59   S    
C73   N8    A    
C83   C92   A    
C229  H13   S    
C94   C98   A    
C191  N4    A    
C36   C44   A    
C76   C81   A    
C103  N7    S    
C132  C150  S    
C189  N2    A    
C196  H30   S    
C213  H38   S    
C42   C86   S    
C15   C188  S    
Br7   C261  S    
C165  O11   A    
C91   C180  A    
C228  H2    S    
C217  Cl4   S    
C191  O63   S    
C230  C235  S    
C89   C175  A    
C59   C63   A    
C115  H130  S    
C6    C238  T    
O26   Zn3   S    
C75   H96   S    
C40   C84   S    
C23   C50   A    
C192  C218  A    
C247  H41   S    
C10   C242  S    
C229  H44   S    
C54   C72   A    
O33   Zn6   S    
C96   H103  S    
C185  N3    A    
C112  O12   A    
C186  N4    A    
Br4   C108  S    
C164  O15   A    
C229  C242  S    
C53   C58   A    
C234  C251  S    
C195  C222  A    
C26   C61   A    
