data_mof_unit_64068.cif
_audit_creation_date              2012-10-26T17:15:24-0400
_audit_creation_method            fapswitch 2.2
_symmetry_space_group_name_H-M    P1
_symmetry_Int_Tables_number       1
_space_group_crystal_system       triclinic
_cell_length_a                    21.963943
_cell_length_b                    21.94532
_cell_length_c                    22.356766
_cell_angle_alpha                 59.993034
_cell_angle_beta                  119.552751
_cell_angle_gamma                 90.529642
_cell_volume                      7703.95429451

loop_
_atom_site_label
_atom_site_type_symbol
_atom_type_description
_atom_site_fract_x
_atom_site_fract_y
_atom_site_fract_z
_atom_type_partial_charge
C1    C     C_R   0.617481 0.500342 0.500362 0.561121
C2    C     C_2   0.816569 0.490322 0.501367 -0.081694
C3    C     C_2   0.689275 0.492736 0.448494 -0.178804
C4    C     C_R   0.419854 0.580361 0.339634 0.552732
C5    C     C_2   0.682113 0.504452 0.498086 -0.113821
C6    C     C_3   0.710920 0.214491 0.028548 -0.127626
C7    C     C_3   0.692739 0.299707 0.972153 -0.104684
C8    C     C_1   0.625203 0.374334 0.750203 -0.014079
C9    C     C_1   0.875236 0.124799 0.249848 0.017171
C10   C     C_3   0.726647 0.205730 0.972260 -0.104584
C11   C     C_3   0.709303 0.290289 0.917406 0.032601
C12   C     C_3   0.291268 0.709841 0.082608 0.032471
C13   C     C_3   0.808024 0.198954 0.027106 0.091315
C14   C     C_3   0.792365 0.207557 0.082592 0.031678
C15   C     C_3   0.790681 0.283611 0.971028 -0.104635
C16   C     C_R   0.383748 0.498733 0.502484 0.554687
C17   C     C_3   0.774789 0.292176 0.027313 -0.125020
C18   C     C_1   0.663106 0.336379 0.825652 -0.038496
C19   C     C_1   0.837787 0.162205 0.174408 0.003388
C20   C     C_2   0.243662 0.437660 0.554780 -0.155917
C21   C     C_2   0.181628 0.495694 0.495845 -0.111864
C22   C     C_2   0.306075 0.435696 0.546320 -0.155936
C23   C     C_3   0.183256 0.741529 0.972641 -0.114409
C24   C     C_2   0.320134 0.498219 0.507557 -0.112455
C25   C     C_R   0.000776 0.881159 0.502599 0.554718
C26   C     C_R   0.080075 0.919765 0.660334 0.554660
C27   C     C_R   0.999281 0.118632 0.497604 0.567238
C28   C     C_R   0.580164 0.419636 0.660371 0.550847
C29   C     C_R   0.919927 0.080096 0.339665 0.555023
C30   C     C_R   0.001515 0.617953 0.499424 0.555360
C31   C     C_R   0.882081 0.498619 0.499862 0.590656
C32   C     C_R   0.996604 0.382148 0.500463 0.580805
C33   C     C_R   0.117409 0.498168 0.499538 0.549569
C34   C     C_3   0.208543 0.792662 0.917397 0.065214
C35   C     C_2   0.060947 0.689238 0.555059 -0.157809
C36   C     C_2   0.003693 0.686003 0.495664 -0.109088
C37   C     C_2   0.062886 0.760114 0.546808 -0.155973
C38   C     C_2   0.000722 0.812123 0.508354 -0.108673
C39   C     C_2   0.932520 0.307918 0.448069 0.021388
C40   C     C_3   0.282325 0.731333 0.972099 -0.115358
C41   C     C_2   0.991695 0.314156 0.503807 -0.125248
C42   C     C_2   0.935393 0.235459 0.459184 -0.148518
C43   C     C_2   0.997753 0.188589 0.490059 -0.127688
C44   C     C_3   0.316896 0.760853 0.027808 -0.117530
C45   C     C_3   0.217619 0.771071 0.028354 -0.117079
C46   C     C_1   0.374935 0.625670 0.249806 -0.019512
C47   C     C_1   0.124817 0.875142 0.750149 0.008606
C48   C     C_3   0.257577 0.679569 0.028440 -0.103305
C49   C     C_2   0.872016 0.143172 0.055748 0.574768
C50   C     C_2   0.861214 0.368574 0.379378 0.598689
C51   C     C_2   0.235601 0.900912 0.943701 0.227230
C52   C     C_2   0.722534 0.558804 0.345596 0.268715
C53   C     C_3   0.242531 0.821857 0.972314 0.048095
C54   C     C_1   0.337188 0.663664 0.174360 -0.049688
C55   C     C_1   0.162525 0.837838 0.825585 0.001576
C56   C     C_2   0.747105 0.512548 0.434309 -0.005115
Cu1   Cu    Cu3+1 0.500050 0.438990 0.500010 0.963758
Cu2   Cu    Cu3+1 0.499950 0.561010 0.499990 0.961796
Cu3   Cu    Cu3+1 0.061010 0.999870 0.499990 0.980770
Cu4   Cu    Cu3+1 0.938990 0.999980 0.500010 0.970804
Cu5   Cu    Cu3+1 0.958560 0.541440 0.417120 1.049375
Cu6   Cu    Cu3+1 0.041440 0.458560 0.582880 0.962792
H1    H     H_    0.372048 0.768745 0.051103 0.115818
H2    H     H_    0.343130 0.382184 0.576519 0.148809
H3    H     H_    0.308534 0.715236 0.948322 0.117234
H4    H     H_    0.288003 0.550851 0.485623 0.110648
H5    H     H_    0.108791 0.640351 0.608005 0.147846
H6    H     H_    0.959599 0.736330 0.438325 0.117535
H7    H     H_    0.116154 0.767761 0.576591 0.147824
H8    H     H_    0.948280 0.801170 0.486737 0.113264
H9    H     H_    0.038458 0.264911 0.558808 0.095116
H10   H     H_    0.884210 0.222111 0.437728 0.168950
H11   H     H_    0.047712 0.204193 0.504370 0.109693
H12   H     H_    0.719105 0.528032 0.528218 0.110038
H13   H     H_    0.191480 0.787335 0.052095 0.114726
H14   H     H_    0.128035 0.733817 0.949311 0.118580
H15   H     H_    0.264280 0.620196 0.052615 0.119241
H16   H     H_    0.827403 0.457319 0.563535 0.092549
H17   H     H_    0.646956 0.478335 0.409974 0.135159
H18   H     H_    0.965518 0.057187 0.152371 0.345123
H19   H     H_    0.786275 0.455663 0.338872 0.330693
H20   H     H_    0.262727 0.913870 0.989639 0.102891
H21   H     H_    0.683242 0.546648 0.302470 0.088172
H22   H     H_    0.644545 0.341878 0.948458 0.123253
H23   H     H_    0.678440 0.185847 0.052872 0.123006
H24   H     H_    0.794804 0.327383 0.050623 0.127794
H25   H     H_    0.823248 0.312096 0.946742 0.127514
H26   H     H_    0.706797 0.170464 0.948985 0.129233
H27   H     H_    0.247388 0.389334 0.607614 0.148640
H28   H     H_    0.174699 0.540297 0.438511 0.110847
O1    O     O_R   0.589060 0.448490 0.499990 -0.499335
O2    O     O_R   0.034920 0.554020 0.569980 -0.508484
O3    O     O_R   0.875990 0.534990 0.430030 -0.427644
O4    O     O_R   0.588980 0.551530 0.499980 -0.504369
O5    O     O_R   0.945970 0.465000 0.570010 -0.520576
O6    O     O_R   0.965080 0.445980 0.430020 -0.469709
O7    O     O_R   0.035060 0.375990 0.570000 -0.513479
O8    O     O_R   0.054030 0.535000 0.429990 -0.513164
O9    O     O_R   0.124010 0.465010 0.569970 -0.509560
O10   O     O_R   0.439580 0.508940 0.379080 -0.504033
O11   O     O_R   0.439510 0.611990 0.379070 -0.501729
O12   O     O_R   0.948460 0.910940 0.500030 -0.508181
O13   O     O_R   0.411020 0.448470 0.500020 -0.502361
O14   O     O_R   0.410940 0.551510 0.500010 -0.507267
O15   O     O_R   0.560490 0.388010 0.620930 -0.501472
O16   O     O_R   0.560420 0.491060 0.620920 -0.504753
O17   O     O_R   0.051510 0.910850 0.500010 -0.502124
O18   O     O_2   0.877315 0.142968 0.003941 -0.508791
O19   O     O_R   0.925176 0.091805 0.141128 -0.694446
O20   O     O_2   0.823012 0.373513 0.313764 -0.516520
O21   O     O_R   0.835792 0.417684 0.390473 -0.683411
O22   O     O_2   0.199778 0.950835 0.869302 -0.490429
O23   O     O_R   0.111980 0.939430 0.620910 -0.504321
O24   O     O_2   0.740079 0.614415 0.318197 -0.471903
O25   O     O_R   0.008930 0.939520 0.620930 -0.501778
O26   O     O_R   0.051540 0.088910 0.499970 -0.502344
O27   O     O_R   0.948490 0.089000 0.499990 -0.501843
O28   O     O_R   0.991070 0.060330 0.379070 -0.491293
O29   O     O_R   0.888020 0.060420 0.379090 -0.509091
O30   O     O_R   0.964940 0.624010 0.430000 -0.500791

loop_
_geom_bond_atom_site_label_1
_geom_bond_atom_site_label_2
_ccdc_geom_bond_type
C43   H11   S    
Cu1   O15   S    
C38   H8    S    
C11   C18   S    
C51   O22   D    
C23   C45   S    
C37   H7    S    
Cu5   O8    S    
C23   H14   S    
C12   C48   S    
C3    H17   S    
Cu5   O6    S    
C39   C41   D    
C4    C46   S    
C7    C11   S    
C29   O29   A    
C10   H26   S    
C6    H23   S    
C1    C5    S    
C49   O19   S    
C35   C37   S    
Cu5   O3    S    
C25   O12   A    
C21   C33   S    
C50   O20   D    
C32   O7    A    
Cu4   O29   S    
C15   C17   S    
C33   O8    A    
C5    H12   S    
C26   O25   A    
C11   C15   S    
C44   C53   S    
C9    C19   T    
H19   O21   S    
C28   O16   A    
Cu3   O26   S    
C7    C17   S    
Cu6   O2    S    
H18   O19   S    
C32   C41   S    
C39   C42   S    
C40   C44   S    
C24   H4    S    
C41   H9    S    
C27   O26   A    
C7    H22   S    
C45   C53   S    
C34   C55   S    
C1    O1    A    
Cu6   O5    S    
Cu5   O30   S    
C14   C17   S    
Cu4   O12   S    
C16   O14   A    
C49   O18   D    
C21   H28   S    
C27   O27   A    
C44   H1    S    
Cu1   O13   S    
C17   H24   S    
C30   O2    A    
C1    O4    A    
C31   O3    A    
Cu1   O10   S    
C8    C18   T    
C2    C31   S    
Cu2   O16   S    
C35   C36   D    
C48   H15   S    
C52   H21   S    
C33   O9    A    
C37   C38   D    
C2    H16   S    
C25   C38   S    
C6    C14   S    
Cu6   O7    S    
C3    C56   S    
C16   O13   A    
C35   H5    S    
C28   O15   A    
Cu3   O23   S    
C23   C34   S    
C4    O11   A    
C46   C54   T    
C42   H10   S    
Cu4   O27   S    
Cu2   O11   S    
C51   H20   S    
C26   C47   S    
C13   C49   S    
C32   O6    A    
C20   C22   S    
Cu3   O28   S    
C40   H3    S    
C4    O10   A    
C8    C28   S    
C34   C40   S    
Cu2   O14   S    
C42   C43   D    
C25   O17   A    
C47   C55   T    
C20   H27   S    
C40   C48   S    
C23   C48   S    
Cu1   O1    S    
C14   C19   S    
C12   C45   S    
C3    C5    D    
C10   C13   S    
C6    C10   S    
C36   H6    S    
C6    C7    S    
C52   O24   D    
C29   O28   A    
C30   C36   S    
C45   H13   S    
C13   C15   S    
Cu2   O4    S    
C26   O23   A    
C12   C44   S    
C2    C56   D    
C9    C29   S    
Cu1   Cu2   S    
C30   O30   A    
C31   O5    A    
C50   O21   S    
C22   C24   D    
Cu5   Cu6   S    
Cu3   O17   S    
C10   C11   S    
C22   H2    S    
Cu6   O9    S    
C27   C43   S    
Cu3   Cu4   S    
C39   C50   S    
C20   C21   D    
C34   C53   S    
C16   C24   S    
C15   H25   S    
Cu4   O25   S    
C51   C53   S    
C13   C14   S    
C12   C54   S    
C52   C56   S    
