data_mof_unit_29447.cif
_audit_creation_date              2012-12-10T17:15:15-0500
_audit_creation_method            fapswitch 2.2
_symmetry_space_group_name_H-M    P1
_symmetry_Int_Tables_number       1
_space_group_crystal_system       triclinic
_cell_length_a                    10.245594
_cell_length_b                    10.318549
_cell_length_c                    12.917503
_cell_angle_alpha                 91.389803
_cell_angle_beta                  91.410413
_cell_angle_gamma                 93.562557
_cell_volume                      1362.12708022

loop_
_atom_site_label
_atom_site_type_symbol
_atom_type_description
_atom_site_fract_x
_atom_site_fract_y
_atom_site_fract_z
_atom_type_partial_charge
C1    C     C_R   0.447560 0.264460 0.492332 0.777011
C2    C     C_R   0.665697 0.454379 0.038199 0.482467
C3    C     C_R   0.331786 0.520109 0.853654 -0.000608
C4    C     C_R   0.651654 0.435791 0.144163 -0.022048
C5    C     C_R   0.563285 0.478578 0.871032 -0.294646
C6    C     C_R   0.424819 0.489820 0.128279 -0.300040
C7    C     C_R   0.553967 0.472923 0.976760 -0.012136
C8    C     C_R   0.431442 0.485061 0.021702 -0.037142
C9    C     C_2   0.426446 0.123786 0.475639 0.342892
C10   C     C_2   0.580323 0.874005 0.484196 0.296888
C11   C     C_2   0.502181 0.067699 0.405166 0.035586
C12   C     C_R   0.553436 0.735522 0.502446 0.827468
C13   C     C_2   0.513190 0.926922 0.406035 0.039357
C14   C     C_3   0.149929 0.365761 0.017913 0.036315
C15   C     C_3   0.080726 0.305997 0.919562 -0.340286
C16   C     C_3   0.017729 0.171160 0.938939 -0.939624
C17   C     C_3   0.857661 0.575873 0.019214 0.035787
C18   C     C_3   0.821010 0.682116 0.944714 -0.374816
C19   C     C_3   0.902251 0.808807 0.968890 -0.964660
C20   C     C_3   0.782132 0.924006 0.563894 0.082224
C21   C     C_3   0.814113 0.873971 0.671657 -0.319432
C22   C     C_3   0.950529 0.822444 0.676525 -0.986259
C23   C     C_2   0.072612 0.480967 0.504181 0.214036
C24   C     C_3   0.315210 0.096254 0.632064 0.044813
C25   C     C_3   0.431456 0.079902 0.706884 -0.321639
C26   C     C_3   0.401367 0.124898 0.816678 -0.986034
C27   C     C_2   0.929978 0.500764 0.486258 0.125696
C28   C     C_R   0.473948 0.505141 0.698644 0.909070
C29   C     C_R   0.523882 0.488038 0.301382 0.921346
C30   C     C_R   0.535341 0.470398 0.190228 -0.149019
C31   C     C_R   0.454904 0.503871 0.809305 -0.175981
C32   C     C_R   0.318501 0.498765 0.959684 0.485403
H1    H     H_    0.332803 0.510198 0.162884 0.220265
H2    H     H_    0.152323 0.297571 0.856995 0.212984
H3    H     H_    0.093024 0.105036 0.964574 0.259521
H4    H     H_    0.969853 0.130373 0.866176 0.260066
H5    H     H_    0.942465 0.176846 0.999075 0.275021
H6    H     H_    0.963070 0.561837 0.011560 0.219491
H7    H     H_    0.845459 0.609814 0.100852 0.133254
H8    H     H_    0.837540 0.649583 0.863723 0.225299
H9    H     H_    0.716133 0.701104 0.952127 0.225463
H10   H     H_    0.887664 0.842188 0.049952 0.265202
H11   H     H_    0.871129 0.885182 0.916252 0.269062
H12   H     H_    0.656804 0.463953 0.836731 0.220112
H13   H     H_    0.007762 0.795096 0.957903 0.270809
H14   H     H_    0.350185 0.865020 0.323430 0.216936
H15   H     H_    0.487576 0.878122 0.254042 0.161172
H16   H     H_    0.639772 0.084129 0.293298 0.175228
H17   H     H_    0.516637 0.182924 0.281493 0.155863
H18   H     H_    0.842926 0.015396 0.552934 0.156951
H19   H     H_    0.811689 0.854576 0.502406 0.124681
H20   H     H_    0.808752 0.954522 0.729818 0.209762
H21   H     H_    0.741267 0.794799 0.691678 0.233149
H22   H     H_    0.951210 0.730708 0.630089 0.268022
H23   H     H_    0.745923 0.274906 0.173145 0.188688
H24   H     H_    0.978323 0.801603 0.757543 0.271479
H25   H     H_    0.024089 0.894878 0.646770 0.262484
H26   H     H_    0.228914 0.039638 0.661679 0.169417
H27   H     H_    0.287492 0.198506 0.631649 0.144848
H28   H     H_    0.453977 0.975917 0.707622 0.248088
H29   H     H_    0.519217 0.137624 0.680921 0.237640
H30   H     H_    0.379309 0.228811 0.817821 0.268241
H31   H     H_    0.487480 0.113321 0.868734 0.272657
H32   H     H_    0.316318 0.066166 0.846183 0.266362
H33   H     H_    0.852199 0.500313 0.342798 0.233559
H34   H     H_    0.841474 0.412095 0.185120 0.182780
H35   H     H_    0.833005 0.640161 0.412711 0.215369
H36   H     H_    0.108906 0.384723 0.636419 0.197846
H37   H     H_    0.049575 0.287943 0.534255 0.166324
H38   H     H_    0.842350 0.479588 0.693674 0.203838
H39   H     H_    0.818865 0.323531 0.653496 0.206562
H40   H     H_    0.075799 0.720303 0.481468 0.175060
H41   H     H_    0.108335 0.678916 0.354175 0.186998
H42   H     H_    0.137606 0.562083 0.834181 0.212866
H43   H     H_    0.244782 0.652955 0.768312 0.197375
H44   H     H_    0.078115 0.366561 0.080952 0.172405
H45   H     H_    0.228430 0.303055 0.044558 0.140074
H46   H     H_    0.003779 0.369530 0.892719 0.252783
N1    N     N_2   0.162330 0.550370 0.457540 -0.059851
N2    N     N_3   0.140750 0.678116 0.431471 -0.357891
N3    N     N_2   0.837670 0.449630 0.542460 -0.082689
N4    N     N_3   0.748770 0.370925 0.201254 -0.440269
N5    N     N_3   0.222427 0.557885 0.791427 -0.444490
N6    N     N_3   0.449627 0.847545 0.324383 -0.468340
N7    N     N_3   0.580536 0.144267 0.335235 -0.447415
N8    N     N_3   0.895764 0.567764 0.395071 -0.509885
N9    N     N_3   0.112137 0.368246 0.556487 -0.405961
N10   N     N_3   0.873213 0.410460 0.640747 -0.446858
O1    O     O_R   0.567930 0.307680 0.508550 -0.579578
O2    O     O_3   0.788056 0.455148 0.994685 -0.677245
O3    O     O_3   0.649204 0.953777 0.557594 -0.674596
O4    O     O_3   0.338593 0.045376 0.531755 -0.652034
O5    O     O_R   0.432070 0.692320 0.491450 -0.558557
O6    O     O_R   0.351090 0.340020 0.481290 -0.598037
O7    O     O_R   0.648910 0.659980 0.518710 -0.641688
O8    O     O_R   0.590490 0.486480 0.665020 -0.634077
O9    O     O_R   0.409510 0.513520 0.334980 -0.611297
O10   O     O_R   0.373660 0.518820 0.637760 -0.585566
O11   O     O_R   0.626340 0.481180 0.362240 -0.603514
O12   O     O_3   0.195975 0.496389 0.002828 -0.692751
Zn1   Zn    Zn3+2 0.644780 0.478400 0.518200 0.927962
Zn2   Zn    Zn3+2 0.355220 0.521600 0.481800 0.980580

loop_
_geom_bond_atom_site_label_1
_geom_bond_atom_site_label_2
_ccdc_geom_bond_type
C2    C7    A    
H42   N5    S    
H38   N10   S    
C22   H25   S    
C7    C8    A    
C22   H22   S    
N3    Zn1   S    
C13   N6    S    
C20   H19   S    
C16   H3    S    
C15   H46   S    
C15   C16   S    
C18   C19   S    
C17   H7    S    
C14   H45   S    
C2    O2    S    
C26   H32   S    
C20   H18   S    
C1    O6    A    
N1    Zn2   S    
C25   H28   S    
C23   C27   S    
C15   H2    S    
O9    Zn2   S    
H37   N9    S    
C19   H10   S    
C16   H5    S    
H33   N8    S    
C23   N9    S    
C21   C22   S    
C24   O4    S    
C9    O4    S    
C19   H11   S    
C20   O3    S    
C29   O11   A    
C8    C32   A    
H17   N7    S    
C27   N3    D    
C1    C9    S    
C24   C25   S    
C18   H9    S    
C5    C7    A    
C22   H24   S    
C25   C26   S    
O10   Zn2   S    
C32   O12   S    
C14   H44   S    
C27   N8    S    
C2    C4    A    
C26   H31   S    
C29   C30   S    
H34   N4    S    
C17   C18   S    
C12   O7    A    
C25   H29   S    
H15   N6    S    
H23   N4    S    
C3    C31   A    
H39   N10   S    
C9    C11   D    
C10   C12   S    
H14   N6    S    
C6    C30   A    
C5    H12   S    
C10   O3    S    
C3    N5    S    
C12   O5    A    
C28   O10   A    
C18   H8    S    
H35   N8    S    
C1    O1    A    
O1    Zn1   S    
C14   C15   S    
C28   C31   S    
C17   O2    S    
C10   C13   D    
O5    Zn2   S    
C6    C8    A    
C19   H13   S    
C14   O12   S    
C6    H1    S    
C29   O9    A    
C28   O8    A    
C26   H30   S    
H40   N2    S    
C16   H4    S    
C21   H21   S    
C11   C13   S    
H43   N5    S    
C11   N7    S    
C24   H27   S    
H41   N2    S    
C17   H6    S    
C3    C32   A    
N3    N10   S    
N1    N2    S    
C4    N4    S    
C20   C21   S    
O6    Zn2   S    
C24   H26   S    
H36   N9    S    
H16   N7    S    
C23   N1    D    
O8    Zn1   S    
O11   Zn1   S    
C21   H20   S    
C4    C30   A    
O7    Zn1   S    
C5    C31   A    
