data_mof_unit_16383.cif
_audit_creation_date              2012-12-10T17:59:34-0500
_audit_creation_method            fapswitch 2.2
_symmetry_space_group_name_H-M    P1
_symmetry_Int_Tables_number       1
_space_group_crystal_system       triclinic
_cell_length_a                    18.3646
_cell_length_b                    18.415401
_cell_length_c                    34.329844
_cell_angle_alpha                 89.92504
_cell_angle_beta                  90.164661
_cell_angle_gamma                 89.763916
_cell_volume                      11609.903898

loop_
_atom_site_label
_atom_site_type_symbol
_atom_type_description
_atom_site_fract_x
_atom_site_fract_y
_atom_site_fract_z
_atom_type_partial_charge
C1    C     C_R   0.024855 0.563247 0.417368 0.365803
C2    C     C_R   0.449906 0.959067 0.081057 0.405783
C3    C     C_R   0.443041 0.965076 0.541477 -0.121746
C4    C     C_R   0.031668 0.561638 0.458409 -0.122616
C5    C     C_R   0.954014 0.452751 0.540325 -0.156732
C6    C     C_R   0.449017 0.957729 0.459295 -0.148279
C7    C     C_R   0.561623 0.030075 0.541736 -0.120381
C8    C     C_R   0.468932 0.941956 0.958865 -0.144018
C9    C     C_R   0.540786 0.054377 0.040638 -0.161518
C10   C     C_R   0.054862 0.539482 0.959338 -0.156731
C11   C     C_R   0.949959 0.459114 0.041351 -0.144302
C12   C     C_R   0.530186 0.060908 0.958628 -0.144170
C13   C     C_R   0.961948 0.445754 0.918799 0.418092
C14   C     C_R   0.458557 0.949649 0.040644 -0.152514
C15   C     C_R   0.954856 0.451583 0.959530 -0.153480
C16   C     C_R   0.063839 0.530578 0.041498 -0.117316
C17   C     C_R   0.195484 0.697296 0.250363 -0.378024
C18   C     C_R   0.804495 0.303232 0.749570 -0.380085
C19   C     C_R   0.303343 0.194967 0.249510 -0.366120
C20   C     C_R   0.697102 0.804059 0.749649 -0.383082
C21   C     C_R   0.805263 0.302004 0.250941 -0.380020
C22   C     C_R   0.195741 0.696488 0.749579 -0.369849
C23   C     C_R   0.695492 0.803953 0.249446 -0.361683
C24   C     C_R   0.064265 0.526676 0.082736 0.382809
C25   C     C_R   0.302520 0.195590 0.749261 -0.384135
C26   C     C_R   0.195607 0.303807 0.749562 -0.371563
C27   C     C_R   0.803482 0.696747 0.249551 -0.369062
C28   C     C_R   0.303167 0.804073 0.749600 -0.389209
C29   C     C_R   0.696569 0.195730 0.250406 -0.371315
C30   C     C_R   0.804092 0.695929 0.749792 -0.360821
C31   C     C_R   0.197588 0.304385 0.249047 -0.375426
C32   C     C_R   0.697166 0.195639 0.749505 -0.394278
C33   C     C_R   0.303837 0.803934 0.249404 -0.367794
C34   C     C_R   0.997198 0.504037 0.478947 -0.103315
C35   C     C_R   0.480238 0.937759 0.918207 0.418605
C36   C     C_R   0.997113 0.503714 0.519869 -0.108469
C37   C     C_R   0.502958 0.996697 0.480083 -0.106023
C38   C     C_R   0.502589 0.997194 0.521152 -0.113308
C39   C     C_R   0.499781 0.001490 0.979209 -0.103580
C40   C     C_R   0.499950 0.001683 0.020105 -0.099311
C41   C     C_R   0.005871 0.494803 0.980020 -0.106970
C42   C     C_R   0.006899 0.494486 0.020984 -0.108950
C43   C     C_3   0.182616 0.926640 0.244659 0.147813
C44   C     C_3   0.159299 0.999143 0.226810 -0.325407
C45   C     C_3   0.123246 0.048257 0.256927 -0.995646
C46   C     C_R   0.550401 0.044758 0.081234 0.421854
C47   C     C_3   0.750726 0.128251 0.829396 0.169860
C48   C     C_3   0.807988 0.162778 0.855872 -0.426024
C49   C     C_3   0.788493 0.154558 0.898744 -0.817622
C50   C     C_3   0.108263 0.231988 0.179089 0.201972
C51   C     C_3   0.120641 0.165105 0.153510 -0.363237
C52   C     C_3   0.048960 0.126539 0.144946 -1.004426
C53   C     C_3   0.788046 0.664007 0.837890 0.136719
C54   C     C_3   0.827009 0.646633 0.876163 -0.380907
C55   C     C_3   0.788930 0.586096 0.898504 -0.896063
C56   C     C_3   0.816502 0.073664 0.245295 0.133493
C57   C     C_R   0.043127 0.549525 0.919033 0.416629
C58   C     C_3   0.831750 0.997793 0.229296 -0.315652
C59   C     C_3   0.867721 0.949390 0.259980 -1.002652
C60   C     C_3   0.248161 0.871305 0.828914 0.173312
C61   C     C_3   0.191346 0.834232 0.854541 -0.430812
C62   C     C_3   0.211044 0.839329 0.897570 -0.812960
C63   C     C_3   0.897247 0.773837 0.183985 0.193893
C64   C     C_3   0.888797 0.841931 0.158856 -0.386903
C65   C     C_3   0.959175 0.885719 0.157741 -0.969867
C66   C     C_3   0.211647 0.333491 0.837493 0.137876
C67   C     C_3   0.172720 0.351324 0.875548 -0.387479
C68   C     C_R   0.944109 0.470594 0.081757 0.437911
C69   C     C_3   0.211922 0.410733 0.898238 -0.884230
C70   C     C_3   0.218482 0.097637 0.809999 0.187109
C71   C     C_3   0.145206 0.107613 0.830340 -0.371837
C72   C     C_3   0.104378 0.035685 0.833209 -0.975069
C73   C     C_3   0.648890 0.805620 0.165351 0.148195
C74   C     C_3   0.656717 0.752871 0.131480 -0.413135
C75   C     C_3   0.583465 0.738595 0.111878 -0.883302
C76   C     C_3   0.071117 0.814475 0.750027 0.144511
C77   C     C_3   0.996018 0.834340 0.765861 -0.334197
C78   C     C_3   0.946118 0.863486 0.733789 -0.992074
C79   C     C_R   0.999860 0.501428 0.397887 -0.265077
C80   C     C_3   0.864708 0.245494 0.167305 0.195862
C81   C     C_3   0.845820 0.178463 0.142824 -0.424185
C82   C     C_3   0.849263 0.194543 0.099304 -0.843795
C83   C     C_3   0.775975 0.897965 0.814964 0.191790
C84   C     C_3   0.845870 0.887928 0.838682 -0.371825
C85   C     C_3   0.888312 0.958888 0.841385 -0.998317
C86   C     C_3   0.337924 0.215707 0.160509 0.135575
C87   C     C_3   0.359292 0.173581 0.123932 -0.391742
C88   C     C_3   0.420744 0.210779 0.101861 -0.868143
C89   C     C_3   0.935384 0.194249 0.754149 0.144285
C90   C     C_R   0.999217 0.501152 0.601363 -0.272772
C91   C     C_3   0.952492 0.113706 0.760477 -0.334060
C92   C     C_3   0.014951 0.088473 0.734490 -0.998655
C93   C     C_3   0.131670 0.746248 0.168523 0.179576
C94   C     C_3   0.168674 0.801658 0.141981 -0.439897
C95   C     C_3   0.165199 0.778764 0.099405 -0.795674
C96   C     C_3   0.686364 0.426650 0.747473 0.148733
C97   C     C_3   0.666667 0.501598 0.731401 -0.328579
C98   C     C_3   0.638483 0.551756 0.763371 -0.990106
C99   C     C_3   0.257061 0.661498 0.336951 0.184897
C100  C     C_3   0.281982 0.606739 0.367822 -0.372743
C101  C     C_R   0.501993 0.998538 0.398471 -0.276858
C102  C     C_3   0.221614 0.553961 0.378638 -0.782741
C103  C     C_3   0.602842 0.726552 0.683497 0.205425
C104  C     C_3   0.612656 0.657806 0.659091 -0.373336
C105  C     C_3   0.540841 0.616945 0.654847 -0.988545
C106  C     C_3   0.261843 0.159335 0.336191 0.137682
C107  C     C_3   0.280486 0.145926 0.379021 -0.373141
C108  C     C_3   0.350823 0.102817 0.383526 -0.756918
C109  C     C_3   0.314008 0.572698 0.748469 0.147512
C110  C     C_3   0.332865 0.497502 0.732643 -0.327910
C111  C     C_3   0.361961 0.447661 0.764682 -0.991483
C112  C     C_R   0.946864 0.461045 0.580950 0.416401
C113  C     C_R   0.500841 0.999799 0.602276 -0.269165
C114  C     C_3   0.761898 0.331361 0.339003 0.189892
C115  C     C_3   0.735764 0.377937 0.373021 -0.350727
C116  C     C_3   0.780665 0.446787 0.377333 -0.731914
C117  C     C_3   0.397960 0.275478 0.684536 0.206925
C118  C     C_3   0.388433 0.344757 0.660411 -0.375331
C119  C     C_3   0.459964 0.386449 0.657474 -0.984691
C120  C     C_3   0.718839 0.830087 0.339801 0.119164
C121  C     C_3   0.675163 0.857515 0.374631 -0.398637
C122  C     C_3   0.719215 0.910159 0.399475 -0.858005
C123  C     C_3   0.704973 0.620135 0.320602 0.176937
C124  C     C_R   0.500253 0.000516 0.898047 -0.269077
C125  C     C_3   0.683888 0.619188 0.363609 -0.335271
C126  C     C_3   0.618986 0.569373 0.370709 -0.991164
C127  C     C_3   0.167694 0.287233 0.660009 0.139005
C128  C     C_3   0.145557 0.330751 0.623926 -0.385414
C129  C     C_3   0.086440 0.292390 0.600493 -0.890453
C130  C     C_3   0.569315 0.307018 0.266399 0.142138
C131  C     C_3   0.566813 0.389381 0.272313 -0.328381
C132  C     C_3   0.502921 0.423518 0.250346 -1.002738
C133  C     C_3   0.370396 0.751505 0.670084 0.180460
C134  C     C_3   0.333826 0.695667 0.643636 -0.438868
C135  C     C_R   0.500202 0.001552 0.101491 -0.277605
C136  C     C_3   0.338413 0.717607 0.600919 -0.799238
C137  C     C_3   0.281846 0.388873 0.316789 0.156140
C138  C     C_3   0.354438 0.365499 0.335303 -0.350015
C139  C     C_3   0.400538 0.431325 0.346065 -0.995961
C140  C     C_3   0.834007 0.712714 0.660861 0.140916
C141  C     C_3   0.854226 0.670478 0.624178 -0.390592
C142  C     C_3   0.914819 0.707760 0.601461 -0.880072
C143  C     C_3   0.424957 0.685009 0.250954 0.150940
C144  C     C_3   0.500425 0.662587 0.265618 -0.333836
C145  C     C_3   0.546790 0.632706 0.232359 -1.002781
C146  C     C_R   0.001133 0.498890 0.898555 -0.272524
C147  C     C_3   0.630571 0.246879 0.669258 0.178548
C148  C     C_3   0.667424 0.302192 0.642621 -0.436576
C149  C     C_3   0.662151 0.280051 0.599959 -0.800938
C150  C     C_3   0.985690 0.666058 0.386456 0.125831
C151  C     C_3   0.006591 0.719155 0.354128 -0.299405
C152  C     C_3   0.942045 0.766424 0.341777 -0.982308
C153  C     C_3   0.824510 0.470958 0.591709 0.117197
C154  C     C_3   0.774522 0.472749 0.627153 -0.257652
C155  C     C_3   0.698383 0.499007 0.616149 -1.014015
C156  C     C_3   0.458153 0.831553 0.401813 0.146252
C157  C     C_R   0.003185 0.499032 0.102084 -0.277962
C158  C     C_3   0.421195 0.774107 0.376770 -0.256010
C159  C     C_3   0.466768 0.704803 0.374570 -0.981555
C160  C     C_3   0.664152 0.996222 0.617684 0.124564
C161  C     C_3   0.705650 0.020688 0.654034 -0.318344
C162  C     C_3   0.755422 0.960713 0.669671 -0.959324
C163  C     C_3   0.021018 0.325875 0.407897 0.127002
C164  C     C_3   0.094576 0.344520 0.389272 -0.383089
C165  C     C_3   0.152826 0.289824 0.401543 -0.925516
C166  C     C_3   0.172703 0.532369 0.591074 0.115176
C167  C     C_3   0.222976 0.528260 0.626542 -0.259837
C168  C     C_R   0.921956 0.394100 0.479153 0.329986
C169  C     C_3   0.298685 0.501269 0.615448 -1.009904
C170  C     C_3   0.554536 0.166129 0.407997 0.117526
C171  C     C_3   0.574930 0.220842 0.376620 -0.222121
C172  C     C_3   0.545205 0.296069 0.386166 -1.006148
C173  C     C_3   0.337535 0.002473 0.615880 0.124300
C174  C     C_3   0.297840 0.980212 0.653118 -0.316240
C175  C     C_3   0.248002 0.040716 0.667836 -0.969813
C176  C     C_3   0.469058 0.176626 0.906161 0.119715
C177  C     C_3   0.396315 0.155797 0.887149 -0.387310
C178  C     C_3   0.335966 0.207671 0.900051 -0.904472
C179  C     C_R   0.074428 0.611517 0.520410 0.325145
C180  C     C_3   0.327277 0.968939 0.090308 0.120494
C181  C     C_3   0.275985 0.972362 0.125165 -0.259460
C182  C     C_3   0.200513 0.998756 0.112981 -1.019071
C183  C     C_3   0.971594 0.323945 0.906630 0.109700
C184  C     C_3   0.974559 0.276810 0.870107 -0.249882
C185  C     C_3   0.001729 0.200484 0.879432 -0.998082
C186  C     C_3   0.166488 0.499577 0.118296 0.130295
C187  C     C_3   0.208766 0.526943 0.153754 -0.324398
C188  C     C_3   0.258821 0.468225 0.170448 -0.964671
C189  C     C_3   0.527975 0.823674 0.907587 0.122161
C190  C     C_R   0.617670 0.063714 0.479718 0.321766
C191  C     C_3   0.601225 0.842258 0.888679 -0.388786
C192  C     C_3   0.659741 0.787770 0.901184 -0.903171
C193  C     C_3   0.674588 0.053103 0.090666 0.174334
C194  C     C_3   0.692064 0.979226 0.109187 -0.366706
C195  C     C_3   0.765804 0.950738 0.095714 -0.970414
C196  C     C_3   0.031985 0.671837 0.909351 0.113557
C197  C     C_3   0.026921 0.721748 0.873865 -0.261464
C198  C     C_3   0.998230 0.796730 0.884788 -1.009159
C199  C     C_3   0.827469 0.512801 0.091037 0.122250
C200  C     C_3   0.842878 0.587122 0.109584 -0.390354
C201  C     C_R   0.386875 0.929920 0.520100 0.347653
C202  C     C_3   0.793768 0.645398 0.091913 -0.932002
C203  C     C_R   0.069887 0.615717 0.479616 0.348753
C204  C     C_R   0.456779 0.950433 0.418632 0.391262
C205  C     C_R   0.918602 0.396482 0.519845 0.330938
C206  C     C_R   0.389756 0.926854 0.479391 0.342608
C207  C     C_R   0.619276 0.062826 0.520479 0.354376
C208  C     C_R   0.429848 0.888355 0.979715 0.328788
C209  C     C_R   0.571271 0.113527 0.020166 0.323780
C210  C     C_R   0.113338 0.572529 0.979218 0.326671
C211  C     C_R   0.898783 0.416458 0.020746 0.331164
C212  C     C_R   0.567553 0.115895 0.979399 0.332645
C213  C     C_R   0.425503 0.891726 0.020401 0.334195
C214  C     C_R   0.899719 0.414685 0.980064 0.330436
C215  C     C_R   0.561691 0.026979 0.582844 0.395094
C216  C     C_R   0.118481 0.567523 0.019963 0.355800
C217  C     C_R   0.500673 0.999774 0.355890 0.903324
C218  C     C_R   0.500231 0.000020 0.644423 0.897239
C219  C     C_R   0.000094 0.499803 0.355691 0.925078
C220  C     C_R   0.999855 0.500196 0.644021 0.906361
C221  C     C_R   0.000027 0.499847 0.855929 0.907298
C222  C     C_R   0.000318 0.499984 0.144324 0.917942
C223  C     C_R   0.500094 0.000092 0.855756 0.950243
C224  C     C_R   0.500002 0.000697 0.144068 0.901594
C225  C     C_R   0.359739 0.139563 0.249992 0.901886
C226  C     C_R   0.975334 0.440698 0.418145 0.399516
C227  C     C_R   0.640388 0.860045 0.749894 0.911513
C228  C     C_R   0.860480 0.359247 0.250409 0.903895
C229  C     C_R   0.139935 0.640141 0.749887 0.896515
C230  C     C_R   0.640181 0.860442 0.250163 0.878520
C231  C     C_R   0.359511 0.139838 0.749735 0.908129
C232  C     C_R   0.139726 0.640625 0.250332 0.885486
C233  C     C_R   0.860072 0.359772 0.749874 0.893135
C234  C     C_R   0.359720 0.860005 0.749904 0.892055
C235  C     C_R   0.640109 0.139997 0.250070 0.896957
C236  C     C_R   0.860067 0.639951 0.749900 0.890346
C237  C     C_R   0.050133 0.543010 0.580986 0.416421
C238  C     C_R   0.140708 0.360316 0.249628 0.911019
C239  C     C_R   0.640428 0.139924 0.749866 0.894017
C240  C     C_R   0.359999 0.859855 0.249791 0.893163
C241  C     C_R   0.139759 0.359913 0.749821 0.885393
C242  C     C_R   0.859727 0.640129 0.249839 0.914882
C243  C     C_R   0.235626 0.817790 0.231904 0.318560
C244  C     C_R   0.763213 0.184359 0.770040 0.350737
C245  C     C_R   0.209507 0.262318 0.215103 0.317194
C246  C     C_R   0.790281 0.735628 0.783964 0.326655
C247  C     C_R   0.763657 0.182470 0.231847 0.326536
C248  C     C_R   0.548940 0.044439 0.418911 0.409666
C249  C     C_R   0.236767 0.815689 0.769496 0.339459
C250  C     C_R   0.792519 0.740556 0.215991 0.339795
C251  C     C_R   0.208776 0.262808 0.783410 0.323749
C252  C     C_R   0.256477 0.204095 0.781937 0.335652
C253  C     C_R   0.733642 0.788649 0.214751 0.355425
C254  C     C_R   0.180837 0.765282 0.765665 0.316871
C255  C     C_R   0.814180 0.238396 0.228320 0.326776
C256  C     C_R   0.741789 0.793873 0.782875 0.335486
C257  C     C_R   0.266821 0.212225 0.214591 0.325704
C258  C     C_R   0.819079 0.234848 0.766565 0.341070
C259  C     C_R   0.441100 0.970930 0.582454 0.397994
C260  C     C_R   0.185365 0.761610 0.228321 0.332570
C261  C     C_R   0.736000 0.317214 0.732503 0.319318
C262  C     C_R   0.259697 0.688211 0.272502 0.319503
C263  C     C_R   0.706947 0.759797 0.716323 0.317025
C264  C     C_R   0.285645 0.230974 0.284088 0.315368
C265  C     C_R   0.264505 0.682140 0.733138 0.317388
C266  C     C_R   0.743276 0.309500 0.274805 0.318376
C267  C     C_R   0.293384 0.241077 0.716282 0.315017
C268  C     C_R   0.710813 0.765340 0.283725 0.316471
C269  C     C_R   0.759452 0.707031 0.282725 0.300194
C270  C     C_R   0.519452 0.063958 0.917835 0.418338
C271  C     C_R   0.235540 0.290302 0.715391 0.330326
C272  C     C_R   0.685554 0.261430 0.270665 0.330237
C273  C     C_R   0.314733 0.738130 0.729360 0.340638
C274  C     C_R   0.239587 0.291086 0.282828 0.330265
C275  C     C_R   0.764552 0.710389 0.715496 0.331282
C276  C     C_R   0.317215 0.736319 0.267219 0.292390
C277  C     C_R   0.685894 0.261176 0.728730 0.340391
C278  C     C_R   0.963609 0.446013 0.458574 -0.137699
C279  C     C_R   0.040870 0.553689 0.540530 -0.157228
C280  C     C_R   0.557361 0.035154 0.459501 -0.157107
Cl1   Cl    Cl    0.867346 0.329104 0.454766 -0.536493
Cl2   Cl    Cl    0.606719 0.190245 0.044951 -0.503265
Cl3   Cl    Cl    0.186564 0.612417 0.953233 -0.488952
Cl4   Cl    Cl    0.835968 0.359481 0.045041 -0.534181
Cl5   Cl    Cl    0.616771 0.185155 0.955317 -0.525430
Cl6   Cl    Cl    0.386556 0.817117 0.045547 -0.497308
Cl7   Cl    Cl    0.824245 0.375049 0.955737 -0.494016
Cl8   Cl    Cl    0.194039 0.610362 0.042285 -0.513552
Cl9   Cl    Cl    0.114483 0.685055 0.545986 -0.491537
Cl10  Cl    Cl    0.696789 0.092896 0.454484 -0.495545
Cl11  Cl    Cl    0.311941 0.886243 0.542574 -0.508597
Cl12  Cl    Cl    0.117726 0.687243 0.456462 -0.496682
Cl13  Cl    Cl    0.878571 0.321863 0.544483 -0.497705
Cl14  Cl    Cl    0.313120 0.891231 0.454151 -0.476305
Cl15  Cl    Cl    0.694193 0.106638 0.543033 -0.510368
Cl16  Cl    Cl    0.379246 0.819916 0.955762 -0.529471
H1    H     H_    0.219740 0.937342 0.269736 0.119348
H2    H     H_    0.861931 0.137223 0.850551 0.258974
H3    H     H_    0.916375 0.203019 0.723521 0.096904
H4    H     H_    0.967792 0.104351 0.791406 0.232301
H5    H     H_    0.903298 0.080963 0.753892 0.244719
H6    H     H_    0.000313 0.095766 0.703311 0.275111
H7    H     H_    0.026258 0.030084 0.739915 0.270432
H8    H     H_    0.065154 0.119725 0.741017 0.260643
H9    H     H_    0.076553 0.734553 0.156775 0.166068
H10   H     H_    0.162311 0.693775 0.167879 0.129779
H11   H     H_    0.142068 0.855573 0.145330 0.258244
H12   H     H_    0.226805 0.805737 0.150500 0.244892
H13   H     H_    0.810751 0.221550 0.849063 0.246760
H14   H     H_    0.193644 0.726036 0.095688 0.323542
H15   H     H_    0.192694 0.820045 0.081062 0.279035
H16   H     H_    0.107724 0.773694 0.089642 0.252362
H17   H     H_    0.725187 0.433504 0.772220 0.120304
H18   H     H_    0.635681 0.400373 0.758290 0.147954
H19   H     H_    0.715545 0.526414 0.717884 0.259769
H20   H     H_    0.623852 0.495759 0.708707 0.220236
H21   H     H_    0.588151 0.529169 0.776444 0.271055
H22   H     H_    0.625783 0.605904 0.750839 0.261307
H23   H     H_    0.680361 0.558593 0.786442 0.252902
H24   H     H_    0.735442 0.181296 0.904431 0.325805
H25   H     H_    0.198707 0.676094 0.341411 0.154177
H26   H     H_    0.289743 0.711579 0.341459 0.111039
H27   H     H_    0.330040 0.576448 0.356847 0.230969
H28   H     H_    0.298998 0.636059 0.394618 0.208584
H29   H     H_    0.180457 0.582067 0.396731 0.309545
H30   H     H_    0.244504 0.508062 0.395803 0.221569
H31   H     H_    0.194785 0.532724 0.352072 0.295888
H32   H     H_    0.558020 0.759133 0.670381 0.175901
H33   H     H_    0.584662 0.711885 0.713508 0.118433
H34   H     H_    0.633157 0.672544 0.629709 0.241270
H35   H     H_    0.830675 0.181043 0.917017 0.279414
H36   H     H_    0.652950 0.621532 0.673383 0.256628
H37   H     H_    0.519239 0.601790 0.683933 0.282096
H38   H     H_    0.549470 0.566653 0.637682 0.273613
H39   H     H_    0.500152 0.651136 0.639324 0.272001
H40   H     H_    0.262387 0.106688 0.320287 0.111750
H41   H     H_    0.205408 0.181944 0.335156 0.113987
H42   H     H_    0.286181 0.198692 0.394344 0.224918
H43   H     H_    0.235507 0.115198 0.392918 0.196080
H44   H     H_    0.345328 0.048584 0.369724 0.253217
H45   H     H_    0.363490 0.095288 0.414925 0.230919
H46   H     H_    0.785348 0.096256 0.906881 0.248100
H47   H     H_    0.396072 0.132772 0.369622 0.285507
H48   H     H_    0.275461 0.566333 0.773273 0.119776
H49   H     H_    0.365036 0.598709 0.759121 0.149829
H50   H     H_    0.283428 0.472729 0.719588 0.260647
H51   H     H_    0.374832 0.502908 0.709583 0.220874
H52   H     H_    0.413053 0.470015 0.777132 0.271481
H53   H     H_    0.373609 0.393181 0.752406 0.260927
H54   H     H_    0.321030 0.441628 0.788186 0.253880
H55   H     H_    0.822364 0.326593 0.339697 0.158808
H56   H     H_    0.739069 0.275977 0.343597 0.103223
H57   H     H_    0.064463 0.265524 0.165608 0.177993
H58   H     H_    0.677608 0.392389 0.368694 0.215762
H59   H     H_    0.740118 0.346017 0.400421 0.238295
H60   H     H_    0.838096 0.432695 0.383559 0.297959
H61   H     H_    0.759423 0.479318 0.402025 0.227518
H62   H     H_    0.778259 0.479474 0.350240 0.278225
H63   H     H_    0.443150 0.243346 0.671643 0.176371
H64   H     H_    0.415497 0.289410 0.714790 0.117358
H65   H     H_    0.369278 0.330589 0.630648 0.240743
H66   H     H_    0.347150 0.380208 0.674301 0.256366
H67   H     H_    0.480157 0.401161 0.686957 0.281440
H68   H     H_    0.087480 0.214953 0.208235 0.118696
H69   H     H_    0.451490 0.437056 0.640448 0.271888
H70   H     H_    0.501680 0.353016 0.642428 0.273206
H71   H     H_    0.735041 0.877962 0.321908 0.112839
H72   H     H_    0.768602 0.801629 0.350598 0.164151
H73   H     H_    0.625620 0.885885 0.363883 0.241123
H74   H     H_    0.658163 0.810727 0.392907 0.214342
H75   H     H_    0.769183 0.883132 0.410769 0.261495
H76   H     H_    0.685792 0.928387 0.424564 0.281639
H77   H     H_    0.734691 0.958544 0.382050 0.281293
H78   H     H_    0.717984 0.564162 0.310787 0.157106
H79   H     H_    0.146165 0.181698 0.125580 0.242845
H80   H     H_    0.656255 0.638380 0.303682 0.132762
H81   H     H_    0.730988 0.600732 0.381425 0.218965
H82   H     H_    0.669287 0.675045 0.373019 0.243645
H83   H     H_    0.570874 0.588451 0.353874 0.271706
H84   H     H_    0.605126 0.569339 0.402164 0.274726
H85   H     H_    0.632081 0.513067 0.361649 0.272560
H86   H     H_    0.118055 0.277406 0.677893 0.104350
H87   H     H_    0.190965 0.234132 0.650557 0.159419
H88   H     H_    0.124533 0.384561 0.633115 0.240560
H89   H     H_    0.194007 0.339251 0.605156 0.221899
H90   H     H_    0.157567 0.126545 0.168692 0.256175
H91   H     H_    0.106151 0.238456 0.590510 0.267803
H92   H     H_    0.071972 0.325710 0.574584 0.271809
H93   H     H_    0.036786 0.285249 0.618485 0.278307
H94   H     H_    0.515623 0.284153 0.274704 0.173130
H95   H     H_    0.577002 0.294103 0.234868 0.100211
H96   H     H_    0.561165 0.401785 0.303795 0.229834
H97   H     H_    0.618333 0.413929 0.261826 0.239035
H98   H     H_    0.510799 0.417792 0.218431 0.272221
H99   H     H_    0.499201 0.482012 0.257723 0.277964
H100  H     H_    0.450925 0.397288 0.258744 0.264772
H101  H     H_    0.022780 0.108922 0.172508 0.278592
H102  H     H_    0.425883 0.762579 0.658866 0.164750
H103  H     H_    0.340067 0.804118 0.668538 0.131909
H104  H     H_    0.360111 0.641731 0.647697 0.260535
H105  H     H_    0.275506 0.692171 0.651642 0.243859
H106  H     H_    0.310566 0.770517 0.596518 0.324045
H107  H     H_    0.310906 0.676218 0.582631 0.277616
H108  H     H_    0.396135 0.721926 0.591646 0.251947
H109  H     H_    0.258153 0.432515 0.334803 0.184380
H110  H     H_    0.291403 0.413100 0.287402 0.125957
H111  H     H_    0.344103 0.333032 0.362027 0.250021
H112  H     H_    0.132940 0.898261 0.255321 0.147922
H113  H     H_    0.059076 0.077984 0.126627 0.278300
H114  H     H_    0.385542 0.331526 0.314401 0.234554
H115  H     H_    0.405191 0.469122 0.320954 0.277391
H116  H     H_    0.455989 0.413605 0.354668 0.277201
H117  H     H_    0.375748 0.460122 0.371136 0.269181
H118  H     H_    0.883996 0.718720 0.679023 0.105396
H119  H     H_    0.813408 0.767478 0.652257 0.158063
H120  H     H_    0.873129 0.615411 0.632641 0.239965
H121  H     H_    0.805406 0.664997 0.605207 0.223177
H122  H     H_    0.897359 0.763055 0.592342 0.269408
H123  H     H_    0.927753 0.675500 0.575035 0.272728
H124  H     H_    0.011558 0.163412 0.128849 0.274565
H125  H     H_    0.964817 0.711695 0.619623 0.278276
H126  H     H_    0.431790 0.723904 0.226310 0.121815
H127  H     H_    0.396503 0.635480 0.240192 0.136922
H128  H     H_    0.528276 0.710292 0.278609 0.262091
H129  H     H_    0.494739 0.620243 0.288499 0.213319
H130  H     H_    0.518800 0.586756 0.217839 0.274766
H131  H     H_    0.599984 0.613188 0.243692 0.259717
H132  H     H_    0.556830 0.675716 0.210431 0.261570
H133  H     H_    0.575094 0.235783 0.657856 0.165272
H134  H     H_    0.660752 0.194158 0.668194 0.132132
H135  H     H_    0.786716 0.613701 0.819927 0.108097
H136  H     H_    0.641590 0.356347 0.646479 0.260063
H137  H     H_    0.725866 0.305402 0.650641 0.243367
H138  H     H_    0.688952 0.226596 0.595682 0.323408
H139  H     H_    0.690194 0.320911 0.581582 0.281097
H140  H     H_    0.604272 0.276731 0.590665 0.249911
H141  H     H_    0.968857 0.697169 0.412737 0.171766
H142  H     H_    0.938478 0.633355 0.376067 0.126043
H143  H     H_    0.051510 0.754562 0.364503 0.247877
H144  H     H_    0.026296 0.688151 0.328420 0.202293
H145  H     H_    0.921523 0.798359 0.366914 0.271188
H146  H     H_    0.731209 0.681447 0.844328 0.148463
H147  H     H_    0.897485 0.732061 0.330189 0.285478
H148  H     H_    0.959267 0.804594 0.318521 0.265297
H149  H     H_    0.796147 0.443244 0.567307 0.187163
H150  H     H_    0.834728 0.528321 0.582650 0.093585
H151  H     H_    0.771092 0.417708 0.639922 0.259613
H152  H     H_    0.797357 0.509396 0.649711 0.252701
H153  H     H_    0.700546 0.555500 0.604873 0.271503
H154  H     H_    0.663111 0.497590 0.642237 0.274459
H155  H     H_    0.674102 0.463148 0.593648 0.272576
H156  H     H_    0.458388 0.812542 0.432644 0.139461
H157  H     H_    0.883537 0.629020 0.869792 0.236510
H158  H     H_    0.515461 0.837715 0.391869 0.129411
H159  H     H_    0.367159 0.761469 0.389474 0.224737
H160  H     H_    0.412998 0.795712 0.346860 0.277944
H161  H     H_    0.520439 0.716423 0.361114 0.283172
H162  H     H_    0.438215 0.664063 0.356359 0.282023
H163  H     H_    0.475277 0.681693 0.404142 0.263306
H164  H     H_    0.703702 0.982317 0.594365 0.187027
H165  H     H_    0.633374 0.946001 0.625127 0.120109
H166  H     H_    0.738916 0.069207 0.646921 0.239952
H167  H     H_    0.666037 0.036023 0.677065 0.201516
H168  H     H_    0.829070 0.696203 0.894574 0.223110
H169  H     H_    0.796592 0.945418 0.647476 0.272911
H170  H     H_    0.723038 0.912117 0.677523 0.280588
H171  H     H_    0.784134 0.980177 0.696172 0.262853
H172  H     H_    0.003804 0.271789 0.397030 0.186645
H173  H     H_    0.027400 0.320084 0.440023 0.161271
H174  H     H_    0.089097 0.344417 0.357019 0.250928
H175  H     H_    0.112635 0.399256 0.398677 0.222683
H176  H     H_    0.158430 0.288745 0.433766 0.255911
H177  H     H_    0.206026 0.305694 0.389040 0.296873
H178  H     H_    0.138352 0.234712 0.391081 0.256781
H179  H     H_    0.732389 0.602606 0.905882 0.266545
H180  H     H_    0.200973 0.561246 0.567069 0.185933
H181  H     H_    0.161966 0.475525 0.581269 0.094614
H182  H     H_    0.227256 0.582633 0.639940 0.258607
H183  H     H_    0.199810 0.491012 0.648680 0.254254
H184  H     H_    0.295711 0.445080 0.603867 0.270130
H185  H     H_    0.334135 0.501546 0.641609 0.274441
H186  H     H_    0.323296 0.537323 0.593174 0.271956
H187  H     H_    0.575741 0.185446 0.436510 0.177024
H188  H     H_    0.493955 0.163943 0.409656 0.106141
H189  H     H_    0.635123 0.223476 0.374194 0.239119
H190  H     H_    0.819144 0.574684 0.925929 0.272216
H191  H     H_    0.552129 0.202892 0.348231 0.271514
H192  H     H_    0.484915 0.294536 0.388531 0.272525
H193  H     H_    0.560182 0.334228 0.362602 0.276856
H194  H     H_    0.568781 0.316046 0.413971 0.270670
H195  H     H_    0.296892 0.013653 0.592545 0.187434
H196  H     H_    0.367534 0.053889 0.621807 0.117876
H197  H     H_    0.264899 0.930824 0.647401 0.236577
H198  H     H_    0.338545 0.967037 0.676129 0.202705
H199  H     H_    0.205774 0.053914 0.645679 0.272165
H200  H     H_    0.280121 0.090204 0.674318 0.283379
H201  H     H_    0.787644 0.535625 0.880823 0.278230
H202  H     H_    0.220611 0.022869 0.694996 0.261641
H203  H     H_    0.484721 0.231173 0.895248 0.189520
H204  H     H_    0.461818 0.182554 0.938187 0.161024
H205  H     H_    0.401687 0.157729 0.854924 0.252524
H206  H     H_    0.380717 0.099872 0.895806 0.224499
H207  H     H_    0.329299 0.205344 0.932179 0.254235
H208  H     H_    0.283504 0.192031 0.886454 0.301244
H209  H     H_    0.349335 0.264165 0.891416 0.254294
H210  H     H_    0.299871 0.940178 0.065930 0.185958
H211  H     H_    0.337819 0.026036 0.080779 0.094824
H212  H     H_    0.782165 0.068391 0.271898 0.119115
H213  H     H_    0.271650 0.917850 0.138489 0.259827
H214  H     H_    0.298221 0.009802 0.147529 0.252262
H215  H     H_    0.203620 0.054667 0.100947 0.272305
H216  H     H_    0.164231 0.999028 0.138666 0.273664
H217  H     H_    0.176739 0.962014 0.090739 0.273224
H218  H     H_    0.943333 0.293633 0.930099 0.190667
H219  H     H_    0.028746 0.333707 0.916506 0.093507
H220  H     H_    0.919639 0.273799 0.856949 0.260279
H221  H     H_    0.011348 0.301510 0.848250 0.260715
H222  H     H_    0.058120 0.202582 0.891101 0.268236
H223  H     H_    0.207724 0.027117 0.214644 0.253506
H224  H     H_    0.869347 0.099357 0.253246 0.155012
H225  H     H_    0.001167 0.167640 0.852433 0.278511
H226  H     H_    0.965864 0.173947 0.901139 0.268601
H227  H     H_    0.205490 0.484509 0.094905 0.184357
H228  H     H_    0.136355 0.449698 0.127055 0.119095
H229  H     H_    0.241876 0.574814 0.145295 0.239230
H230  H     H_    0.169663 0.544123 0.176658 0.202863
H231  H     H_    0.299182 0.450763 0.148283 0.271626
H232  H     H_    0.226521 0.420542 0.179884 0.279267
H233  H     H_    0.288466 0.489965 0.196123 0.260877
H234  H     H_    0.510921 0.769310 0.897046 0.191221
H235  H     H_    0.779805 0.972580 0.219815 0.260775
H236  H     H_    0.535005 0.818353 0.939690 0.160229
H237  H     H_    0.595417 0.841445 0.856447 0.253849
H238  H     H_    0.618894 0.897356 0.897702 0.221224
H239  H     H_    0.665801 0.787700 0.933388 0.253806
H240  H     H_    0.712928 0.802758 0.888366 0.297492
H241  H     H_    0.645011 0.732321 0.891334 0.255751
H242  H     H_    0.715770 0.092705 0.100864 0.182065
H243  H     H_    0.680961 0.049809 0.058489 0.140073
H244  H     H_    0.693077 0.984418 0.141423 0.274819
H245  H     H_    0.649755 0.939223 0.100773 0.209102
H246  H     H_    0.868073 0.002037 0.203556 0.223524
H247  H     H_    0.767898 0.948071 0.063414 0.265608
H248  H     H_    0.773952 0.895155 0.107330 0.283202
H249  H     H_    0.810188 0.986275 0.106565 0.268842
H250  H     H_    0.061392 0.700265 0.933169 0.184731
H251  H     H_    0.975278 0.660909 0.919509 0.094561
H252  H     H_    0.081388 0.727002 0.860597 0.256633
H253  H     H_    0.990225 0.697862 0.851621 0.256311
H254  H     H_    0.941602 0.792733 0.895818 0.270167
H255  H     H_    0.998750 0.832015 0.858622 0.275346
H256  H     H_    0.033193 0.821926 0.907431 0.271018
H257  H     H_    0.921826 0.971400 0.268237 0.270446
H258  H     H_    0.773388 0.494125 0.101326 0.187057
H259  H     H_    0.822395 0.518426 0.058843 0.162348
H260  H     H_    0.833810 0.584013 0.141544 0.243338
H261  H     H_    0.899985 0.603827 0.104414 0.230646
H262  H     H_    0.806252 0.652492 0.060496 0.259775
H263  H     H_    0.803443 0.697853 0.106863 0.294806
H264  H     H_    0.735749 0.629834 0.094967 0.265569
H265  H     H_    0.875215 0.893940 0.248120 0.261929
H266  H     H_    0.832952 0.945690 0.286308 0.258862
H267  H     H_    0.258362 0.926583 0.840468 0.158596
H268  H     H_    0.301058 0.841436 0.831038 0.144349
H269  H     H_    0.137088 0.859572 0.849631 0.260244
H270  H     H_    0.189201 0.775974 0.846557 0.244529
H271  H     H_    0.119899 0.988982 0.202834 0.221978
H272  H     H_    0.264047 0.812009 0.902790 0.325193
H273  H     H_    0.168964 0.811578 0.915255 0.276360
H274  H     H_    0.214339 0.896993 0.906844 0.252229
H275  H     H_    0.942462 0.740869 0.171709 0.179616
H276  H     H_    0.914380 0.788941 0.214131 0.118476
H277  H     H_    0.874116 0.825613 0.128713 0.231998
H278  H     H_    0.844929 0.876860 0.170778 0.261611
H279  H     H_    0.976091 0.901419 0.187658 0.280512
H280  H     H_    0.950475 0.935889 0.140328 0.267316
H281  H     H_    0.003270 0.853397 0.143992 0.272798
H282  H     H_    0.073508 0.022132 0.268690 0.269139
H283  H     H_    0.213539 0.383842 0.819511 0.108507
H284  H     H_    0.268317 0.315631 0.844136 0.145419
H285  H     H_    0.116773 0.370413 0.868778 0.236334
H286  H     H_    0.169265 0.301631 0.893858 0.225101
H287  H     H_    0.267989 0.392877 0.905947 0.266394
H288  H     H_    0.181661 0.422520 0.925492 0.274701
H289  H     H_    0.214559 0.461353 0.880662 0.278644
H290  H     H_    0.247797 0.051810 0.824140 0.178734
H291  H     H_    0.209468 0.081420 0.778992 0.120382
H292  H     H_    0.154335 0.129222 0.860148 0.243330
H293  H     H_    0.107516 0.100484 0.243080 0.264085
H294  H     H_    0.111495 0.147038 0.813621 0.247219
H295  H     H_    0.096643 0.011597 0.803854 0.284428
H296  H     H_    0.050127 0.044708 0.846530 0.267939
H297  H     H_    0.135202 0.996915 0.851823 0.271491
H298  H     H_    0.622183 0.856029 0.154640 0.164614
H299  H     H_    0.611480 0.781697 0.187316 0.086345
H300  H     H_    0.694815 0.775761 0.109628 0.241533
H301  H     H_    0.679103 0.700888 0.142842 0.240918
H302  H     H_    0.544547 0.715026 0.133092 0.264960
H303  H     H_    0.591017 0.699568 0.087584 0.277743
H304  H     H_    0.161532 0.059708 0.281193 0.252364
H305  H     H_    0.560415 0.789889 0.099896 0.276290
H306  H     H_    0.064227 0.775675 0.725389 0.121103
H307  H     H_    0.097639 0.864951 0.739172 0.146749
H308  H     H_    0.970725 0.785446 0.779048 0.259896
H309  H     H_    0.002073 0.876348 0.788844 0.222947
H310  H     H_    0.969292 0.913513 0.720802 0.274357
H311  H     H_    0.891908 0.876581 0.746134 0.261753
H312  H     H_    0.938951 0.822168 0.710620 0.255199
H313  H     H_    0.916398 0.268819 0.156241 0.172154
H314  H     H_    0.822308 0.288581 0.163277 0.131507
H315  H     H_    0.738636 0.072857 0.840322 0.161299
H316  H     H_    0.884060 0.133400 0.149890 0.246484
H317  H     H_    0.789665 0.160646 0.149559 0.262513
H318  H     H_    0.805895 0.233994 0.091308 0.328282
H319  H     H_    0.840251 0.143705 0.082648 0.254000
H320  H     H_    0.903285 0.216797 0.091238 0.271786
H321  H     H_    0.743961 0.942601 0.828409 0.175256
H322  H     H_    0.789263 0.916221 0.784778 0.119766
H323  H     H_    0.832196 0.869039 0.868521 0.234388
H324  H     H_    0.880691 0.846429 0.824572 0.257188
H325  H     H_    0.902633 0.978722 0.811823 0.277859
H326  H     H_    0.698656 0.159562 0.831272 0.142270
H327  H     H_    0.939304 0.950129 0.858176 0.273481
H328  H     H_    0.855421 0.000768 0.856581 0.274529
H329  H     H_    0.387273 0.222275 0.179170 0.104846
H330  H     H_    0.317091 0.270278 0.151730 0.158953
H331  H     H_    0.377518 0.118235 0.132364 0.240480
H332  H     H_    0.311091 0.168465 0.104476 0.221478
H333  H     H_    0.403946 0.266353 0.092882 0.266354
H334  H     H_    0.434076 0.178878 0.075371 0.275167
H335  H     H_    0.470293 0.214005 0.120411 0.281423
H336  H     H_    0.986549 0.225661 0.757595 0.173074
O1    O     O_3   0.500000 0.000000 0.250000 -0.512872
O2    O     O_R   0.500000 0.939270 0.662450 -0.645294
O3    O     O_3   0.879733 0.459396 0.102009 -0.609998
O4    O     O_R   0.939270 0.500000 0.337550 -0.651231
O5    O     O_R   0.060730 0.500000 0.662450 -0.641112
O6    O     O_R   1.000000 0.439270 0.837550 -0.639868
O7    O     O_R   1.000000 0.560730 0.162450 -0.648736
O8    O     O_R   0.560730 0.000000 0.837550 -0.654860
O9    O     O_R   0.439270 0.000000 0.162450 -0.637091
O10   O     O_R   1.000000 0.560730 0.837550 -0.639461
O11   O     O_R   0.000000 0.439270 0.162450 -0.645991
O12   O     O_R   0.439270 0.000000 0.837550 -0.651316
O13   O     O_3   0.500000 0.000000 0.750000 -0.504071
O14   O     O_R   0.560730 0.000000 0.162450 -0.643584
O15   O     O_R   0.414490 0.146150 0.273020 -0.630796
O16   O     O_R   0.585510 0.853850 0.726980 -0.640868
O17   O     O_R   0.853850 0.414490 0.273020 -0.608845
O18   O     O_R   0.146150 0.585510 0.726980 -0.614735
O19   O     O_R   0.585510 0.853850 0.273020 -0.613118
O20   O     O_R   0.414490 0.146150 0.726980 -0.640375
O21   O     O_R   0.146150 0.585510 0.273020 -0.606982
O22   O     O_R   0.853850 0.414490 0.726980 -0.612582
O23   O     O_R   0.414490 0.853850 0.726980 -0.635042
O24   O     O_3   1.000000 0.500000 0.250000 -0.508589
O25   O     O_R   0.585510 0.146150 0.273020 -0.634349
O26   O     O_R   0.853850 0.585510 0.726980 -0.631455
O27   O     O_R   0.146150 0.414490 0.273020 -0.632659
O28   O     O_R   0.585510 0.146150 0.726980 -0.634043
O29   O     O_R   0.414490 0.853850 0.273020 -0.620132
O30   O     O_R   0.146150 0.414490 0.726980 -0.628595
O31   O     O_R   0.853850 0.585510 0.273020 -0.617370
O32   O     O_R   0.914490 0.646150 0.773020 -0.630387
O33   O     O_R   0.085510 0.353850 0.226980 -0.646891
O34   O     O_R   0.353850 0.914490 0.773020 -0.630063
O35   O     O_3   1.000000 0.500000 0.750000 -0.511901
O36   O     O_R   0.646150 0.085510 0.226980 -0.600171
O37   O     O_R   0.085510 0.353850 0.773020 -0.634111
O38   O     O_R   0.914490 0.646150 0.226980 -0.648984
O39   O     O_R   0.646150 0.085510 0.773020 -0.630736
O40   O     O_R   0.353850 0.914490 0.226980 -0.612292
O41   O     O_R   0.914490 0.353850 0.226980 -0.624447
O42   O     O_R   0.085510 0.646150 0.773020 -0.613158
O43   O     O_R   0.353850 0.085510 0.226980 -0.629462
O44   O     O_R   0.646150 0.914490 0.773020 -0.642470
O45   O     O_R   0.085510 0.646150 0.226980 -0.638522
O46   O     O_R   0.500000 0.939270 0.337550 -0.640392
O47   O     O_R   0.914490 0.353850 0.773020 -0.626174
O48   O     O_R   0.646150 0.914490 0.226980 -0.651188
O49   O     O_R   0.353850 0.085510 0.773020 -0.638520
O50   O     O_3   0.218814 0.884955 0.216072 -0.609417
O51   O     O_3   0.776845 0.121024 0.790724 -0.617234
O52   O     O_3   0.171611 0.275753 0.180842 -0.631043
O53   O     O_3   0.826176 0.719744 0.818465 -0.612768
O54   O     O_3   0.780149 0.114995 0.216474 -0.608484
O55   O     O_3   0.222913 0.879027 0.790005 -0.612804
O56   O     O_3   0.833350 0.730731 0.182475 -0.621337
O57   O     O_R   0.500000 0.060730 0.662450 -0.644992
O58   O     O_3   0.173216 0.277963 0.817973 -0.603706
O59   O     O_3   0.262747 0.160063 0.814476 -0.623281
O60   O     O_3   0.718585 0.824592 0.180030 -0.620507
O61   O     O_3   0.112723 0.782452 0.780191 -0.609606
O62   O     O_3   0.876725 0.225986 0.206802 -0.615148
O63   O     O_3   0.732294 0.834652 0.816368 -0.626994
O64   O     O_3   0.283476 0.176513 0.180318 -0.615603
O65   O     O_3   0.886139 0.218642 0.783061 -0.618629
O66   O     O_3   0.122683 0.774152 0.206713 -0.609784
O67   O     O_3   0.718363 0.384863 0.717527 -0.609248
O68   O     O_R   0.060730 0.500000 0.337550 -0.654413
O69   O     O_3   0.267456 0.632218 0.299156 -0.582574
O70   O     O_3   0.666378 0.770162 0.682620 -0.625799
O71   O     O_3   0.312940 0.207553 0.319566 -0.589752
O72   O     O_3   0.281948 0.614412 0.718381 -0.609878
O73   O     O_3   0.738767 0.362529 0.303230 -0.590108
O74   O     O_3   0.334539 0.231796 0.682835 -0.626803
O75   O     O_3   0.675167 0.781778 0.318084 -0.611262
O76   O     O_3   0.767696 0.663896 0.315552 -0.623605
O77   O     O_3   0.220016 0.327143 0.681197 -0.612800
O78   O     O_3   0.622285 0.275193 0.291242 -0.616451
O79   O     O_R   0.939270 0.500000 0.662450 -0.638561
O80   O     O_3   0.378039 0.724625 0.708655 -0.608125
O81   O     O_3   0.230533 0.331583 0.316322 -0.623500
O82   O     O_3   0.779857 0.674002 0.681227 -0.614069
O83   O     O_3   0.385294 0.717677 0.281548 -0.605804
O84   O     O_3   0.622759 0.274439 0.707618 -0.607804
O85   O     O_3   0.046920 0.622302 0.395476 -0.614576
O86   O     O_3   0.888826 0.431658 0.601131 -0.580500
O87   O     O_3   0.419494 0.897803 0.398058 -0.587694
O88   O     O_3   0.618757 0.054041 0.604905 -0.604317
O89   O     O_3   0.965701 0.376514 0.397617 -0.629073
O90   O     O_R   0.500000 0.060730 0.337550 -0.636056
O91   O     O_3   0.108832 0.571733 0.601005 -0.581116
O92   O     O_3   0.585715 0.097910 0.398670 -0.587570
O93   O     O_3   0.383452 0.944454 0.604153 -0.602502
O94   O     O_3   0.526146 0.127629 0.896452 -0.614462
O95   O     O_3   0.391233 0.929995 0.100829 -0.581134
O96   O     O_3   0.931897 0.388446 0.898302 -0.580368
O97   O     O_3   0.120082 0.555939 0.104818 -0.604697
O98   O     O_3   0.472219 0.873856 0.897229 -0.614314
O99   O     O_3   0.605046 0.079629 0.102024 -0.586621
O100  O     O_3   0.071574 0.608347 0.899193 -0.580428
Zn1   Zn    Zn3+2 0.413190 0.000000 0.217350 0.961199
Zn2   Zn    Zn3+2 0.086810 0.500000 0.282650 0.958606
Zn3   Zn    Zn3+2 0.500000 0.913190 0.717350 0.951977
Zn4   Zn    Zn3+2 0.500000 0.086810 0.282650 0.956635
Zn5   Zn    Zn3+2 0.086810 0.500000 0.717350 0.957951
Zn6   Zn    Zn3+2 0.913190 0.500000 0.282650 0.974402
Zn7   Zn    Zn3+2 0.500000 0.086810 0.717350 0.952582
Zn8   Zn    Zn3+2 0.500000 0.913190 0.282650 0.967250
Zn9   Zn    Zn3+2 0.586810 0.000000 0.782650 0.956720
Zn10  Zn    Zn3+2 1.000000 0.413190 0.217350 0.961633
Zn11  Zn    Zn3+2 1.000000 0.586810 0.782650 0.960423
Zn12  Zn    Zn3+2 0.586810 0.000000 0.217350 0.957824
Zn13  Zn    Zn3+2 0.413190 0.000000 0.782650 0.959039
Zn14  Zn    Zn3+2 0.000000 0.586810 0.217350 0.947127
Zn15  Zn    Zn3+2 1.000000 0.413190 0.782650 0.952223
Zn16  Zn    Zn3+2 0.913190 0.500000 0.717350 0.958548

loop_
_geom_bond_atom_site_label_1
_geom_bond_atom_site_label_2
_ccdc_geom_bond_type
C143  O83   S    
C35   O98   S    
C167  H182  S    
C122  H75   S    
C131  H97   S    
C80   H313  S    
C29   C247  A    
C195  H249  S    
C66   H284  S    
C23   C253  A    
C114  C115  S    
C168  C278  A    
C238  O33   A    
C200  H261  S    
C180  C181  S    
O47   Zn15  S    
C218  O2    A    
C118  H65   S    
C143  H127  S    
C217  O90   A    
C20   C227  S    
C181  H213  S    
C52   H124  S    
C98   H21   S    
C13   O96   S    
C35   C124  A    
C227  O16   A    
C54   H168  S    
C62   H273  S    
C137  H110  S    
C109  H49   S    
C106  C107  S    
C143  C144  S    
C5    C36   A    
C166  H180  S    
C84   H323  S    
C226  C278  A    
C69   H287  S    
C154  H152  S    
C110  C111  S    
C254  O61   S    
C117  O74   S    
C49   H46   S    
C156  H158  S    
C222  O11   A    
C30   C275  A    
C201  C206  A    
C147  H133  S    
C151  H143  S    
C80   O62   S    
C132  H100  S    
C1    O85   S    
O42   Zn11  S    
C109  H48   S    
C93   O66   S    
C250  C253  A    
C64   H277  S    
C43   H1    S    
C258  O65   S    
C105  H38   S    
C201  Cl11  S    
C94   H12   S    
C92   H8    S    
C10   C41   A    
C121  H73   S    
C153  O86   S    
C163  H173  S    
C96   O67   S    
C106  O71   S    
C48   H2    S    
C262  O69   S    
C229  O42   A    
C25   C267  A    
C158  H159  S    
O26   Zn16  S    
C247  O54   S    
C235  O25   A    
C26   C241  S    
O90   Zn4   S    
C111  H52   S    
C192  H239  S    
C134  H104  S    
C51   C52   S    
C275  O82   S    
C244  C258  A    
C140  C141  S    
C126  H84   S    
C99   O69   S    
C146  C221  S    
O37   Zn15  S    
C70   O59   S    
C77   C78   S    
C178  H207  S    
C264  C274  A    
C173  H195  S    
C246  O53   S    
C203  Cl12  S    
C67   H285  S    
C8    C35   A    
C186  H227  S    
C175  H202  S    
C43   C44   S    
C171  H189  S    
C36   C279  A    
C141  H121  S    
C37   C38   A    
C198  H256  S    
O57   Zn7   S    
O4    Zn6   S    
C235  O36   A    
C152  H148  S    
C44   H223  S    
C82   H318  S    
C150  H142  S    
O13   Zn13  S    
C76   C77   S    
C17   C260  A    
C182  H217  S    
C12   C212  A    
C154  C155  S    
C54   H157  S    
C190  C280  A    
C242  O31   A    
C243  O50   S    
O9    Zn1   S    
C33   C276  A    
C174  H198  S    
C158  C159  S    
C1    C79   A    
C185  H222  S    
C169  H184  S    
C162  H171  S    
C47   H326  S    
C27   C242  S    
C91   C92   S    
C89   H3    S    
C193  O99   S    
C147  O84   S    
C30   C246  A    
C59   H257  S    
C89   O65   S    
C117  H63   S    
C177  H205  S    
C144  C145  S    
C252  O59   S    
C19   C257  A    
C212  Cl5   S    
C195  H248  S    
C57   O100  S    
C116  H61   S    
C225  O43   A    
C127  H86   S    
C183  H219  S    
C176  H204  S    
C129  H92   S    
C156  C158  S    
C130  C131  S    
O79   Zn16  S    
C99   H26   S    
C28   C273  A    
C91   H4    S    
C253  O60   S    
C3    C259  A    
O34   Zn13  S    
O13   Zn3   S    
C51   H90   S    
C243  C260  A    
C216  Cl8   S    
C2    C14   A    
O13   Zn9   S    
C133  H103  S    
C75   H305  S    
C37   C280  A    
C221  O10   A    
C83   H321  S    
C202  H263  S    
C200  C202  S    
C193  C194  S    
C100  H27   S    
C70   H291  S    
O1    Zn1   S    
C159  H162  S    
C45   H293  S    
C207  Cl15  S    
C88   H333  S    
C130  O78   S    
C101  C248  A    
C208  Cl16  S    
C32   C277  A    
C28   C234  S    
O68   Zn2   S    
C229  O18   A    
C191  H238  S    
C208  C213  A    
C155  H153  S    
C141  H120  S    
C61   H269  S    
C147  C148  S    
C62   H274  S    
C128  C129  S    
C97   C98   S    
C182  H215  S    
C167  C169  S    
O25   Zn4   S    
C231  O20   A    
C255  O62   S    
C167  H183  S    
O17   Zn6   S    
O1    Zn8   S    
O49   Zn13  S    
C165  H178  S    
C86   H329  S    
C250  O56   S    
C210  Cl3   S    
C237  C279  A    
C202  H262  S    
C72   H295  S    
C198  H254  S    
C188  H231  S    
O23   Zn3   S    
C71   H292  S    
C166  O91   S    
C169  H185  S    
C161  H166  S    
C196  H251  S    
C228  O17   A    
C109  O72   S    
C115  C116  S    
C130  H95   S    
C184  C185  S    
C115  H58   S    
C58   H246  S    
C17   C262  A    
C231  O49   A    
C134  H105  S    
C174  C175  S    
C29   C235  S    
C50   H57   S    
C55   H201  S    
C241  O37   A    
C19   C264  A    
C28   C249  A    
C73   O60   S    
C10   C210  A    
C99   C100  S    
C78   H312  S    
C68   C157  A    
C142  H122  S    
C219  O68   A    
C103  H33   S    
C162  H169  S    
C172  H194  S    
C89   C91   S    
C90   C220  S    
C66   C67   S    
C2    O95   S    
C32   C244  A    
C60   H267  S    
C86   O64   S    
C166  C167  S    
C178  H209  S    
C139  H116  S    
C56   H212  S    
C119  H67   S    
C125  H82   S    
C17   C232  S    
C218  O57   A    
C120  O75   S    
C206  Cl14  S    
C45   H304  S    
C187  H229  S    
C7    C207  A    
C39   C40   A    
C24   C157  A    
C4    C203  A    
C153  H149  S    
C232  O45   A    
C236  O32   A    
C182  H216  S    
C59   H266  S    
O41   Zn10  S    
C56   O54   S    
C173  O93   S    
C145  H131  S    
C119  H70   S    
C148  H137  S    
C83   C84   S    
C267  O74   S    
C151  C152  S    
C172  H192  S    
C83   O63   S    
C103  O70   S    
C102  H31   S    
C88   H335  S    
C95   H15   S    
C87   H332  S    
C21   C266  A    
C144  H128  S    
C251  O58   S    
C265  C273  A    
C56   H224  S    
C31   C238  S    
C179  C203  A    
C177  C178  S    
C263  C275  A    
C140  H119  S    
C180  H211  S    
C266  O73   S    
C120  H71   S    
C62   H272  S    
C73   C74   S    
C96   H18   S    
C113  C218  S    
C149  H139  S    
C11   C68   A    
C63   H276  S    
C183  O96   S    
C54   C55   S    
O35   Zn5   S    
O20   Zn7   S    
C122  H76   S    
C27   C269  A    
C160  H165  S    
C106  H41   S    
C180  O95   S    
C233  O47   A    
C244  O51   S    
C268  O75   S    
C158  H160  S    
C263  O70   S    
C5    C112  A    
C265  O72   S    
C162  H170  S    
C118  H66   S    
C236  O26   A    
C2    C135  A    
O24   Zn14  S    
C98   H22   S    
C220  O5    A    
C138  H114  S    
C19   C225  S    
C112  O86   S    
C71   C72   S    
C193  H243  S    
C33   C240  S    
C117  C118  S    
C31   C274  A    
C44   H271  S    
C137  H109  S    
C157  C222  S    
O16   Zn3   S    
C246  C256  A    
O35   Zn16  S    
C116  H60   S    
C122  H77   S    
C127  H87   S    
C166  H181  S    
C77   H309  S    
C84   H324  S    
C56   C58   S    
C185  H226  S    
C66   H283  S    
C34   C36   A    
C153  H150  S    
C164  H175  S    
C34   C278  A    
C61   C62   S    
C123  O76   S    
C197  H253  S    
C248  C280  A    
C33   C243  A    
C225  O15   A    
C238  O27   A    
C190  C207  A    
O45   Zn14  S    
C211  C214  A    
C261  C277  A    
C91   H5    S    
O30   Zn5   S    
C150  C151  S    
C230  O48   A    
C30   C236  S    
C205  Cl13  S    
C241  O30   A    
C64   H278  S    
C87   C88   S    
C77   H308  S    
C105  H37   S    
O8    Zn9   S    
C114  O73   S    
C41   C42   A    
C73   H298  S    
C165  H176  S    
C159  H163  S    
C108  H45   S    
O1    Zn4   S    
C197  H252  S    
C171  C172  S    
C85   H328  S    
C93   H10   S    
C161  C162  S    
C199  H258  S    
C53   O53   S    
C251  C252  A    
C81   H317  S    
C239  O28   A    
C120  C121  S    
C66   O58   S    
C192  H240  S    
C178  H208  S    
O24   Zn10  S    
C164  C165  S    
C12   C270  A    
C215  O88   S    
C126  H85   S    
C9    C46   A    
C230  O19   A    
C110  H50   S    
C175  H199  S    
C123  C125  S    
C60   H268  S    
C209  C212  A    
C47   H315  S    
C68   O3    S    
C11   C42   A    
C102  H29   S    
C186  H228  S    
C16   C216  A    
C156  O87   S    
C240  O29   A    
C104  C105  S    
C196  O100  S    
C46   C135  A    
C267  C271  A    
C163  C164  S    
C240  O40   A    
C152  H145  S    
O7    Zn14  S    
C111  H54   S    
C248  O92   S    
C97   H20   S    
C82   H319  S    
C115  H59   S    
C70   C71   S    
C65   H279  S    
C138  H111  S    
C245  C257  A    
O12   Zn13  S    
C79   C226  A    
O32   Zn11  S    
C80   H314  S    
C194  C195  S    
C234  O23   A    
O1    Zn12  S    
C57   C146  A    
C142  H125  S    
O40   Zn1   S    
O44   Zn9   S    
C20   C256  A    
C219  O4    A    
O43   Zn1   S    
C186  O97   S    
C136  H107  S    
C181  H214  S    
C155  H155  S    
C84   C85   S    
C15   C41   A    
C18   C261  A    
C249  C254  A    
C86   C87   S    
C195  H247  S    
C116  H62   S    
C58   C59   S    
C53   C54   S    
C269  O76   S    
C9    C40   A    
C43   H112  S    
C191  C192  S    
C60   C61   S    
C234  O34   A    
C69   H288  S    
C154  H151  S    
C6    C204  A    
O15   Zn4   S    
C170  H188  S    
C21   C255  A    
C220  O79   A    
C99   H25   S    
C89   H336  S    
C47   O51   S    
C124  C270  A    
C128  H89   S    
C50   C51   S    
C147  H134  S    
C151  H144  S    
C249  O55   S    
C132  H99   S    
C139  H117  S    
C121  C122  S    
C184  H220  S    
C186  C187  S    
O11   Zn10  S    
C48   C49   S    
C32   C239  S    
C105  H39   S    
C133  O80   S    
C65   H281  S    
C103  H32   S    
C100  H28   S    
C92   H7    S    
C121  H74   S    
C271  O77   S    
C226  O89   S    
C159  H161  S    
C108  H47   S    
C188  H233  S    
C88   H334  S    
C127  C128  S    
C44   C45   S    
C270  O94   S    
C214  Cl7   S    
C260  O66   S    
C21   C228  S    
C25   C231  S    
C46   O99   S    
C90   C237  A    
C140  H118  S    
C180  H210  S    
C189  H236  S    
C242  O38   A    
O13   Zn7   S    
C150  O85   S    
C74   H300  S    
C126  H83   S    
C131  C132  S    
C104  H34   S    
C51   H79   S    
C65   H280  S    
C173  H196  S    
C165  H177  S    
C86   H330  S    
C67   H286  S    
C64   C65   S    
C12   C39   A    
C187  C188  S    
C72   H296  S    
C107  H42   S    
C266  C272  A    
C109  C110  S    
C188  H232  S    
C22   C265  A    
O2    Zn3   S    
C190  Cl10  S    
C22   C229  S    
C137  O81   S    
C152  H147  S    
C210  C216  A    
O5    Zn5   S    
C150  H141  S    
C170  H187  S    
C74   H301  S    
C94   C95   S    
C168  Cl1   S    
C18   C258  A    
C138  C139  S    
C76   H307  S    
O31   Zn6   S    
C268  C269  A    
C14   C213  A    
O46   Zn8   S    
C131  H96   S    
C170  C171  S    
C174  H197  S    
C198  H255  S    
C103  C104  S    
O19   Zn8   S    
C211  Cl4   S    
C113  C259  A    
C164  H174  S    
C52   H113  S    
C222  O7    A    
C144  H129  S    
C71   H294  S    
C7    C215  A    
C189  C191  S    
C247  C255  A    
C92   H6    S    
C53   H146  S    
C143  H126  S    
C93   C94   S    
O18   Zn5   S    
C117  H64   S    
C177  H206  S    
C277  O84   S    
C139  H115  S    
C189  H234  S    
C183  H218  S    
C125  H81   S    
C81   C82   S    
C163  O89   S    
C18   C233  S    
C63   O56   S    
C95   H14   S    
C130  H94   S    
C173  C174  S    
C202  H264  S    
C135  C224  S    
C245  O52   S    
C228  O41   A    
C176  H203  S    
C129  H93   S    
O39   Zn9   S    
C108  H44   S    
C27   C250  A    
C78   H310  S    
C85   H325  S    
C20   C263  A    
C25   C252  A    
C199  H259  S    
C160  O88   S    
C213  Cl6   S    
C261  O67   S    
C227  O44   A    
C181  C182  S    
C23   C268  A    
C196  C197  S    
C272  O78   S    
C53   H135  S    
C50   O52   S    
C199  O3    S    
C8    C208  A    
C59   H265  S    
C118  C119  S    
C119  H69   S    
C11   C211  A    
C232  O21   A    
C79   C219  S    
C123  H80   S    
C257  O64   S    
C217  O46   A    
C276  O83   S    
C9    C209  A    
C224  O9    A    
C70   H290  S    
C163  H172  S    
C69   H289  S    
C8    C39   A    
O14   Zn12  S    
C50   H68   S    
C87   H331  S    
C72   H297  S    
O21   Zn2   S    
C114  H56   S    
C24   O97   S    
O22   Zn16  S    
C179  C279  A    
C16   C24   A    
C155  H154  S    
C237  O91   S    
C90   C112  A    
C142  H123  S    
O24   Zn6   S    
C61   H270  S    
C197  C198  S    
O28   Zn7   S    
C125  C126  S    
C13   C146  A    
C120  H72   S    
C15   C214  A    
C104  H36   S    
C149  H138  S    
C43   O50   S    
C274  O81   S    
C63   H275  S    
C106  H40   S    
C4    C34   A    
C145  H130  S    
C6    C206  A    
C74   C75   S    
C10   C57   A    
C148  C149  S    
C3    C38   A    
C239  O39   A    
C169  H186  S    
C161  H167  S    
C134  C136  S    
C5    C205  A    
C192  H241  S    
C136  H106  S    
C209  Cl2   S    
C63   C64   S    
C98   H23   S    
C67   C69   S    
C3    C201  A    
C183  C184  S    
C160  H164  S    
C193  H242  S    
C140  O82   S    
C114  H55   S    
O36   Zn12  S    
C75   H302  S    
C129  H91   S    
C47   C48   S    
C124  C223  S    
O35   Zn15  S    
C78   H311  S    
C107  C108  S    
C96   C97   S    
C100  C102  S    
C133  H102  S    
C6    C37   A    
C185  H225  S    
C148  H136  S    
C172  H193  S    
O6    Zn15  S    
C45   H282  S    
C256  O63   S    
O27   Zn2   S    
C200  H260  S    
C176  C177  S    
C156  H156  S    
C196  H250  S    
C13   C15   A    
C175  H200  S    
C176  O94   S    
O33   Zn10  S    
C259  O93   S    
C113  C215  A    
C264  O71   S    
C132  H98   S    
C16   C42   A    
C189  O98   S    
C273  O80   S    
O48   Zn12  S    
C75   H303  S    
C233  O22   A    
O29   Zn8   S    
C93   H9    S    
C224  O14   A    
C128  H88   S    
C168  C205  A    
C29   C272  A    
O24   Zn2   S    
C58   H235  S    
C52   H101  S    
C187  H230  S    
C80   C81   S    
C85   H327  S    
C101  C204  A    
C191  H237  S    
C49   H35   S    
C81   H316  S    
C262  C276  A    
C137  C138  S    
C223  O12   A    
C83   H322  S    
C94   H11   S    
C1    C4    A    
C160  C161  S    
C145  H132  S    
C49   H24   S    
C141  C142  S    
O38   Zn14  S    
C194  H244  S    
C110  H51   S    
C55   H190  S    
C133  C134  S    
O10   Zn11  S    
C184  H221  S    
C223  O8    A    
O35   Zn11  S    
C7    C38   A    
C179  Cl9   S    
C199  C200  S    
C136  H108  S    
C102  H30   S    
C48   H13   S    
C171  H191  S    
C95   H16   S    
C22   C254  A    
C23   C230  S    
C107  H43   S    
C26   C251  A    
C14   C40   A    
C26   C271  A    
C101  C217  S    
C149  H140  S    
C170  O92   S    
C123  H78   S    
C111  H53   S    
C97   H19   S    
C60   O55   S    
C82   H320  S    
C221  O6    A    
C31   C245  A    
C55   H179  S    
C127  O77   S    
C153  C154  S    
C204  O87   S    
C96   H17   S    
C73   H299  S    
C194  H245  S    
C76   O61   S    
C76   H306  S    
