data_mof_unit_65317.cif
_audit_creation_date              2012-12-10T16:40:35-0500
_audit_creation_method            fapswitch 2.2
_symmetry_space_group_name_H-M    P1
_symmetry_Int_Tables_number       1
_space_group_crystal_system       triclinic
_cell_length_a                    10.818833
_cell_length_b                    10.823235
_cell_length_c                    19.477696
_cell_angle_alpha                 96.950569
_cell_angle_beta                  91.660737
_cell_angle_gamma                 98.524423
_cell_volume                      2236.40569509

loop_
_atom_site_label
_atom_site_type_symbol
_atom_type_description
_atom_site_fract_x
_atom_site_fract_y
_atom_site_fract_z
_atom_type_partial_charge
C1    C     C_R   0.474770 0.161773 0.484254 0.859355
C2    C     C_2   0.548974 0.503536 0.020290 -0.315561
C3    C     C_2   0.446015 0.513950 0.981713 -0.033969
C4    C     C_R   0.524416 0.838904 0.515470 0.884989
C5    C     C_R   0.476279 0.517389 0.763641 -0.001166
C6    C     C_2   0.533502 0.975025 0.521596 -0.343026
C7    C     C_2   0.465173 0.027225 0.478414 -0.299179
C8    C     C_2   0.971998 0.536457 0.521489 -0.344453
C9    C     C_2   0.030313 0.461665 0.478427 -0.296852
C10   C     C_R   0.164044 0.472341 0.484207 0.858451
C11   C     C_R   0.836765 0.526510 0.515448 0.886492
C12   C     C_R   0.549795 0.505427 0.095752 0.191536
C13   C     C_R   0.486002 0.513216 0.688514 0.791102
C14   C     C_R   0.514728 0.488422 0.311752 0.788270
C15   C     C_R   0.528775 0.493932 0.237577 0.001194
C16   C     C_R   0.486386 0.591900 0.207033 -0.207145
C17   C     C_R   0.498411 0.598559 0.136815 -0.134586
C18   C     C_R   0.319890 0.512194 0.010875 0.135522
C19   C     C_R   0.248543 0.606752 0.999309 -0.174638
C20   C     C_R   0.129400 0.604838 0.025520 -0.140678
C21   C     C_R   0.080185 0.508104 0.062940 -0.109562
C22   C     C_R   0.149805 0.412765 0.073943 -0.144608
C23   C     C_R   0.597784 0.410921 0.126380 -0.195796
C24   C     C_R   0.268888 0.414188 0.047746 -0.134388
C25   C     C_R   0.587164 0.404942 0.197162 -0.205894
C26   C     C_R   0.365716 0.442728 0.860702 -0.172706
C27   C     C_R   0.375780 0.442260 0.789823 -0.195195
C28   C     C_R   0.565963 0.594316 0.809621 -0.198818
C29   C     C_R   0.556143 0.594238 0.880849 -0.185094
C30   C     C_R   0.456262 0.517659 0.906700 0.145887
H1    H     H_    0.443981 0.663654 0.237379 0.162747
H2    H     H_    0.288253 0.382742 0.879598 0.141183
H3    H     H_    0.622202 0.329684 0.219923 0.158906
H4    H     H_    0.635190 0.489738 0.995155 0.154958
H5    H     H_    0.464822 0.674681 0.114143 0.139685
H6    H     H_    0.285587 0.682285 0.970409 0.133230
H7    H     H_    0.075161 0.678329 0.016769 0.129291
H8    H     H_    0.987912 0.506742 0.083159 0.126203
H9    H     H_    0.111283 0.337439 0.102541 0.129186
H10   H     H_    0.321028 0.338763 0.055904 0.136120
H11   H     H_    0.626115 0.654058 0.915770 0.134897
H12   H     H_    0.596238 0.033148 0.561431 0.148344
H13   H     H_    0.402164 0.971410 0.438033 0.160196
H14   H     H_    0.024489 0.605175 0.561172 0.147763
H15   H     H_    0.980226 0.392474 0.438250 0.160637
H16   H     H_    0.304787 0.382463 0.755541 0.165397
H17   H     H_    0.643928 0.653374 0.790601 0.159276
H18   H     H_    0.639351 0.339582 0.095149 0.133927
O1    O     O_3   0.500000 0.500000 0.500000 -0.488279
O2    O     O_R   0.410860 0.431690 0.648970 -0.648266
O3    O     O_R   0.578570 0.421470 0.344370 -0.648486
O4    O     O_R   0.567340 0.590030 0.662290 -0.646103
O5    O     O_R   0.443230 0.556810 0.344370 -0.648781
O6    O     O_R   0.229880 0.548640 0.449830 -0.634238
O7    O     O_R   0.775840 0.445670 0.468570 -0.639905
O8    O     O_R   0.404020 0.217050 0.524780 -0.634309
O9    O     O_R   0.590260 0.788640 0.556820 -0.644825
O10   O     O_R   0.555650 0.222860 0.449830 -0.636886
O11   O     O_R   0.450070 0.771450 0.468560 -0.641102
O12   O     O_R   0.213590 0.407490 0.524780 -0.636291
O13   O     O_R   0.780700 0.598200 0.556830 -0.645415
Zn1   Zn    Zn3+2 0.407400 0.592620 0.441700 0.963072
Zn2   Zn    Zn3+2 0.384130 0.390950 0.548790 0.967556
Zn3   Zn    Zn3+2 0.607710 0.617180 0.567810 0.967849
Zn4   Zn    Zn3+2 0.600760 0.399250 0.441700 0.962978

loop_
_geom_bond_atom_site_label_1
_geom_bond_atom_site_label_2
_ccdc_geom_bond_type
C4    O9    A    
C12   C17   A    
O13   Zn3   S    
C10   O12   A    
C13   O2    A    
C28   H17   S    
C9    H15   S    
C29   C30   A    
O2    Zn2   S    
C7    H13   S    
C3    C30   S    
C5    C28   A    
C17   H5    S    
C9    C10   S    
O10   Zn4   S    
C5    C13   S    
C14   O3    A    
C2    C12   S    
C2    H4    S    
C2    C3    D    
O8    Zn2   S    
O1    Zn3   S    
C5    C27   A    
C21   C22   A    
C23   H18   S    
C16   H1    S    
C26   H2    S    
C20   H7    S    
C12   C23   A    
C8    H14   S    
C26   C27   A    
C6    C7    D    
O1    Zn4   S    
C3    C18   S    
C8    C11   S    
O1    Zn2   S    
C22   H9    S    
C27   H16   S    
C28   C29   A    
C24   H10   S    
C1    O8    A    
C26   C30   A    
C19   H6    S    
C23   C25   A    
O4    Zn3   S    
C10   O6    A    
C22   C24   A    
C15   C25   A    
O12   Zn2   S    
O7    Zn4   S    
C15   C16   A    
C13   O4    A    
C1    O10   A    
C18   C24   A    
C14   O5    A    
C11   O7    A    
C20   C21   A    
C4    O11   A    
O9    Zn3   S    
C4    C6    S    
C18   C19   A    
O3    Zn4   S    
C14   C15   S    
C8    C9    D    
O11   Zn1   S    
O1    Zn1   S    
O6    Zn1   S    
C29   H11   S    
C1    C7    S    
C6    H12   S    
C21   H8    S    
C19   C20   A    
O5    Zn1   S    
C25   H3    S    
C16   C17   A    
C11   O13   A    
