data_mof_unit_39251.cif
_audit_creation_date              2012-12-10T16:51:30-0500
_audit_creation_method            fapswitch 2.2
_symmetry_space_group_name_H-M    P1
_symmetry_Int_Tables_number       1
_space_group_crystal_system       triclinic
_cell_length_a                    7.814173
_cell_length_b                    8.575439
_cell_length_c                    12.611219
_cell_angle_alpha                 92.450247
_cell_angle_beta                  102.615768
_cell_angle_gamma                 93.928877
_cell_volume                      821.289198867

loop_
_atom_site_label
_atom_site_type_symbol
_atom_type_description
_atom_site_fract_x
_atom_site_fract_y
_atom_site_fract_z
_atom_type_partial_charge
C1    C     C_R   0.044377 0.794596 0.497238 0.957228
C2    C     C_R   0.428835 0.586881 0.981155 0.077800
C3    C     C_R   0.371978 0.580902 0.867310 0.096175
C4    C     C_R   0.596560 0.533717 0.024831 0.078129
C5    C     C_R   0.698940 0.473041 0.954470 0.163601
C6    C     C_R   0.650598 0.492940 0.844385 -0.281529
C7    C     C_R   0.498612 0.562841 0.804461 -0.183640
C8    C     C_R   0.665536 0.537667 0.135625 -0.270594
C9    C     C_R   0.919870 0.407645 0.107152 -0.207960
C10   C     C_R   0.191129 0.590812 0.820298 -0.130353
C11   C     C_2   0.067584 0.958173 0.495759 -0.378248
C12   C     C_R   0.114883 0.532268 0.706956 0.864576
C13   C     C_2   0.932605 0.041856 0.504603 -0.385058
C14   C     C_R   0.955695 0.205428 0.502898 0.979001
C15   C     C_R   0.889635 0.487007 0.292071 0.875604
C16   C     C_R   0.855390 0.404636 0.995769 -0.185328
C17   C     C_R   0.826179 0.477629 0.176238 -0.053844
C18   C     C_R   0.084042 0.653967 0.883957 -0.217520
C19   C     C_R   0.147749 0.684373 0.995289 -0.119829
C20   C     C_R   0.314720 0.643402 0.044837 -0.196972
H1    H     H_    0.043327 0.358166 0.139034 0.162521
H2    H     H_    0.805277 0.990841 0.513041 0.178274
H3    H     H_    0.471408 0.366228 0.426512 0.190356
H4    H     H_    0.528649 0.640792 0.565994 0.172656
H5    H     H_    0.734102 0.461811 0.790134 0.186257
H6    H     H_    0.931106 0.355076 0.942008 0.152200
H7    H     H_    0.950791 0.678623 0.847906 0.164061
H8    H     H_    0.349579 0.658460 0.132279 0.134945
H9    H     H_    0.063448 0.731382 0.044353 0.155368
H10   H     H_    0.484137 0.605303 0.724948 0.171303
H11   H     H_    0.194928 0.009183 0.487351 0.178947
N1    N     N_2   0.434800 0.456690 0.470850 -0.176182
N2    N     N_2   0.565200 0.543310 0.529150 -0.182947
O1    O     O_R   0.893060 0.738880 0.507150 -0.615758
O2    O     O_R   0.172250 0.711130 0.488470 -0.636610
O3    O     O_R   0.944700 0.520730 0.667600 -0.630660
O4    O     O_R   0.223890 0.492980 0.648920 -0.622827
O5    O     O_R   0.827750 0.288870 0.511530 -0.626273
O6    O     O_R   0.106940 0.261120 0.492850 -0.608966
O7    O     O_R   0.776110 0.507020 0.351080 -0.628506
O8    O     O_R   0.055300 0.479270 0.332400 -0.623229
Zn1   Zn    Zn3+2 0.813580 0.518530 0.512470 0.928350
Zn2   Zn    Zn3+2 0.186420 0.481470 0.487530 0.934655
H12   H     H_    0.598501 0.590672 0.192123 0.160827

loop_
_geom_bond_atom_site_label_1
_geom_bond_atom_site_label_2
_ccdc_geom_bond_type
O4    Zn2   S    
C2    C4    A    
C6    C7    A    
C14   O5    A    
O8    Zn2   S    
O3    Zn1   S    
C8    C17   A    
O1    Zn1   S    
C4    C8    A    
H3    N1    S    
C19   C20   A    
O7    Zn1   S    
C2    C3    A    
C11   H11   S    
C3    C10   A    
C13   C14   S    
N1    N2    D    
C11   C13   D    
C9    H1    S    
C10   C12   S    
C10   C18   A    
N2    Zn1   S    
C9    C17   A    
C9    C16   A    
C13   H2    S    
O5    Zn1   S    
C3    C7    A    
C16   H6    S    
C5    C6    A    
C15   O7    A    
C6    H5    S    
C12   O3    A    
C15   O8    A    
C2    C20   A    
C19   H9    S    
C8    H12   S    
O2    Zn2   S    
C1    O1    A    
C1    O2    A    
C15   C17   S    
C18   C19   A    
C12   O4    A    
C7    H10   S    
C5    C16   A    
O6    Zn2   S    
C20   H8    S    
C14   O6    A    
N1    Zn2   S    
C18   H7    S    
H4    N2    S    
C4    C5    A    
C1    C11   S    
