data_mof_unit_44971.cif
_audit_creation_date              2012-12-11T14:04:26-0500
_audit_creation_method            fapswitch 2.2
_symmetry_space_group_name_H-M    P1
_symmetry_Int_Tables_number       1
_space_group_crystal_system       triclinic
_cell_length_a                    18.973044
_cell_length_b                    10.989267
_cell_length_c                    18.767399
_cell_angle_alpha                 89.887148
_cell_angle_beta                  90.077708
_cell_angle_gamma                 89.774123
_cell_volume                      3912.95816962

loop_
_atom_site_label
_atom_site_type_symbol
_atom_type_description
_atom_site_fract_x
_atom_site_fract_y
_atom_site_fract_z
_atom_type_partial_charge
C1    C     C_R   0.227078 0.512127 0.637756 0.579530
C2    C     C_R   0.759622 0.466071 0.352615 0.592192
C3    C     C_R   0.739272 0.967936 0.646194 0.570206
C4    C     C_R   0.259687 0.966057 0.352658 0.585235
C5    C     C_2   0.274103 0.816308 0.532136 -0.175300
C6    C     C_2   0.712235 0.839274 0.462752 -0.173885
C7    C     C_2   0.771382 0.313280 0.531519 -0.172419
C8    C     C_2   0.198012 0.377596 0.454175 -0.171252
C9    C     C_R   0.999637 0.656396 0.428770 -0.024018
C10   C     C_R   0.989038 0.671967 0.578146 -0.028193
C11   C     C_R   0.501355 0.156703 0.428007 -0.023205
C12   C     C_R   0.489910 0.171017 0.577456 -0.026628
C13   C     C_R   0.033792 0.872117 0.424085 -0.135794
C14   C     C_R   0.004877 0.894975 0.568823 -0.121467
C15   C     C_R   0.534438 0.372590 0.423989 -0.133834
C16   C     C_R   0.504585 0.394044 0.568636 -0.116307
C17   C     C_R   0.043648 0.984878 0.457797 0.279267
C18   C     C_R   0.028189 0.996648 0.530226 0.290273
C19   C     C_R   0.544443 0.484798 0.458235 0.277163
C20   C     C_R   0.528295 0.495894 0.530594 0.290950
C21   C     C_R   0.001113 0.778873 0.537112 -0.036936
C22   C     C_R   0.010658 0.769416 0.462640 -0.039190
C23   C     C_R   0.501536 0.278273 0.536663 -0.033263
C24   C     C_R   0.511446 0.269542 0.462184 -0.037863
C25   C     C_R   0.970725 0.564032 0.543341 0.027226
C26   C     C_R   0.989339 0.550272 0.471592 0.030268
C27   C     C_R   0.473305 0.062626 0.542156 0.021150
C28   C     C_R   0.492821 0.050104 0.470577 0.024851
C29   C     C_R   0.941444 0.464785 0.580892 -0.063419
C30   C     C_R   0.995615 0.429963 0.445142 -0.050257
C31   C     C_R   0.444708 0.962020 0.578948 -0.065091
C32   C     C_R   0.501211 0.930557 0.443788 -0.055681
C33   C     C_R   0.940625 0.349303 0.550778 -0.076895
C34   C     C_R   0.969852 0.331423 0.483757 -0.062536
C35   C     C_R   0.445812 0.846883 0.548442 -0.074806
C36   C     C_R   0.476330 0.830752 0.481831 -0.062965
C37   C     C_2   0.255851 0.927571 0.916690 -0.108583
C38   C     C_2   0.744527 0.927494 0.083043 -0.102727
C39   C     C_2   0.757857 0.436539 0.913942 -0.109644
C40   C     C_2   0.244398 0.427564 0.083096 -0.104130
C41   C     C_2   0.255140 0.938300 0.073003 -0.102053
C42   C     C_2   0.745274 0.937577 0.926827 -0.093121
C43   C     C_2   0.769957 0.484262 0.066892 -0.105895
C44   C     C_2   0.245149 0.437964 0.926926 -0.093612
C45   C     C_R   0.226769 0.872643 0.646808 0.553520
C46   C     C_R   0.772622 0.874642 0.352168 0.568052
C47   C     C_R   0.726695 0.372410 0.646746 0.558693
C48   C     C_R   0.271379 0.378378 0.349890 0.565708
C49   C     C_2   0.228516 0.024398 0.029165 -0.152866
C50   C     C_2   0.772523 0.022879 0.970351 -0.148691
C51   C     C_2   0.737381 0.559617 0.021184 -0.161529
C52   C     C_2   0.272050 0.523569 0.970483 -0.149975
C53   C     C_2   0.216174 0.004331 0.953958 -0.161071
C54   C     C_2   0.784701 0.002779 0.045525 -0.161219
C55   C     C_2   0.721562 0.523814 0.947761 -0.149887
C56   C     C_2   0.284268 0.503500 0.045689 -0.165509
C57   C     C_2   0.983454 0.663034 0.912806 -0.106750
C58   C     C_2   0.955316 0.656750 0.066689 -0.100941
C59   C     C_2   0.483091 0.163848 0.912734 -0.107134
C60   C     C_2   0.455428 0.156278 0.066678 -0.097059
C61   C     C_2   0.940415 0.564630 0.022709 -0.166648
C62   C     C_2   0.963198 0.562834 0.948189 -0.152321
C63   C     C_2   0.436252 0.067846 0.021705 -0.164129
C64   C     C_2   0.460453 0.064543 0.947487 -0.153700
C65   C     C_R   0.026141 0.656786 0.647173 0.531640
C66   C     C_R   0.971811 0.653633 0.354789 0.537826
C67   C     C_R   0.526242 0.156637 0.647018 0.532797
C68   C     C_R   0.472204 0.153726 0.354519 0.540163
C69   C     C_R   0.238052 0.470047 0.852543 0.558001
C70   C     C_R   0.775209 0.517149 0.141282 0.544650
C71   C     C_R   0.738086 0.969925 0.852498 0.549597
C72   C     C_R   0.262026 0.970059 0.147409 0.543066
C73   C     C_R   0.228630 0.875549 0.851649 0.557925
C74   C     C_R   0.771455 0.875443 0.148302 0.543067
C75   C     C_R   0.728687 0.376431 0.851576 0.553883
C76   C     C_R   0.271441 0.375456 0.148306 0.545681
C77   C     C_R   0.027128 0.652523 0.849393 0.548516
C78   C     C_R   0.937985 0.648120 0.141678 0.546515
C79   C     C_R   0.527145 0.152596 0.849485 0.549284
C80   C     C_R   0.437735 0.148035 0.141657 0.565004
C81   C     C_2   0.246566 0.904198 0.574388 -0.131315
C82   C     C_2   0.750521 0.915157 0.422157 -0.136311
C83   C     C_2   0.746226 0.402846 0.574144 -0.132184
C84   C     C_2   0.243530 0.437345 0.412520 -0.140680
C85   C     C_2   0.242092 0.908934 0.419912 -0.040149
C86   C     C_2   0.752854 0.910100 0.577970 -0.052613
C87   C     C_2   0.741667 0.409533 0.419898 -0.040473
C88   C     C_2   0.235971 0.471038 0.564957 -0.045955
C89   C     C_2   0.284717 0.832999 0.454838 0.199365
C90   C     C_2   0.700777 0.861280 0.538859 0.205194
C91   C     C_2   0.782652 0.330487 0.454331 0.199311
C92   C     C_2   0.184736 0.414615 0.528084 0.204489
Cr1   Cr    Cr6+3 0.113970 0.508630 0.747920 1.062769
Cr2   Cr    Cr6+3 0.886030 0.508630 0.252080 1.051124
Cr3   Cr    Cr6+3 0.613970 0.008630 0.747920 1.065137
Cr4   Cr    Cr6+3 0.386030 0.008630 0.252080 1.053611
Cr5   Cr    Cr6+3 0.269200 0.666740 0.749850 1.002581
Cr6   Cr    Cr6+3 0.730800 0.666740 0.250150 1.014779
Cr7   Cr    Cr6+3 0.769200 0.166740 0.749850 1.004169
Cr8   Cr    Cr6+3 0.230800 0.166740 0.250150 1.016929
Cr9   Cr    Cr6+3 0.112300 0.820070 0.749800 1.015683
Cr10  Cr    Cr6+3 0.887700 0.820070 0.250200 1.027125
Cr11  Cr    Cr6+3 0.612300 0.320070 0.749800 1.023699
Cr12  Cr    Cr6+3 0.387700 0.320070 0.250200 1.032264
H1    H     H_    0.169836 0.047290 0.930709 0.154646
H2    H     H_    0.831213 0.044669 0.068602 0.157586
H3    H     H_    0.674900 0.564041 0.923577 0.153963
H4    H     H_    0.330590 0.545864 0.068857 0.155636
H5    H     H_    0.274846 0.851357 0.054039 0.088187
H6    H     H_    0.725290 0.851098 0.946002 0.085256
H7    H     H_    0.791441 0.397055 0.050575 0.102037
H8    H     H_    0.225444 0.351279 0.946083 0.086859
H9    H     H_    0.304370 0.890201 0.938676 0.094434
H10   H     H_    0.695932 0.891138 0.061136 0.105996
H11   H     H_    0.807078 0.401294 0.935282 0.092398
H12   H     H_    0.195947 0.390749 0.061123 0.107254
H13   H     H_    0.980362 0.739510 0.048271 0.113536
H14   H     H_    0.974201 0.753547 0.933781 0.103403
H15   H     H_    0.484961 0.235094 0.049101 0.113696
H16   H     H_    0.474921 0.254441 0.934121 0.105677
H17   H     H_    0.289089 0.728740 0.554494 0.125855
H18   H     H_    0.689115 0.757314 0.440534 0.186320
H19   H     H_    0.783887 0.224175 0.553493 0.139841
H20   H     H_    0.173518 0.293936 0.435984 0.181063
H21   H     H_    0.194863 0.943278 0.445751 0.091593
H22   H     H_    0.804751 0.923856 0.554838 0.050346
H23   H     H_    0.695163 0.446104 0.446038 0.092354
H24   H     H_    0.287135 0.488184 0.541178 0.045880
H25   H     H_    0.231318 0.992851 0.553825 0.118804
H26   H     H_    0.773138 0.997843 0.443885 0.107160
H27   H     H_    0.733167 0.492802 0.553991 0.115341
H28   H     H_    0.266916 0.522954 0.428677 0.115153
H29   H     H_    0.047435 0.863872 0.368317 0.119252
H30   H     H_    0.989223 0.907805 0.623699 0.121299
H31   H     H_    0.548201 0.364773 0.368217 0.120471
H32   H     H_    0.488376 0.406358 0.623390 0.123373
H33   H     H_    0.021673 0.410420 0.395203 0.147018
H34   H     H_    0.921555 0.476043 0.634585 0.114479
H35   H     H_    0.527121 0.913149 0.393478 0.146189
H36   H     H_    0.423717 0.972061 0.632294 0.118297
H37   H     H_    0.919955 0.272950 0.580549 0.124965
H38   H     H_    0.972950 0.240978 0.461593 0.195118
H39   H     H_    0.425219 0.769646 0.577465 0.126979
H40   H     H_    0.479862 0.740946 0.459025 0.198590
O1    O     O_R   0.043230 0.549300 0.667990 -0.480720
O2    O     O_R   0.956770 0.549300 0.332010 -0.515938
O3    O     O_R   0.543230 0.049300 0.667990 -0.488137
O4    O     O_R   0.456770 0.049300 0.332010 -0.513200
O5    O     O_R   0.262920 0.788600 0.824420 -0.507494
O6    O     O_R   0.737080 0.788600 0.175580 -0.521450
O7    O     O_R   0.762920 0.288600 0.824420 -0.507130
O8    O     O_R   0.237080 0.288600 0.175580 -0.509494
O9    O     O_R   0.167530 0.905110 0.830340 -0.508739
O10   O     O_R   0.832470 0.905110 0.169660 -0.515019
O11   O     O_R   0.667530 0.405110 0.830340 -0.509663
O12   O     O_R   0.332470 0.405110 0.169660 -0.517419
O13   O     O_R   0.054010 0.748440 0.822860 -0.498913
O14   O     O_R   0.945990 0.748440 0.177140 -0.496448
O15   O     O_R   0.554010 0.248440 0.822860 -0.499320
O16   O     O_R   0.445990 0.248440 0.177140 -0.496908
O17   O     O_3   0.165160 0.665150 0.749190 -0.269623
O18   O     O_3   0.834840 0.665150 0.250810 -0.296923
O19   O     O_3   0.665160 0.165150 0.749190 -0.253769
O20   O     O_3   0.334840 0.165150 0.250810 -0.278728
O21   O     O_R   0.178620 0.457600 0.674100 -0.416788
O22   O     O_R   0.821380 0.457600 0.325900 -0.429193
O23   O     O_R   0.678620 0.957600 0.674100 -0.419095
O24   O     O_R   0.321380 0.957600 0.325900 -0.431199
O25   O     O_R   0.284680 0.542100 0.669460 -0.541690
O26   O     O_R   0.715320 0.542100 0.330540 -0.536672
O27   O     O_R   0.784680 0.042100 0.669460 -0.547943
O28   O     O_R   0.215320 0.042100 0.330540 -0.534635
O29   O     O_R   0.262860 0.790390 0.676650 -0.519550
O30   O     O_R   0.737140 0.790390 0.323350 -0.496652
O31   O     O_R   0.762860 0.290390 0.676650 -0.508188
O32   O     O_R   0.237140 0.290390 0.323350 -0.494551
O33   O     O_R   0.167460 0.907030 0.670940 -0.494328
O34   O     O_R   0.832540 0.907030 0.329060 -0.492471
O35   O     O_R   0.667460 0.407030 0.670940 -0.493078
O36   O     O_R   0.332540 0.407030 0.329060 -0.497011
O37   O     O_R   0.053950 0.750220 0.675100 -0.515999
O38   O     O_R   0.946050 0.750220 0.324900 -0.492886
O39   O     O_R   0.553950 0.250220 0.675100 -0.512228
O40   O     O_R   0.446050 0.250220 0.324900 -0.492897
O41   O     O_R   0.043300 0.547370 0.827390 -0.519606
O42   O     O_R   0.956700 0.547370 0.172610 -0.506664
O43   O     O_R   0.543300 0.047370 0.827390 -0.517963
O44   O     O_R   0.456700 0.047370 0.172610 -0.503594
O45   O     O_R   0.178690 0.455820 0.821860 -0.492619
O46   O     O_R   0.821310 0.455820 0.178140 -0.511404
O47   O     O_R   0.678690 0.955820 0.821860 -0.496468
O48   O     O_R   0.321310 0.955820 0.178140 -0.517862
O49   O     O_R   0.284750 0.540170 0.828860 -0.513701
O50   O     O_R   0.715250 0.540170 0.171140 -0.494727
O51   O     O_R   0.784750 0.040170 0.828860 -0.518967
O52   O     O_R   0.215250 0.040170 0.171140 -0.513606
O53   O     O_3   0.335224 0.767800 0.418077 -0.680927
H41   H     H_    0.354426 0.704736 0.450628 0.308422
O54   O     O_3   0.637067 0.831464 0.569659 -0.633865
H42   H     H_    0.606565 0.796963 0.532113 0.371564
O55   O     O_3   0.831711 0.262671 0.417208 -0.678450
H43   H     H_    0.849941 0.198557 0.449630 0.308794
O56   O     O_3   0.122842 0.381279 0.561273 -0.639584
H44   H     H_    0.098996 0.320942 0.530741 0.364238
H45   H     H_    0.917067 0.481945 0.043699 0.134556
H46   H     H_    0.969357 0.473412 0.924360 0.152395
H47   H     H_    0.408160 0.988865 0.041703 0.138872
H48   H     H_    0.465139 0.975110 0.923351 0.152185
O57   O     O_3   0.068532 0.084946 0.421224 -0.702545
H49   H     H_    0.075210 0.062899 0.370476 0.321609
O58   O     O_3   0.037822 0.107999 0.562512 -0.692820
H50   H     H_    0.025615 0.101232 0.613723 0.312730
O59   O     O_3   0.570412 0.584696 0.422320 -0.710727
H51   H     H_    0.577160 0.563257 0.371495 0.323267
O60   O     O_3   0.537684 0.606667 0.563477 -0.691533
H52   H     H_    0.525295 0.599240 0.614614 0.315560
H53   H     H_    0.209686 0.110962 0.049872 0.154440
H54   H     H_    0.791738 0.108969 0.949498 0.156374
H55   H     H_    0.714844 0.644630 0.040222 0.134206
H56   H     H_    0.290991 0.609835 0.949616 0.154147

loop_
_geom_bond_atom_site_label_1
_geom_bond_atom_site_label_2
_ccdc_geom_bond_type
Cr2   O2    S    
C7    C83   D    
O56   H44   S    
C49   C53   S    
C59   H16   S    
C6    C82   D    
C87   C91   D    
C86   H22   S    
C77   O41   A    
O55   H43   S    
C14   C18   A    
C85   H21   S    
C35   C36   A    
C3    O27   A    
Cr10  O14   S    
C87   H23   S    
C3    O23   A    
Cr3   O43   S    
C57   C62   D    
C65   O37   A    
O59   H51   S    
Cr8   O8    S    
C15   C19   A    
C29   H34   S    
C64   H48   S    
C12   C23   A    
C74   O10   A    
C59   C64   D    
C50   C54   S    
C79   O43   A    
C60   C63   D    
Cr11  O39   S    
C32   C36   A    
C14   C21   A    
Cr8   O28   S    
C16   C20   A    
C17   O57   S    
C79   O15   A    
Cr6   O30   S    
C43   C51   D    
C9    C22   A    
C80   O16   A    
C15   H31   S    
C76   O8    A    
C84   H28   S    
C5    H17   S    
C11   C24   A    
Cr5   O25   S    
Cr6   O50   S    
C60   H15   S    
C17   C18   A    
Cr5   O49   S    
C46   O34   A    
C9    C66   S    
C56   H4    S    
C47   O35   A    
C5    C81   D    
C46   C82   S    
C71   O51   A    
C78   O14   A    
C69   O49   A    
C39   C55   D    
C88   C92   D    
C29   C33   A    
C4    O24   A    
C40   C56   D    
Cr8   O32   S    
C23   C24   A    
Cr4   O24   S    
Cr1   O1    S    
C78   O42   A    
C39   C75   S    
C82   H26   S    
C2    O22   A    
C51   C55   S    
C68   O4    A    
C45   O33   A    
C37   C53   D    
C44   C52   D    
C58   C61   D    
C66   O38   A    
Cr1   O21   S    
O54   H42   S    
C30   H33   S    
C41   H5    S    
C21   C22   A    
C3    C86   S    
Cr2   O22   S    
C61   C62   S    
C43   H7    S    
Cr12  O16   S    
C41   C49   D    
Cr6   O18   S    
C34   H38   S    
C9    C26   A    
C33   C34   A    
Cr8   O52   S    
C10   C21   A    
C25   C29   A    
Cr4   O4    S    
C12   C67   S    
C52   H56   S    
Cr5   O29   S    
C54   H2    S    
C12   C27   A    
C27   C31   A    
C37   C73   S    
Cr10  O38   S    
C20   O60   S    
C57   C77   S    
C28   C32   A    
Cr3   O3    S    
C32   H35   S    
Cr10  O18   S    
C86   C90   D    
C59   C79   S    
C30   C34   A    
C8    H20   S    
C4    C85   S    
C14   H30   S    
C38   C74   S    
C51   H55   S    
C25   C26   A    
C6    C90   S    
Cr7   O7    S    
C76   O12   A    
C58   H13   S    
Cr4   O20   S    
C49   H53   S    
C19   O59   S    
Cr12  O36   S    
C75   O7    A    
O60   H52   S    
Cr2   O46   S    
C83   H27   S    
Cr3   O19   S    
C48   C84   S    
C81   H25   S    
O58   H50   S    
C38   C54   D    
Cr1   O17   S    
C70   O50   A    
C7    C91   S    
C46   O30   A    
O57   H49   S    
C80   O44   A    
C2    C87   S    
Cr8   O20   S    
Cr12  O12   S    
C39   H11   S    
C91   O55   S    
C92   O56   S    
C67   O39   A    
C42   C50   D    
C41   C72   S    
C8    C92   S    
C44   H8    S    
C10   C25   A    
Cr11  O11   S    
C15   C24   A    
Cr12  O40   S    
C2    O26   A    
C26   C30   A    
C43   C70   S    
Cr5   O17   S    
C67   O3    A    
Cr10  O34   S    
Cr7   O19   S    
C6    H18   S    
Cr9   O9    S    
C65   O1    A    
C16   H32   S    
C48   O36   A    
Cr9   O37   S    
C11   C68   S    
C70   O46   A    
C73   O9    A    
Cr6   O6    S    
C10   C65   S    
Cr5   O5    S    
Cr10  O10   S    
C60   C80   S    
C85   C89   D    
Cr3   O47   S    
C4    O28   A    
C73   O5    A    
C1    O21   A    
C8    C84   D    
C13   H29   S    
C45   C81   S    
Cr2   O42   S    
C7    H19   S    
C47   C83   S    
C69   O45   A    
Cr3   O23   S    
C72   O52   A    
C75   O11   A    
C90   O54   S    
Cr1   O45   S    
C16   C23   A    
C89   O53   S    
C35   H39   S    
Cr11  O19   S    
C13   C17   A    
C33   H37   S    
Cr4   O48   S    
C19   C20   A    
Cr9   O17   S    
C18   O58   S    
C42   H6    S    
C68   O40   A    
C88   H24   S    
Cr7   O51   S    
Cr11  O15   S    
Cr12  O20   S    
C40   H12   S    
C11   C28   A    
C1    C88   S    
C38   H10   S    
C31   C35   A    
C1    O25   A    
C42   C71   S    
C50   H54   S    
C13   C22   A    
Cr11  O35   S    
C36   H40   S    
O53   H41   S    
C62   H46   S    
C66   O2    A    
C61   H45   S    
C58   C78   S    
C47   O31   A    
Cr9   O13   S    
C63   C64   S    
Cr6   O26   S    
C53   H1    S    
C45   O29   A    
Cr7   O31   S    
C40   C76   S    
C55   H3    S    
C27   C28   A    
C44   C69   S    
C74   O6    A    
C37   H9    S    
C63   H47   S    
C71   O47   A    
C31   H36   S    
Cr4   O44   S    
C72   O48   A    
Cr9   O33   S    
C5    C89   S    
Cr2   O18   S    
C52   C56   S    
Cr7   O27   S    
C77   O13   A    
C57   H14   S    
C48   O32   A    
Cr1   O41   S    
