data_mof_unit_41036.cif
_audit_creation_date              2012-12-10T20:55:44-0500
_audit_creation_method            fapswitch 2.2
_symmetry_space_group_name_H-M    P1
_symmetry_Int_Tables_number       1
_space_group_crystal_system       triclinic
_cell_length_a                    15.799586
_cell_length_b                    15.092829
_cell_length_c                    10.672237
_cell_angle_alpha                 90.062424
_cell_angle_beta                  89.962347
_cell_angle_gamma                 90.281768
_cell_volume                      2544.87361038

loop_
_atom_site_label
_atom_site_type_symbol
_atom_type_description
_atom_site_fract_x
_atom_site_fract_y
_atom_site_fract_z
_atom_type_partial_charge
C1    C     C_1   0.250393 0.498682 0.492669 -0.092637
C2    C     C_1   0.749607 0.501316 0.507304 -0.094049
C3    C     C_R   0.500012 0.500178 0.871754 -0.167256
C4    C     C_R   0.499985 0.499819 0.128245 -0.167273
C5    C     C_R   0.500020 0.905035 0.499981 0.060762
C6    C     C_R   0.499980 0.094965 0.500019 0.060782
C7    C     C_R   0.452870 0.952844 0.411089 -0.126041
C8    C     C_R   0.547130 0.047156 0.588910 -0.126029
C9    C     C_R   0.547153 0.953468 0.588890 -0.137181
C10   C     C_R   0.452847 0.046532 0.411109 -0.137311
C11   C     C_R   0.956383 0.577293 0.460641 0.284461
C12   C     C_R   0.043613 0.422672 0.539192 0.284417
C13   C     C_R   0.043083 0.568259 0.433453 0.293590
C14   C     C_R   0.956915 0.431709 0.566391 0.293636
C15   C     C_R   0.338823 0.499749 0.499516 0.845765
C16   C     C_R   0.661176 0.500251 0.500488 0.845729
C17   C     C_R   0.499924 0.499948 0.260277 0.866970
C18   C     C_R   0.500073 0.500051 0.739723 0.866877
C19   C     C_R   0.914026 0.506146 0.519211 -0.251266
C20   C     C_R   0.085975 0.493830 0.480660 -0.251556
C21   C     C_1   0.500015 0.807128 0.499989 0.088313
C22   C     C_1   0.499985 0.192872 0.500011 0.088402
C23   C     C_1   0.824528 0.503584 0.514169 0.264010
C24   C     C_1   0.175474 0.496407 0.485762 0.264531
C25   C     C_R   0.653728 0.532942 0.130293 -0.144369
C26   C     C_R   0.346274 0.467035 0.869706 -0.144190
C27   C     C_R   0.653667 0.533769 0.869780 -0.140595
C28   C     C_R   0.346336 0.466199 0.130218 -0.140118
C29   C     C_R   0.728664 0.549215 0.065141 -0.100230
C30   C     C_R   0.271342 0.450739 0.934856 -0.100479
C31   C     C_R   0.728597 0.549817 0.934961 -0.071331
C32   C     C_R   0.271409 0.450133 0.065036 -0.072156
C33   C     C_R   0.576769 0.517254 0.934603 0.055705
C34   C     C_R   0.423230 0.482732 0.065396 0.055633
C35   C     C_R   0.576772 0.516979 0.065431 0.067516
C36   C     C_R   0.423227 0.483009 0.934568 0.067466
H1    H     H_    0.213228 0.437479 0.115728 0.196656
H2    H     H_    0.786781 0.562453 0.884269 0.196710
H3    H     H_    0.213078 0.438776 0.884165 0.191827
H4    H     H_    0.786931 0.561160 0.115830 0.191946
H5    H     H_    0.415872 0.081215 0.341395 0.151707
H6    H     H_    0.584128 0.918785 0.658605 0.151801
H7    H     H_    0.584093 0.082328 0.658638 0.154032
H8    H     H_    0.415907 0.917672 0.341362 0.154064
H9    H     H_    0.656902 0.532733 0.231472 0.134262
H10   H     H_    0.343099 0.467246 0.768526 0.134263
H11   H     H_    0.656788 0.534232 0.768609 0.145429
H12   H     H_    0.343215 0.465731 0.231389 0.145586
N1    N     N_1   0.500000 0.270550 0.500000 -0.076917
N2    N     N_1   0.500000 0.729450 0.500000 -0.076976
O1    O     O_R   0.378020 0.573650 0.500040 -0.594320
O2    O     O_R   0.621980 0.426350 0.499960 -0.594457
O3    O     O_R   0.621980 0.573650 0.499960 -0.602750
O4    O     O_R   0.378020 0.426350 0.500040 -0.602266
O5    O     O_R   0.499990 0.573670 0.316780 -0.607344
O6    O     O_R   0.500010 0.426330 0.683220 -0.607429
O7    O     O_R   0.500010 0.573670 0.683220 -0.609623
O8    O     O_R   0.499990 0.426330 0.316780 -0.609637
Zn1   Zn    Zn3+2 0.500000 0.598370 0.500000 1.009038
Zn2   Zn    Zn3+2 0.500000 0.401630 0.500000 1.009157
S1    S     S_3+6 0.098484 0.645115 0.335003 0.094114
O9    O     O_2   0.040806 0.683094 0.237133 -0.184931
O10   O     O_2   0.133544 0.718719 0.414835 -0.245872
O11   O     O_3   0.178912 0.594835 0.260408 -0.598037
H13   H     H_    0.211288 0.643344 0.219902 0.385208
S2    S     S_3+6 0.901485 0.354811 0.664739 0.094349
O12   O     O_2   0.866306 0.281353 0.584747 -0.246791
O13   O     O_2   0.959143 0.316618 0.762471 -0.183775
O14   O     O_3   0.821167 0.405132 0.739535 -0.597715
H14   H     H_    0.787806 0.356501 0.777948 0.384945
S3    S     S_3+6 0.900227 0.677792 0.430114 0.094661
O15   O     O_2   0.957478 0.757188 0.441250 -0.165008
O16   O     O_2   0.864085 0.673585 0.299990 -0.291043
O17   O     O_3   0.820633 0.690710 0.533316 -0.562697
H15   H     H_    0.786092 0.739689 0.499278 0.385967
S4    S     S_3+6 0.099734 0.322127 0.569560 0.094384
O18   O     O_2   0.135836 0.326160 0.699715 -0.289912
O19   O     O_2   0.042432 0.242784 0.558185 -0.166205
O20   O     O_3   0.179360 0.309284 0.466407 -0.563210
H16   H     H_    0.212840 0.259014 0.498972 0.386308

loop_
_geom_bond_atom_site_label_1
_geom_bond_atom_site_label_2
_ccdc_geom_bond_type
C7    C10   A    
S2    O13   D    
O5    Zn1   S    
C8    H7    S    
O3    Zn1   S    
O4    Zn2   S    
C27   C33   A    
C11   C19   A    
C9    H6    S    
N1    Zn2   S    
N2    Zn1   S    
S4    O19   D    
C11   S3    S    
O7    Zn1   S    
S2    O14   S    
C3    C33   A    
O8    Zn2   S    
C6    C22   S    
C3    C18   S    
S1    O10   D    
C16   O3    A    
O2    Zn2   S    
C20   C24   S    
C8    C9    A    
S4    O20   S    
C1    C15   S    
C15   O1    A    
C2    C16   S    
C17   O5    A    
C18   O6    A    
C17   O8    A    
S2    O12   D    
C4    C35   A    
C28   C34   A    
C10   H5    S    
O14   H14   S    
C21   N2    T    
C25   C29   A    
C4    C34   A    
O17   H15   S    
C27   C31   A    
C15   O4    A    
C28   C32   A    
S4    O18   D    
S3    O16   D    
C6    C8    A    
C7    H8    S    
O6    Zn2   S    
S1    O11   S    
C19   C23   S    
C5    C9    A    
C18   O7    A    
C12   C20   A    
C14   S2    S    
C13   S1    S    
C32   H1    S    
C25   C35   A    
C22   N1    T    
C4    C17   S    
C26   C36   A    
C12   C14   A    
C26   C30   A    
C12   S4    S    
O1    Zn1   S    
C25   H9    S    
C5    C7    A    
C27   H11   S    
C28   H12   S    
C13   C20   A    
C14   C19   A    
C16   O2    A    
C6    C10   A    
S3    O17   S    
C31   H2    S    
O11   H13   S    
S3    O15   D    
C29   C31   A    
C30   C32   A    
C11   C13   A    
C3    C36   A    
C29   H4    S    
C33   C35   A    
C30   H3    S    
C34   C36   A    
S1    O9    D    
C26   H10   S    
O20   H16   S    
C5    C21   S    
C1    C24   T    
C2    C23   T    
