data_mof_unit_43520.cif
_audit_creation_date              2012-12-10T17:12:42-0500
_audit_creation_method            fapswitch 2.2
_symmetry_space_group_name_H-M    P1
_symmetry_Int_Tables_number       1
_space_group_crystal_system       triclinic
_cell_length_a                    23.316736
_cell_length_b                    10.716696
_cell_length_c                    10.048111
_cell_angle_alpha                 89.554869
_cell_angle_beta                  90.285277
_cell_angle_gamma                 89.915881
_cell_volume                      2510.69586827

loop_
_atom_site_label
_atom_site_type_symbol
_atom_type_description
_atom_site_fract_x
_atom_site_fract_y
_atom_site_fract_z
_atom_type_partial_charge
C1    C     C_R   0.502447 0.263031 0.500212 0.932717
C2    C     C_R   0.966998 0.434553 0.262651 -0.168608
C3    C     C_R   0.026478 0.433130 0.258862 -0.159520
C4    C     C_R   0.058322 0.449935 0.375856 -0.013028
C5    C     C_R   0.029889 0.467305 0.498186 -0.021393
C6    C     C_R   0.061884 0.483322 0.615417 -0.053628
C7    C     C_R   0.033920 0.499922 0.736570 -0.175647
C8    C     C_R   0.973966 0.501874 0.744608 0.152274
C9    C     C_R   0.118243 0.449840 0.373925 0.576205
C10   C     C_R   0.121741 0.482658 0.608690 0.528651
C11   C     C_R   0.236718 0.576479 0.446853 -0.103274
C12   C     C_R   0.389712 0.497285 0.499675 0.883224
C13   C     C_R   0.295751 0.584799 0.452940 -0.225379
C14   C     C_R   0.328070 0.483377 0.498432 -0.056459
C15   C     C_R   0.301633 0.369218 0.535593 0.065934
C16   C     C_R   0.241051 0.361825 0.529782 0.019466
C17   C     C_R   0.209400 0.466629 0.485766 0.207151
C18   C     C_R   0.758258 0.375202 0.515804 -0.085722
C19   C     C_R   0.698924 0.382338 0.514923 -0.250647
C20   C     C_R   0.671930 0.498360 0.501332 -0.027666
C21   C     C_R   0.704120 0.609196 0.488846 0.133665
C22   C     C_R   0.763881 0.600465 0.489832 -0.130434
C23   C     C_R   0.500384 0.737667 0.499169 0.970870
C24   C     C_R   0.790530 0.484111 0.503249 0.298034
C25   C     C_2   0.507946 0.939238 0.386551 -0.019312
C26   C     C_2   0.511717 0.868192 0.497132 -0.465527
C27   C     C_2   0.527142 0.066952 0.400138 0.119962
C28   C     C_2   0.502024 0.131108 0.498365 -0.391669
C29   C     C_2   0.544352 0.485259 0.930265 -0.058627
C30   C     C_2   0.542589 0.533009 0.070714 0.105658
C31   C     C_R   0.610214 0.500742 0.500310 0.858360
C32   C     C_R   0.880056 0.490540 0.621862 0.502671
C33   C     C_R   0.878720 0.457746 0.386599 0.500489
C34   C     C_R   0.938288 0.453487 0.383208 0.001154
C35   C     C_R   0.969546 0.469376 0.502697 -0.048307
C36   C     C_R   0.940717 0.487533 0.625542 -0.057127
H1    H     H_    0.943493 0.420993 0.170756 0.183496
H2    H     H_    0.673950 0.297505 0.524415 0.141128
H3    H     H_    0.789975 0.683688 0.481072 0.131654
H4    H     H_    0.530031 0.905842 0.588277 0.171718
H5    H     H_    0.473349 0.086456 0.569307 0.148490
H6    H     H_    0.466964 0.550881 0.892051 0.175301
H7    H     H_    0.047361 0.418983 0.164092 0.188219
H8    H     H_    0.470482 0.442918 0.106234 0.165167
H9    H     H_    0.059093 0.512328 0.826495 0.197024
H10   H     H_    0.211787 0.656464 0.414109 0.157935
H11   H     H_    0.316417 0.671062 0.423039 0.175493
H12   H     H_    0.779270 0.285446 0.526145 0.139848
N1    N     N_R   0.851395 0.476718 0.504039 -0.353679
N2    N     N_R   0.148328 0.465672 0.489392 -0.351508
N3    N     N_2   0.500610 0.501330 0.852150 -0.228640
N4    N     N_2   0.500630 0.501360 0.147810 -0.213699
O1    O     O_R   0.499990 0.319060 0.613040 -0.561474
O2    O     O_2   0.847990 0.443877 0.273393 -0.550140
O3    O     O_2   0.146367 0.433586 0.258240 -0.519415
O4    O     O_2   0.153349 0.499269 0.720104 -0.530531
O5    O     O_R   0.500010 0.319100 0.386900 -0.626354
O6    O     O_R   0.416150 0.499940 0.613100 -0.619145
O7    O     O_R   0.416160 0.499980 0.386960 -0.587894
O8    O     O_R   0.499990 0.680900 0.613100 -0.619891
O9    O     O_R   0.500010 0.680940 0.386960 -0.599239
O10   O     O_R   0.583840 0.500020 0.613040 -0.590527
O11   O     O_R   0.583850 0.500060 0.386900 -0.653850
O12   O     O_2   0.849207 0.507428 0.733212 -0.552402
Zn1   Zn    Zn3+2 0.499990 0.499970 0.650990 0.979159
Zn2   Zn    Zn3+2 0.500010 0.500030 0.349010 0.956167
C37   C     C_3   0.676124 0.736337 0.476859 -0.454845
C38   C     C_3   0.659726 0.786113 0.613440 -0.825091
H13   H     H_    0.627480 0.724799 0.661510 0.269213
H14   H     H_    0.698257 0.791919 0.678558 0.271950
H15   H     H_    0.641010 0.880926 0.602460 0.243632
H16   H     H_    0.705973 0.803772 0.429104 0.215608
H17   H     H_    0.637509 0.732121 0.411928 0.201679
C39   C     C_2   0.476833 0.904219 0.262423 0.958221
O13   O     O_2   0.432086 0.845028 0.268657 -0.617199
O14   O     O_R   0.497071 0.944875 0.138884 -0.831395
H18   H     H_    0.471794 0.916968 0.062343 0.342932
C40   C     C_3   0.572957 0.119729 0.307666 -0.289454
C41   C     C_3   0.624657 0.032586 0.298127 -0.874390
H19   H     H_    0.644081 0.017965 0.398149 0.254058
H20   H     H_    0.611946 0.941088 0.256248 0.273125
H21   H     H_    0.657376 0.074954 0.231858 0.261125
H22   H     H_    0.554493 0.135563 0.206939 0.247270
H23   H     H_    0.589602 0.210446 0.343763 0.202372
C42   C     C_2   0.594777 0.412857 0.885491 0.978334
O15   O     O_2   0.642503 0.435105 0.930095 -0.638250
O16   O     O_R   0.587294 0.314245 0.797046 -0.762638
H24   H     H_    0.624670 0.270852 0.774789 0.328614
C43   C     C_3   0.589503 0.618180 0.120930 -0.293997
C44   C     C_3   0.602115 0.724036 0.022573 -0.853773
H25   H     H_    0.620530 0.687105 0.929118 0.274981
H26   H     H_    0.562255 0.776575 0.998707 0.277582
H27   H     H_    0.633714 0.789085 0.067161 0.251532
H28   H     H_    0.576316 0.662262 0.215134 0.235035
H29   H     H_    0.629255 0.563805 0.140438 0.239793
C45   C     C_3   0.949167 0.519726 0.882655 -0.348408
C46   C     C_3   0.932258 0.655570 0.906045 -0.738392
H30   H     H_    0.901569 0.689720 0.829319 0.282152
H31   H     H_    0.912085 0.664090 0.005449 0.253628
H32   H     H_    0.971022 0.715671 0.903396 0.239969
H33   H     H_    0.913266 0.454712 0.902509 0.257019
H34   H     H_    0.981606 0.494594 0.959751 0.167492
C47   C     C_3   0.337685 0.254362 0.569759 -0.434463
C48   C     C_3   0.342391 0.167770 0.450368 -0.806465
H35   H     H_    0.363680 0.216932 0.366366 0.267898
H36   H     H_    0.368437 0.084595 0.477918 0.250862
H37   H     H_    0.299324 0.135823 0.417810 0.278003
H38   H     H_    0.381636 0.279291 0.601719 0.216144
H39   H     H_    0.319791 0.202893 0.655954 0.256366
C49   C     C_2   0.209684 0.246624 0.567884 0.916036
O17   O     O_2   0.216943 0.199371 0.677794 -0.600762
O18   O     O_R   0.170109 0.194940 0.479182 -0.789286
H40   H     H_    0.150696 0.117888 0.516811 0.349257

loop_
_geom_bond_atom_site_label_1
_geom_bond_atom_site_label_2
_ccdc_geom_bond_type
O16   H24   S    
C45   H34   S    
C35   C36   A    
C8    C45   S    
O5    Zn2   S    
C27   C40   S    
C26   H4    S    
C48   H36   S    
C46   H30   S    
C16   C49   S    
C7    C8    A    
C42   O15   D    
C3    H7    S    
C39   O14   S    
C18   C24   A    
C7    H9    S    
C34   C35   A    
O7    Zn2   S    
N3    Zn1   S    
C5    C6    A    
C33   N1    A    
C15   C16   A    
C28   H5    S    
C24   N1    S    
C18   C19   A    
C8    C36   A    
C23   C26   S    
C43   H28   S    
C1    O1    A    
C49   O17   D    
O18   H40   S    
C12   O7    A    
O9    Zn2   S    
C19   C20   A    
C38   H13   S    
C1    C28   S    
C47   H38   S    
C37   H17   S    
O1    Zn1   S    
C29   C42   S    
H6    N3    S    
C12   O6    A    
C2    C34   A    
O11   Zn2   S    
C21   C22   A    
C21   C37   S    
C31   O10   A    
C30   C43   S    
C40   H22   S    
C48   H35   S    
C46   H31   S    
C42   O16   S    
C23   O8    A    
C25   C39   S    
C39   O13   D    
C37   C38   S    
C31   O11   A    
C37   H16   S    
C45   H33   S    
O14   H18   S    
C32   O12   S    
C41   H20   S    
C40   C41   S    
C16   C17   A    
C25   C26   D    
C43   H29   S    
C29   C30   S    
C19   H2    S    
C1    O5    A    
O6    Zn1   S    
C44   H26   S    
C45   C46   S    
C33   C34   A    
C9    O3    S    
C12   C14   S    
O8    Zn1   S    
C22   C24   A    
C3    C4    A    
C10   N2    A    
C32   C36   A    
C47   C48   S    
C46   H32   S    
C10   O4    S    
C44   H27   S    
C13   H11   S    
C29   N3    D    
C33   O2    S    
C30   N4    D    
C11   C17   A    
O10   Zn1   S    
C9    N2    A    
C4    C5    A    
C18   H12   S    
C17   N2    S    
C6    C10   A    
C41   H21   S    
C6    C7    A    
C25   C27   S    
C47   H39   S    
C2    C3    A    
C4    C9    A    
C11   C13   A    
C2    H1    S    
H8    N4    S    
C44   H25   S    
C38   H15   S    
C22   H3    S    
C5    C35   A    
C49   O18   S    
C32   N1    A    
C41   H19   S    
C40   H23   S    
C23   O9    A    
N4    Zn2   S    
C20   C21   A    
C38   H14   S    
C27   C28   D    
C14   C15   A    
C11   H10   S    
C15   C47   S    
C43   C44   S    
C13   C14   A    
C48   H37   S    
C20   C31   S    
