data_mof_unit_27567.cif
_audit_creation_date              2012-12-10T17:49:32-0500
_audit_creation_method            fapswitch 2.2
_symmetry_space_group_name_H-M    P1
_symmetry_Int_Tables_number       1
_space_group_crystal_system       triclinic
_cell_length_a                    14.714748
_cell_length_b                    15.010549
_cell_length_c                    15.934469
_cell_angle_alpha                 76.036062
_cell_angle_beta                  101.322129
_cell_angle_gamma                 114.357518
_cell_volume                      3092.81185043

loop_
_atom_site_label
_atom_site_type_symbol
_atom_type_description
_atom_site_fract_x
_atom_site_fract_y
_atom_site_fract_z
_atom_type_partial_charge
C1    C     C_R   0.881483 0.313980 0.521409 0.791418
C2    C     C_3   0.072529 0.447025 0.070870 -0.185440
C3    C     C_3   0.006788 0.501497 0.083822 -0.025357
C4    C     C_3   0.044119 0.611787 0.032408 0.132616
C5    C     C_3   0.051224 0.613892 0.935828 0.302868
C6    C     C_1   0.004136 0.497848 0.176750 -0.008771
C7    C     C_1   0.000613 0.506842 0.822996 0.043103
C8    C     C_1   0.999616 0.505042 0.747777 -0.126220
C9    C     C_R   0.818658 0.208723 0.545108 -0.043385
C10   C     C_R   0.192768 0.793024 0.492100 -0.101693
C11   C     C_R   0.802090 0.039622 0.592803 -0.181713
C12   C     C_R   0.999935 0.501594 0.659112 0.804814
C13   C     C_R   0.861731 0.137970 0.566614 -0.181212
C14   C     C_R   0.717248 0.178664 0.554728 -0.210034
C15   C     C_R   0.650887 0.080706 0.560843 0.080846
C16   C     C_R   0.697324 0.010782 0.586606 0.141504
C17   C     C_R   0.542624 0.051966 0.544060 0.046612
C18   C     C_R   0.481777 0.946553 0.544396 -0.133430
C19   C     C_R   0.542480 0.878928 0.573074 -0.133620
C20   C     C_R   0.639985 0.912604 0.605171 -0.169570
C21   C     C_R   0.493568 0.123366 0.519710 -0.006002
C22   C     C_R   0.388461 0.090248 0.504654 -0.183421
C23   C     C_R   0.120723 0.687329 0.488389 0.786258
C24   C     C_R   0.326217 0.991682 0.504078 0.134671
C25   C     C_R   0.367173 0.919187 0.519476 0.026430
C26   C     C_R   0.221779 0.965825 0.485807 -0.158470
C27   C     C_R   0.156339 0.868108 0.480921 -0.199450
C28   C     C_R   0.298835 0.819206 0.511092 -0.029023
C29   C     C_R   0.713971 0.657678 0.345203 -0.296506
C30   C     C_R   0.797668 0.633960 0.374084 0.090149
C31   C     C_R   0.713637 0.509970 0.488482 0.059392
C32   C     C_R   0.627518 0.533847 0.464945 0.008522
C33   C     C_R   0.628589 0.606824 0.389575 0.167788
C34   C     C_R   0.000207 0.498597 0.340872 0.830786
C35   C     C_R   0.540112 0.486314 0.510680 0.063343
C36   C     C_R   0.451633 0.505092 0.474902 0.113656
C37   C     C_R   0.455827 0.573095 0.395500 -0.199313
C38   C     C_R   0.543154 0.626119 0.356560 -0.195921
C39   C     C_R   0.538970 0.421633 0.591065 -0.211186
C40   C     C_R   0.448752 0.359609 0.626270 0.023334
C41   C     C_R   0.358781 0.373173 0.588744 -0.036833
C42   C     C_R   0.362926 0.454348 0.519421 -0.105042
C43   C     C_R   0.266594 0.315112 0.625675 -0.024119
C44   C     C_R   0.198766 0.359019 0.618290 -0.004285
C45   C     C_3   0.067379 0.446319 0.971593 -0.394117
C46   C     C_R   0.277580 0.481363 0.501890 0.595505
C47   C     C_3   0.895700 0.452958 0.944410 0.232374
C48   C     C_3   0.897491 0.447338 0.043617 0.163207
C49   C     C_1   0.002058 0.497174 0.252021 -0.132065
C50   C     C_3   0.003932 0.506291 0.916130 0.012327
Cu1   Cu    Cu3+1 0.081750 0.475690 0.522550 1.025524
Cu2   Cu    Cu3+1 0.918250 0.524310 0.477450 0.966412
H1    H     H_    0.038730 0.367930 0.103539 0.240539
H2    H     H_    0.987819 0.642901 0.035042 0.182851
H3    H     H_    0.673570 0.858651 0.633560 0.161916
H4    H     H_    0.076518 0.851675 0.467683 0.164942
H5    H     H_    0.353847 0.144780 0.489759 0.162430
H6    H     H_    0.836586 0.985211 0.612086 0.146171
H7    H     H_    0.941521 0.158618 0.565936 0.154297
H8    H     H_    0.697331 0.227437 0.577911 0.117880
H9    H     H_    0.026084 0.367530 0.962472 0.206897
H10   H     H_    0.481891 0.868927 0.545958 0.190575
H11   H     H_    0.190098 0.021968 0.474782 0.144645
H12   H     H_    0.541976 0.679001 0.296720 0.153257
H13   H     H_    0.130998 0.318850 0.649642 0.151575
H14   H     H_    0.715487 0.714278 0.287768 0.149094
H15   H     H_    0.863861 0.672092 0.339906 0.132577
H16   H     H_    0.716660 0.449824 0.540617 0.109566
H17   H     H_    0.392114 0.583497 0.356031 0.196522
H18   H     H_    0.606927 0.413217 0.624934 0.157987
H19   H     H_    0.864742 0.375627 0.930324 0.128023
H20   H     H_    0.850195 0.485900 0.053104 0.137571
H21   H     H_    0.132032 0.646052 0.924385 0.099437
N1    N     N_R   0.795410 0.560790 0.443550 -0.187519
N2    N     N_R   0.204590 0.439170 0.556520 -0.196839
O1    O     O_R   0.977910 0.338120 0.529720 -0.609097
O2    O     O_R   0.839850 0.379180 0.491640 -0.575914
O3    O     O_R   0.069060 0.479460 0.639610 -0.556961
O4    O     O_R   0.931000 0.520530 0.601530 -0.584272
O5    O     O_R   0.160150 0.620820 0.508360 -0.521917
O6    O     O_R   0.022090 0.661880 0.470280 -0.596878
O7    O     O_R   0.069000 0.479470 0.398470 -0.509815
O8    O     O_R   0.930940 0.520540 0.360390 -0.586231
C51   C     C_2   0.169177 0.479660 0.939637 0.437614
H22   H     H_    0.225391 0.553561 0.943687 0.063084
O9    O     O_2   0.189286 0.423609 0.909133 -0.493515
C52   C     C_2   0.178337 0.486789 0.115103 0.402260
H23   H     H_    0.228473 0.563061 0.095274 0.112059
O10   O     O_2   0.209538 0.432341 0.172158 -0.506061
C53   C     C_2   0.339579 0.743344 0.516347 0.364196
H24   H     H_    0.383436 0.752522 0.465168 0.022781
O11   O     O_2   0.339222 0.681779 0.582618 -0.505776
C54   C     C_2   0.542541 0.234646 0.502889 0.350707
H25   H     H_    0.584925 0.277243 0.553287 0.045166
O12   O     O_2   0.524532 0.282338 0.432302 -0.508794
O13   O     O_3   0.260323 0.543222 0.427917 -0.710980
H26   H     H_    0.310506 0.609747 0.434595 0.292452
C55   C     C_2   0.450075 0.282067 0.703911 0.367584
H27   H     H_    0.387828 0.215530 0.720859 0.174983
O14   O     O_2   0.523967 0.293130 0.756745 -0.539282
O15   O     O_3   0.834813 0.504351 0.897156 -0.670057
H28   H     H_    0.773354 0.455431 0.870613 0.341564
C56   C     C_2   0.220056 0.205438 0.631484 0.088124
H29   H     H_    0.145918 0.148690 0.654299 0.291236
O16   O     O_2   0.211118 0.144502 0.699508 -0.622274
O17   O     O_3   0.859224 0.347027 0.085261 -0.732916
H30   H     H_    0.793715 0.333322 0.104472 0.342956
O18   O     O_3   0.002036 0.673294 0.880899 -0.656845
H31   H     H_    0.052327 0.728833 0.845487 0.331500
O19   O     O_3   0.138221 0.674956 0.066666 -0.744334
H32   H     H_    0.142178 0.659508 0.131375 0.331998

loop_
_geom_bond_atom_site_label_1
_geom_bond_atom_site_label_2
_ccdc_geom_bond_type
C10   C27   A    
C52   H23   S    
C54   H25   S    
C47   O15   S    
C37   H17   S    
Cu2   O8    S    
C1    O2    A    
C41   C42   A    
C36   C42   A    
C19   C20   A    
C43   C44   A    
C3    C6    S    
C22   H5    S    
C7    C8    T    
C25   C28   A    
C26   C27   A    
O15   H28   S    
C36   C37   A    
C24   C26   A    
Cu2   N1    S    
C40   C55   S    
C30   N1    A    
O17   H30   S    
C19   H10   S    
C15   C16   A    
C12   O4    A    
C29   C33   A    
C3    C48   S    
O18   H31   S    
C18   C19   A    
C42   C46   A    
C9    C13   A    
O19   H32   S    
Cu1   O5    S    
C48   O17   S    
C35   C36   A    
C12   O3    A    
C47   C48   S    
C23   O5    A    
C11   H6    S    
C30   H15   S    
C16   C20   A    
C54   O12   D    
C21   C22   A    
C41   C43   A    
C44   H13   S    
C18   C25   A    
C48   H20   S    
C20   H3    S    
C46   N2    A    
C47   C50   S    
C38   H12   S    
C2    C45   S    
C31   H16   S    
Cu1   Cu2   S    
C32   C35   A    
C1    C9    S    
C24   C25   A    
C39   C40   A    
C9    C14   A    
C27   H4    S    
C31   N1    A    
C17   C21   A    
C44   N2    A    
C35   C39   A    
C26   H11   S    
C37   C38   A    
C11   C16   A    
C53   O11   D    
C31   C32   A    
C8    C12   S    
O13   H26   S    
C17   C18   A    
C2    C52   S    
C56   O16   D    
C51   H22   S    
Cu1   O7    S    
C47   H19   S    
C40   C41   A    
C55   O14   D    
C52   O10   D    
C22   C24   A    
C5    C50   S    
C45   C51   S    
C34   O8    A    
Cu2   O2    S    
Cu2   O4    S    
C56   H29   S    
C10   C28   A    
C15   C17   A    
C4    O19   S    
C34   C49   S    
C23   O6    A    
C4    H2    S    
C1    O1    A    
C7    C50   S    
Cu1   N2    S    
C4    C5    S    
C2    H1    S    
C13   H7    S    
C10   C23   S    
C14   H8    S    
C33   C38   A    
C32   C33   A    
C2    C3    S    
Cu1   O3    S    
C11   C13   A    
C53   H24   S    
C21   C54   S    
C45   C50   S    
C45   H9    S    
C39   H18   S    
C6    C49   T    
C5    H21   S    
Cu2   O6    S    
C43   C56   S    
C29   C30   A    
C29   H14   S    
C46   O13   S    
C55   H27   S    
Cu1   O1    S    
C14   C15   A    
C51   O9    D    
C28   C53   S    
C34   O7    A    
C3    C4    S    
C5    O18   S    
