data_mof_unit_33032.cif
_audit_creation_date              2013-03-05T16:43:17-0500
_audit_creation_method            fapswitch 2.2
_symmetry_space_group_name_H-M    P1
_symmetry_Int_Tables_number       1
_space_group_crystal_system       triclinic
_cell_length_a                    15.741727
_cell_length_b                    10.816542
_cell_length_c                    9.918889
_cell_angle_alpha                 88.484116
_cell_angle_beta                  89.845688
_cell_angle_gamma                 90.994534
_cell_volume                      1688.04586189

loop_
_atom_site_label
_atom_site_type_symbol
_atom_site_description
_atom_site_fract_x
_atom_site_fract_y
_atom_site_fract_z
_atom_type_partial_charge
O1    O     O_R   0.500010 0.316790 0.614690 -0.590027
O2    O     O_R   0.500000 0.316760 0.385350 -0.644279
C1    C     C_R   0.499076 0.260530 0.501205 0.894140
O3    O     O_R   0.377150 0.500020 0.614720 -0.614841
O4    O     O_R   0.377140 0.499990 0.385380 -0.596845
C2    C     C_R   0.338599 0.499664 0.500292 0.907749
Zn1   Zn    Zn3+2 0.500010 0.500020 0.653130 1.004005
Zn2   Zn    Zn3+2 0.499990 0.499980 0.346870 0.955210
O5    O     O_R   0.500000 0.683240 0.614650 -0.581319
O6    O     O_R   0.499990 0.683210 0.385310 -0.673045
O7    O     O_R   0.622860 0.500010 0.614620 -0.594079
O8    O     O_R   0.622850 0.499980 0.385280 -0.626592
C3    C     C_R   0.498927 0.739382 0.497516 0.876053
C4    C     C_R   0.661426 0.500199 0.499789 0.904900
C5    C     C_3   0.050426 0.468048 0.653221 0.152646
C6    C     C_3   0.050390 0.404405 0.402526 -0.389455
C7    C     C_3   0.950843 0.401714 0.396070 -0.089298
H1    H     H_    0.079891 0.425737 0.302864 0.224783
H2    H     H_    0.076984 0.312172 0.424961 0.197833
C8    C     C_1   0.750019 0.500887 0.499523 -0.156545
C9    C     C_3   0.083227 0.500887 0.504506 0.116675
C10   C     C_3   0.948200 0.468683 0.652630 0.201032
C11   C     C_3   0.917235 0.502241 0.500509 0.037926
C12   C     C_3   0.952034 0.638432 0.454224 0.037906
C13   C     C_3   0.053178 0.632446 0.454711 -0.128642
C14   C     C_1   0.825188 0.501559 0.499771 -0.119032
C15   C     C_1   0.174929 0.500058 0.502652 0.004131
C16   C     C_1   0.250049 0.499715 0.501180 -0.130572
H3    H     H_    0.079080 0.700345 0.526432 0.158124
C17   C     C_R   0.496612 0.056456 0.616327 0.037972
C18   C     C_R   0.497998 0.129162 0.499681 -0.129546
C19   C     C_R   0.498379 0.070364 0.374679 -0.186124
H4    H     H_    0.498239 0.124103 0.281025 0.208857
C20   C     C_R   0.495048 0.941810 0.368075 -0.004714
C21   C     C_R   0.497674 0.870854 0.491361 -0.178829
C22   C     C_R   0.500356 0.932995 0.611560 0.058870
C23   C     C_3   0.499513 0.913419 0.761447 -0.182316
C24   C     C_3   0.490799 0.056242 0.767511 -0.088092
H5    H     H_    0.560481 0.876096 0.800135 0.170442
C25   C     C_R   0.425489 0.493764 0.070652 0.187697
N1    N     N_R   0.499430 0.499140 0.142800 -0.174255
C26   C     C_R   0.570506 0.537737 0.070579 -0.032806
C27   C     C_R   0.570957 0.534983 0.925836 0.175655
N2    N     N_R   0.499430 0.499180 0.857150 -0.094939
C28   C     C_R   0.425713 0.495041 0.929413 0.130695
C29   C     C_3   0.354014 0.404943 0.920941 -0.486300
C30   C     C_3   0.352705 0.401207 0.075458 0.012509
H6    H     H_    0.297348 0.447428 0.872972 0.195416
H7    H     H_    0.374524 0.319401 0.874510 0.243546
N3    N     N_3   0.910333 0.348885 0.701377 -0.463663
H8    H     H_    0.917211 0.339641 0.806020 0.221873
H9    H     H_    0.939562 0.271501 0.664515 0.200088
N4    N     N_3   0.087211 0.559305 0.746450 -0.457281
H10   H     H_    0.061063 0.646608 0.737107 0.187209
H11   H     H_    0.078381 0.528478 0.846484 0.225737
N5    N     N_3   0.916280 0.561917 0.745820 -0.452109
H12   H     H_    0.934437 0.540489 0.844929 0.213930
H13   H     H_    0.849848 0.559736 0.747485 0.224502
C31   C     C_2   0.914330 0.679946 0.317516 0.426429
H14   H     H_    0.856159 0.638254 0.280796 0.111967
O9    O     O_2   0.941254 0.771975 0.256250 -0.559939
C32   C     C_2   0.484731 0.889092 0.231936 0.375671
H15   H     H_    0.442874 0.810248 0.216029 0.109891
O10   O     O_2   0.521069 0.936670 0.134211 -0.598010
N6    N     N_3   0.425659 0.839308 0.808417 -0.404175
H16   H     H_    0.370234 0.867161 0.759101 0.222014
H17   H     H_    0.417887 0.852368 0.911723 0.204200
C33   C     C_2   0.405488 0.096782 0.819299 0.441842
H18   H     H_    0.393109 0.093735 0.927001 0.099486
O11   O     O_2   0.349258 0.129144 0.741985 -0.597397
C34   C     C_2   0.566478 0.120167 0.830038 0.431817
H19   H     H_    0.630252 0.096116 0.799494 0.065172
O12   O     O_2   0.557467 0.199299 0.914227 -0.576823
C35   C     C_2   0.641645 0.599012 0.140115 0.450444
H20   H     H_    0.628523 0.668276 0.214051 0.108390
O13   O     O_2   0.715254 0.572968 0.116479 -0.619736
N7    N     N_3   0.082317 0.346412 0.701066 -0.453514
H21   H     H_    0.147614 0.352538 0.719931 0.214811
H22   H     H_    0.074081 0.276494 0.632156 0.192791
N8    N     N_3   0.643458 0.579731 0.851113 -0.383611
H23   H     H_    0.656756 0.671214 0.876784 0.175355
H24   H     H_    0.695442 0.524508 0.875024 0.229176
C36   C     C_2   0.270314 0.448395 0.131314 0.444514
H25   H     H_    0.215436 0.386509 0.139345 0.076892
O14   O     O_2   0.263775 0.555550 0.165268 -0.569909
N9    N     N_3   0.374538 0.279553 0.132466 -0.473911
H26   H     H_    0.436491 0.257546 0.104612 0.233306
H27   H     H_    0.372912 0.283526 0.237508 0.210585
C37   C     C_2   0.915301 0.271876 0.425561 0.364344
H28   H     H_    0.850916 0.259443 0.463658 0.085583
O15   O     O_2   0.955148 0.179666 0.398740 -0.545376
C38   C     C_2   0.918579 0.424882 0.252488 0.386965
H29   H     H_    0.850505 0.424943 0.234649 0.105816
O16   O     O_2   0.965955 0.439976 0.155455 -0.585544
N10   N     N_3   0.094162 0.667371 0.325016 -0.397886
H30   H     H_    0.092874 0.763363 0.309943 0.249029
H31   H     H_    0.064910 0.624792 0.243724 0.259326
N11   N     N_3   0.922638 0.732940 0.548932 -0.436191
H32   H     H_    0.963910 0.745604 0.629215 0.192224
H33   H     H_    0.921689 0.821081 0.502759 0.231416

loop_
_geom_bond_atom_site_label_1
_geom_bond_atom_site_label_2
_geom_bond_distance
_ccdc_geom_bond_type
C25   C30   1.508191 S    
C6    C9    1.555453 S    
N1    C26   1.379480 A    
C21   C22   1.384441 A    
C5    N7    1.483050 S    
C28   C29   1.482350 S    
Zn1   O7    1.970227 S    
C29   H7    1.097538 S    
C7    C11   1.616150 S    
C35   O13   1.220788 D    
C12   N11   1.485417 S    
C5    N4    1.481921 S    
C22   C23   1.496158 S    
C23   C24   1.556030 S    
C3    C21   1.422255 S    
C12   C31   1.540778 S    
O4    C2    1.289666 A    
Zn2   O6    2.028138 S    
O7    C4    1.289175 A    
N9    H27   1.044187 S    
C20   C32   1.487846 S    
N5    H12   1.045732 S    
C17   C24   1.502062 S    
C20   C21   1.427530 A    
C11   C14   1.448912 S    
O5    C3    1.296942 A    
C32   O10   1.221494 D    
C29   C30   1.532165 S    
C5    C10   1.609369 S    
C2    C16   1.393944 S    
N10   H30   1.045649 S    
C33   H18   1.084936 S    
N6    H17   1.045219 S    
C23   N6    1.468420 S    
N3    H9    1.036661 S    
C11   C12   1.617333 S    
C30   C36   1.511187 S    
C37   O15   1.222240 D    
C10   N3    1.485507 S    
N7    H22   1.039409 S    
C9    C15   1.443799 S    
C31   H14   1.081993 S    
C7    C38   1.529207 S    
O3    Zn1   1.972203 S    
N4    H11   1.046496 S    
C13   H3    1.109296 S    
C25   C28   1.400638 A    
C29   H6    1.112748 S    
C31   O9    1.221379 D    
C26   C35   1.473648 S    
C35   H20   1.084164 S    
C30   N9    1.465185 S    
C4    C8    1.394499 S    
C7    C37   1.523498 S    
C12   C13   1.594637 S    
O3    C2    1.288555 A    
C34   O12   1.221258 D    
N9    H26   1.046025 S    
C6    C7    1.568323 S    
C10   N5    1.479291 S    
C27   N8    1.429486 S    
N7    H21   1.046563 S    
O1    C1    1.293692 A    
C19   C20   1.393876 A    
C27   N2    1.372909 A    
C32   H15   1.083742 S    
C36   H25   1.085097 S    
Zn2   O8    1.972203 S    
C38   O16   1.221786 D    
N3    H8    1.046195 S    
Zn1   N2    2.023427 S    
Zn2   N1    2.024451 S    
C1    C18   1.421232 S    
N8    H24   1.045560 S    
C25   N1    1.369177 A    
C36   O14   1.221490 D    
C24   C33   1.512711 S    
C13   N10   1.474853 S    
N11   H33   1.047060 S    
C26   C27   1.436788 A    
N2    C28   1.361750 A    
Zn1   O5    2.008291 S    
C9    C13   1.574839 S    
C24   C34   1.509980 S    
O1    Zn1   2.028138 S    
C18   C19   1.408413 A    
O2    Zn2   2.008291 S    
O8    C4    1.289426 A    
N8    H23   1.046065 S    
O6    C3    1.282242 A    
O4    Zn2   1.970225 S    
N10   H31   1.043358 S    
N4    H10   1.038669 S    
C17   C22   1.339823 A    
C19   H4    1.082731 S    
O2    C1    1.285809 A    
C34   H19   1.085781 S    
C23   H5    1.112921 S    
C17   C18   1.381566 A    
C8    C14   1.183200 T    
C6    H2    1.106043 S    
C38   H29   1.086587 S    
N5    H13   1.045684 S    
N6    H16   1.046367 S    
C5    C9    1.590746 S    
C6    H1    1.108075 S    
N11   H32   1.039452 S    
C15   C16   1.182636 T    
C33   O11   1.222426 D    
C10   C11   1.620862 S    
C37   H28   1.085649 S    
