data_mof_unit_40626.cif
_audit_creation_date              2013-03-05T16:06:48-0500
_audit_creation_method            fapswitch 2.2
_symmetry_space_group_name_H-M    P1
_symmetry_Int_Tables_number       1
_space_group_crystal_system       triclinic
_cell_length_a                    10.830996
_cell_length_b                    9.512722
_cell_length_c                    19.445285
_cell_angle_alpha                 89.974671
_cell_angle_beta                  90.143412
_cell_angle_gamma                 89.983157
_cell_volume                      2003.48498289

loop_
_atom_site_label
_atom_site_type_symbol
_atom_site_description
_atom_site_fract_x
_atom_site_fract_y
_atom_site_fract_z
_atom_type_partial_charge
O1    O     O_R   0.319640 0.618740 0.500000 -0.610318
O2    O     O_R   0.680360 0.381260 0.500000 -0.610286
O3    O     O_R   0.680360 0.618740 0.500000 -0.563424
O4    O     O_R   0.319640 0.381260 0.500000 -0.563608
C1    C     C_R   0.871789 0.499971 0.500046 -0.002020
C2    C     C_R   0.128211 0.500028 0.499916 -0.002012
C3    C     C_R   0.262043 0.500026 0.499933 0.869259
C4    C     C_R   0.737957 0.499974 0.500044 0.869520
O5    O     O_R   0.500020 0.618830 0.400190 -0.560437
O6    O     O_R   0.499980 0.381170 0.599810 -0.560635
O7    O     O_R   0.499980 0.618830 0.599810 -0.561421
O8    O     O_R   0.500020 0.381170 0.400190 -0.561193
C5    C     C_R   0.499982 0.500030 0.367823 0.918712
C6    C     C_R   0.500038 0.499970 0.632173 0.919890
Cu1   Cu    Cu3+1 0.500000 0.640660 0.500000 1.034701
Cu2   Cu    Cu3+1 0.500000 0.359340 0.500000 1.034699
H1    H     H_    0.359595 0.130692 0.424198 0.172616
H2    H     H_    0.640397 0.869305 0.575808 0.172080
H3    H     H_    0.640348 0.130471 0.575838 0.137536
H4    H     H_    0.359652 0.869529 0.424161 0.137557
C7    C     C_R   0.063911 0.372260 0.499910 -0.080693
C8    C     C_R   0.936088 0.627739 0.500048 -0.080613
C9    C     C_R   0.936196 0.372233 0.499994 -0.165658
C10   C     C_R   0.063804 0.627766 0.499965 -0.165660
H5    H     H_    0.112008 0.272398 0.499850 0.165426
H6    H     H_    0.887992 0.727601 0.500109 0.165473
H7    H     H_    0.888189 0.272350 0.500011 0.159070
H8    H     H_    0.111811 0.727650 0.499949 0.159040
C11   C     C_R   0.418234 0.410890 0.744032 0.302249
C12   C     C_R   0.581372 0.589634 0.255946 0.302495
C13   C     C_R   0.418574 0.410473 0.255803 0.311406
C14   C     C_R   0.582060 0.588872 0.744192 0.310715
C15   C     C_R   0.420842 0.410439 0.815895 -0.200481
C16   C     C_R   0.578788 0.590001 0.184082 -0.200616
C17   C     C_R   0.421064 0.409983 0.183950 -0.197665
C18   C     C_R   0.579525 0.589349 0.816052 -0.197601
H9    H     H_    0.357091 0.343780 0.843747 0.182738
H10   H     H_    0.642225 0.657062 0.156237 0.182573
H11   H     H_    0.357629 0.342814 0.156016 0.182575
H12   H     H_    0.643298 0.656018 0.844031 0.183015
C19   C     C_R   0.500191 0.499899 0.852106 -0.027990
C20   C     C_R   0.499900 0.499986 0.147871 -0.027695
C21   C     C_R   0.422046 0.074504 0.457898 0.017590
C22   C     C_R   0.577952 0.925495 0.542104 0.017004
C23   C     C_R   0.577937 0.074371 0.542111 0.009860
C24   C     C_R   0.422064 0.925629 0.457888 0.010420
C25   C     C_R   0.500111 0.499901 0.707609 -0.272871
C26   C     C_R   0.499969 0.500083 0.292381 -0.272901
C27   C     C_R   0.502482 0.627362 0.964138 -0.155901
C28   C     C_R   0.497605 0.372510 0.035816 -0.155921
C29   C     C_R   0.502329 0.627383 0.035748 -0.156431
C30   C     C_R   0.497709 0.372495 0.964205 -0.156395
H13   H     H_    0.502653 0.726927 0.937095 0.150245
H14   H     H_    0.497483 0.272930 0.062845 0.150208
H15   H     H_    0.502376 0.726981 0.062718 0.149993
H16   H     H_    0.497616 0.272912 0.937220 0.150035
N1    N     N_R   0.500000 0.852070 0.500000 -0.177602
N2    N     N_R   0.500000 0.147930 0.500000 -0.177692
C31   C     C_R   0.499909 0.499956 0.072131 0.138421
C32   C     C_R   0.500160 0.499920 0.927833 0.138264
N3    N     N_R   0.328664 0.324744 0.709203 0.139127
O9    O     O_R   0.262454 0.376719 0.659385 -0.367321
O10   O     O_R   0.299579 0.202099 0.734011 -0.332560
N4    N     N_R   0.670487 0.676403 0.290762 0.139249
O11   O     O_R   0.737146 0.624814 0.340493 -0.367175
O12   O     O_R   0.698734 0.799350 0.266014 -0.332444
N5    N     N_R   0.329614 0.323672 0.290485 0.126470
O13   O     O_R   0.262217 0.375640 0.339613 -0.386662
O14   O     O_R   0.302686 0.199794 0.266304 -0.349194
N6    N     N_R   0.671650 0.674902 0.709526 0.126527
O15   O     O_R   0.737892 0.622742 0.659972 -0.386783
O16   O     O_R   0.700636 0.797691 0.734225 -0.348879

loop_
_geom_bond_atom_site_label_1
_geom_bond_atom_site_label_2
_geom_bond_distance
_ccdc_geom_bond_type
C20   C31   1.472782 S    
O4    Cu2   1.964515 S    
C5    C26   1.467000 S    
C14   N6    1.438388 S    
H3    C23   1.081741 S    
C2    C3    1.449526 S    
O1    Cu1   1.964637 S    
C9    H7    1.083266 S    
C1    C4    1.449527 S    
O2    Cu2   1.964637 S    
C29   H15   1.083116 S    
C1    C9    1.400965 A    
C22   N1    1.366893 A    
C15   C19   1.398782 A    
N4    O11   1.301203 A    
H1    C21   1.081619 S    
O5    Cu1   1.952004 S    
C2    C10   1.400966 A    
O8    Cu2   1.951821 S    
C11   N3    1.438423 S    
O6    Cu2   1.952002 S    
O8    C5    1.293804 A    
C13   N5    1.438139 S    
Cu1   N1    2.011085 S    
N4    O12   1.301359 A    
C18   C19   1.398866 A    
C28   H14   1.083116 S    
C27   C32   1.403354 A    
C30   H16   1.083131 S    
C11   C25   1.417064 A    
O4    C3    1.290415 A    
C27   H13   1.083132 S    
C28   C31   1.403479 A    
C14   C18   1.397690 A    
C8    C10   1.383293 A    
C12   C26   1.417049 A    
C14   C25   1.417035 A    
C6    C25   1.466878 S    
Cu2   N2    2.011086 S    
C12   N4    1.438383 S    
C13   C26   1.416891 A    
C7    C9    1.383293 A    
C24   N1    1.366904 A    
C8    H6    1.083290 S    
N3    O9    1.301174 A    
C21   C24   1.416204 A    
C13   C17   1.397536 A    
C23   N2    1.366907 A    
C28   C30   1.392502 A    
C29   C31   1.403543 A    
Cu1   Cu2   2.676119 S    
C12   C16   1.397633 A    
O5    C5    1.293798 A    
N5    O13   1.301376 A    
C11   C15   1.397612 A    
H2    C22   1.081642 S    
C18   H12   1.083518 S    
N6    O15   1.301201 A    
O3    Cu1   1.964515 S    
C22   C23   1.416209 A    
C15   H9    1.083519 S    
O3    C4    1.290418 A    
O6    C6    1.293757 A    
N5    O14   1.301851 A    
O7    C6    1.293775 A    
N3    O10   1.301373 A    
C17   C20   1.399005 A    
C7    H5    1.083290 S    
N6    O16   1.301361 A    
C30   C32   1.403424 A    
C21   N2    1.366893 A    
O1    C3    1.290307 A    
C16   H10   1.083522 S    
C2    C7    1.400986 A    
O7    Cu1   1.951819 S    
O2    C4    1.290303 A    
C1    C8    1.400985 A    
C10   H8    1.083266 S    
C19   C32   1.472532 S    
C17   H11   1.083545 S    
C27   C29   1.392488 A    
H4    C24   1.081740 S    
C16   C20   1.398953 A    
