data_mof_unit_19122.cif
_audit_creation_date              2012-12-11T16:56:11-0500
_audit_creation_method            fapswitch 2.2
_symmetry_space_group_name_H-M    P1
_symmetry_Int_Tables_number       1
_space_group_crystal_system       triclinic
_cell_length_a                    7.02556
_cell_length_b                    14.501573
_cell_length_c                    16.20475
_cell_angle_alpha                 90.426205
_cell_angle_beta                  89.636577
_cell_angle_gamma                 89.877036
_cell_volume                      1650.88415271

loop_
_atom_site_label
_atom_site_type_symbol
_atom_type_description
_atom_site_fract_x
_atom_site_fract_y
_atom_site_fract_z
_atom_type_partial_charge
O1    O     O_R   0.505830 0.583360 0.413880 -0.524741
O2    O     O_R   0.175830 0.595460 0.585520 -0.557723
O3    O     O_R   0.005520 0.416640 0.586120 -0.563406
C1    C     C_R   0.343827 0.617201 0.614439 0.691959
O4    O     O_R   0.176120 0.594390 0.414490 -0.541433
O5    O     O_R   0.005810 0.415570 0.413870 -0.527458
C2    C     C_R   0.345188 0.616632 0.386515 0.770368
O6    O     O_R   0.505540 0.584430 0.586130 -0.532512
O7    O     O_3   0.339200 0.441330 0.500000 -0.349045
V1    V     V_3+5 0.064350 0.510880 0.500000 1.488204
O8    O     O_R   0.676100 0.404540 0.414480 -0.509714
C3    C     C_R   0.845304 0.381914 0.386537 0.749990
O9    O     O_R   0.675810 0.405610 0.585510 -0.508503
C4    C     C_R   0.844236 0.383133 0.613025 0.770159
V2    V     V_3+5 0.564340 0.489120 0.500000 1.588117
O10   O     O_3   0.839360 0.558670 0.500000 -0.374294
C5    C     C_2   0.728719 0.195051 0.776326 -0.207842
C6    C     C_2   0.886987 0.179479 0.820861 -0.366365
H1    H     H_    0.601990 0.155504 0.790852 0.157046
H2    H     H_    0.019921 0.213105 0.805790 0.129208
C7    C     C_2   0.714474 0.259339 0.704454 0.508119
C8    C     C_2   0.855402 0.318473 0.683307 -0.382606
H3    H     H_    0.983459 0.322813 0.719713 0.065424
C9    C     C_R   0.725950 0.245086 0.192126 0.026310
C10   C     C_R   0.880717 0.184301 0.184076 -0.091584
C11   C     C_R   0.026355 0.190908 0.243167 -0.128776
H4    H     H_    0.146370 0.144087 0.240587 0.145077
C12   C     C_R   0.011656 0.253786 0.309616 -0.060493
H5    H     H_    0.116028 0.253562 0.357478 0.194767
C13   C     C_R   0.856947 0.314086 0.317606 -0.091189
C14   C     C_R   0.713667 0.306908 0.258685 0.078339
C15   C     C_3   0.510492 0.284255 0.273609 0.420198
C16   C     C_3   0.519663 0.221587 0.198261 -0.428185
H6    H     H_    0.438408 0.247748 0.144629 0.185284
H7    H     H_    0.495350 0.147497 0.211900 0.184153
C17   C     C_R   0.522511 0.730692 0.701878 0.074733
C18   C     C_R   0.352330 0.687431 0.681871 -0.049639
C19   C     C_R   0.196619 0.706297 0.733465 -0.176294
H8    H     H_    0.069743 0.668408 0.724714 0.115489
C20   C     C_R   0.210666 0.766737 0.801548 -0.172667
H9    H     H_    0.092204 0.773360 0.843893 0.129324
C21   C     C_R   0.380908 0.813324 0.818735 -0.071933
C22   C     C_R   0.536131 0.795689 0.766138 0.051436
C23   C     C_3   0.724384 0.758139 0.790503 -0.473439
C24   C     C_3   0.699688 0.682764 0.725745 0.321882
H10   H     H_    0.727425 0.733108 0.855214 0.189447
H11   H     H_    0.835805 0.808815 0.773917 0.147600
H12   H     H_    0.798103 0.681145 0.671847 0.073795
C25   C     C_R   0.518338 0.690507 0.267926 0.087001
C26   C     C_R   0.354740 0.682575 0.316877 -0.066680
C27   C     C_R   0.200093 0.739525 0.297221 -0.151782
H13   H     H_    0.075806 0.738831 0.335860 0.180528
C28   C     C_R   0.210671 0.802913 0.231937 -0.152939
H14   H     H_    0.092145 0.849001 0.221934 0.140768
C29   C     C_R   0.377322 0.811247 0.183817 -0.083591
C30   C     C_R   0.528483 0.751625 0.201721 0.059346
C31   C     C_3   0.729080 0.776269 0.220666 -0.434150
C32   C     C_3   0.715480 0.712871 0.294608 0.092440
H15   H     H_    0.745872 0.850507 0.236668 0.206338
H16   H     H_    0.828087 0.750281 0.171995 0.152113
H17   H     H_    0.811048 0.651799 0.290621 0.109320
O11   O     O_R   0.229930 0.912420 0.917160 -0.540678
O12   O     O_R   0.559420 0.902500 0.088780 -0.538778
O13   O     O_R   0.729660 0.081330 0.089380 -0.536434
C33   C     C_R   0.390335 0.880904 0.117299 0.697561
O14   O     O_R   0.559650 0.901420 0.917750 -0.539115
O15   O     O_R   0.729880 0.080250 0.917130 -0.536921
C34   C     C_R   0.391493 0.879332 0.889204 0.696392
O16   O     O_R   0.229700 0.913500 0.089410 -0.543781
O17   O     O_3   0.396250 0.055540 0.003280 -0.371802
V3    V     V_3+5 0.671130 0.986010 0.003260 1.416657
O18   O     O_R   0.059600 0.091310 0.917720 -0.543076
C35   C     C_R   0.891482 0.112380 0.889187 0.778016
O19   O     O_R   0.059370 0.092380 0.088750 -0.544700
C36   C     C_R   0.890175 0.114293 0.117168 0.702737
V4    V     V_3+5 0.171120 0.007820 0.003230 1.409517
O20   O     O_3   0.896130 0.938240 0.003240 -0.376128
O21   O     O_3   0.653620 0.596175 0.760647 -0.540861
C37   C     C_3   0.820221 0.546986 0.779513 -0.245328
H18   H     H_    0.905927 0.584017 0.826675 0.139879
H19   H     H_    0.905654 0.532342 0.723013 0.118108
H20   H     H_    0.778804 0.479638 0.806122 0.157052
Br1   Br    Br    0.720285 0.781012 0.399289 -0.546798
O22   O     O_3   0.557075 0.251584 0.653771 -0.525673
C38   C     C_3   0.397680 0.290470 0.694308 -0.157186
H21   H     H_    0.426210 0.361993 0.716572 0.114932
H22   H     H_    0.348882 0.246508 0.746105 0.097197
H23   H     H_    0.280085 0.294421 0.649230 0.175084
Br2   Br    Br    0.354488 0.394047 0.261435 -0.592056
Br3   Br    Br    0.477897 0.215589 0.376430 -0.529114

loop_
_geom_bond_atom_site_label_1
_geom_bond_atom_site_label_2
_ccdc_geom_bond_type
O14   C34   A    
C29   C30   A    
O12   C33   A    
O18   V4    S    
C28   H14   S    
C11   H4    S    
O19   V4    S    
C12   H5    S    
O5    C3    A    
C13   C14   A    
C31   H15   S    
V2    O10   S    
C30   C31   S    
O16   V4    S    
O13   V3    S    
C16   H7    S    
O8    V2    S    
O22   C38   S    
C15   Br3   S    
C15   Br2   S    
O17   V3    S    
O15   C35   A    
O7    V1    S    
O15   V3    S    
C23   H11   S    
C1    O6    A    
C32   H17   S    
C20   C21   A    
O9    C4    A    
C21   C34   S    
O11   V4    S    
C29   C33   S    
C23   H10   S    
C26   C27   A    
C28   C29   A    
O19   C36   A    
C38   H22   S    
C27   H13   S    
C9    C10   A    
O4    C2    A    
O21   C37   S    
C31   H16   S    
C24   H12   S    
C10   C11   A    
C38   H21   S    
C5    C7    S    
C25   C32   S    
C10   C36   S    
O2    C1    A    
C22   C23   S    
C18   C19   A    
O14   V3    S    
C7    O22   S    
C5    C6    D    
C17   C24   S    
V4    O20   S    
C24   O21   S    
O3    C4    A    
O1    V2    S    
C20   H9    S    
O12   V3    S    
O6    V2    S    
O9    V2    S    
O17   V4    S    
C21   C22   A    
O2    V1    S    
V3    O20   S    
C23   C24   S    
C37   H19   S    
C38   H23   S    
C17   C18   A    
C3    C13   S    
O1    C2    A    
C14   C15   S    
C2    C26   S    
O18   C35   A    
O5    V1    S    
C37   H20   S    
O8    C3    A    
C6    C35   S    
C25   C30   A    
C11   C12   A    
C9    C16   S    
O11   C34   A    
C15   C16   S    
C4    C8    S    
C12   C13   A    
O7    V2    S    
C9    C14   A    
O4    V1    S    
O3    V1    S    
V1    O10   S    
C32   Br1   S    
C19   C20   A    
C31   C32   S    
C19   H8    S    
C33   O16   A    
C5    H1    S    
O13   C36   A    
C16   H6    S    
C6    H2    S    
C37   H18   S    
C1    C18   S    
C25   C26   A    
C8    H3    S    
C17   C22   A    
C27   C28   A    
C7    C8    D    
