data_mof_unit_20874.cif
_audit_creation_date              2012-10-26T20:25:39-0400
_audit_creation_method            fapswitch 2.2
_symmetry_space_group_name_H-M    P1
_symmetry_Int_Tables_number       1
_space_group_crystal_system       triclinic
_cell_length_a                    23.535938
_cell_length_b                    10.605459
_cell_length_c                    9.43093
_cell_angle_alpha                 90.301659
_cell_angle_beta                  89.758961
_cell_angle_gamma                 90.252715
_cell_volume                      2353.97289226

loop_
_atom_site_label
_atom_site_type_symbol
_atom_type_description
_atom_site_fract_x
_atom_site_fract_y
_atom_site_fract_z
_atom_type_partial_charge
C1    C     C_R   0.499963 0.259467 0.499566 0.538225
C2    C     C_R   0.701256 0.535751 0.618062 -0.187201
C3    C     C_R   0.239387 0.465959 0.381374 -0.072734
C4    C     C_R   0.760378 0.536818 0.619073 -0.075125
C5    C     C_R   0.209178 0.506955 0.500868 0.213486
C6    C     C_R   0.790811 0.495729 0.499995 0.219566
C7    C     C_3   0.546921 0.043058 0.565273 -0.125965
C8    C     C_3   0.453080 0.956940 0.434730 -0.125729
C9    C     C_3   0.546459 0.957988 0.431601 -0.127502
C10   C     C_3   0.453543 0.042010 0.568402 -0.127298
C11   C     C_3   0.500038 0.877498 0.501275 0.045356
C12   C     C_R   0.500038 0.740533 0.500434 0.538042
C13   C     C_3   0.499963 0.122501 0.498727 0.045523
C14   C     C_3   0.500501 0.960260 0.635077 -0.115850
C15   C     C_3   0.499500 0.039738 0.364926 -0.115669
C16   C     C_R   0.391087 0.502520 0.500577 0.555366
C17   C     C_R   0.608912 0.497668 0.499442 0.555356
C18   C     C_3   0.542605 0.559898 0.048624 0.244488
C19   C     C_3   0.457396 0.440101 0.951378 0.244454
C20   C     C_3   0.497964 0.614665 0.949884 -0.025010
C21   C     C_3   0.502037 0.385335 0.050117 -0.025006
C22   C     C_3   0.545725 0.446565 0.948364 -0.004572
C23   C     C_R   0.238481 0.549950 0.620618 -0.056317
C24   C     C_3   0.454275 0.553435 0.051636 -0.004600
C25   C     C_R   0.879369 0.612370 0.504254 0.395927
C26   C     C_R   0.120285 0.391544 0.497054 0.406746
C27   C     C_R   0.880735 0.387258 0.497783 0.396234
C28   C     C_R   0.119425 0.616505 0.506208 0.394102
C29   C     C_R   0.940171 0.387024 0.498390 0.004012
C30   C     C_R   0.059916 0.617266 0.507079 -0.004921
C31   C     C_R   0.969868 0.502608 0.502144 -0.063600
C32   C     C_R   0.030023 0.502124 0.503350 -0.069829
C33   C     C_R   0.939543 0.618170 0.504841 0.036947
C34   C     C_R   0.761752 0.451810 0.380275 -0.053887
C35   C     C_R   0.060256 0.386747 0.500988 0.052075
C36   C     C_R   0.970123 0.273192 0.497545 -0.121224
C37   C     C_R   0.030089 0.731052 0.511213 -0.088885
C38   C     C_R   0.029459 0.271407 0.501531 0.126619
C39   C     C_R   0.970836 0.733532 0.509963 0.126468
C40   C     C_3   0.634608 0.661166 0.010502 -0.322848
C41   C     C_3   0.365433 0.338683 0.989571 -0.322147
C42   C     C_3   0.068764 0.112487 0.652703 -0.255028
C43   C     C_3   0.932470 0.902942 0.653210 -0.274919
C44   C     C_3   0.346238 0.730228 0.729439 -0.274209
C45   C     C_R   0.297970 0.552857 0.621987 0.116571
C46   C     C_3   0.654367 0.270007 0.271583 -0.275154
C47   C     C_R   0.702255 0.448128 0.378576 0.115793
C48   C     C_R   0.328511 0.508025 0.502045 0.026880
C49   C     C_R   0.671495 0.492942 0.498169 0.026916
C50   C     C_R   0.298527 0.466150 0.382077 -0.186330
Cu1   Cu    Cu3+1 0.500010 0.499990 0.643150 0.938905
Cu2   Cu    Cu3+1 0.499990 0.500010 0.356850 0.939206
H1    H     H_    0.947483 0.184040 0.496611 0.158827
H2    H     H_    0.678760 0.570452 0.710549 0.120140
H3    H     H_    0.216931 0.433097 0.288156 0.137145
H4    H     H_    0.782657 0.570428 0.712229 0.131431
H5    H     H_    0.584434 0.920371 0.375714 0.105349
H6    H     H_    0.415567 0.079625 0.624291 0.105660
H7    H     H_    0.585291 0.081668 0.618402 0.107114
H8    H     H_    0.414710 0.918329 0.381602 0.108097
H9    H     H_    0.500878 0.925094 0.745741 0.105064
H10   H     H_    0.499122 0.074902 0.254261 0.105153
H11   H     H_    0.577071 0.704173 0.171014 0.257827
H12   H     H_    0.052801 0.820152 0.514426 0.169805
H13   H     H_    0.668645 0.713652 0.067078 0.147831
H14   H     H_    0.617816 0.721269 0.924186 0.130299
H15   H     H_    0.653495 0.574198 0.964812 0.143493
H16   H     H_    0.422929 0.295885 0.828904 0.257915
H17   H     H_    0.331381 0.286243 0.932997 0.148138
H18   H     H_    0.346554 0.425582 0.035443 0.143511
H19   H     H_    0.382265 0.278487 0.075755 0.131066
H20   H     H_    0.037568 0.082550 0.450844 0.254467
H21   H     H_    0.092110 0.021747 0.650108 0.164478
H22   H     H_    0.028378 0.099188 0.712254 0.112817
H23   H     H_    0.497165 0.710716 0.903838 0.093528
H24   H     H_    0.095356 0.183495 0.708892 0.182124
H25   H     H_    0.914487 0.871134 0.437204 0.302556
H26   H     H_    0.916384 0.000845 0.645248 0.156245
H27   H     H_    0.971562 0.904026 0.718782 0.134255
H28   H     H_    0.899735 0.843856 0.706302 0.188253
H29   H     H_    0.304655 0.587603 0.837528 0.239694
H30   H     H_    0.309511 0.795183 0.720569 0.139441
H31   H     H_    0.373892 0.740607 0.634446 0.158857
H32   H     H_    0.371457 0.756970 0.824295 0.130289
H33   H     H_    0.695868 0.412544 0.163148 0.239595
H34   H     H_    0.502836 0.289284 0.096162 0.093606
H35   H     H_    0.691177 0.205363 0.281117 0.139067
H36   H     H_    0.629332 0.242717 0.176615 0.130323
H37   H     H_    0.626582 0.259782 0.366355 0.158639
H38   H     H_    0.583972 0.402499 0.900288 0.099732
H39   H     H_    0.416027 0.597499 0.099709 0.099918
H40   H     H_    0.214791 0.582523 0.712397 0.121892
H41   H     H_    0.785626 0.419167 0.288830 0.122704
H42   H     H_    0.320855 0.431549 0.289291 0.120454
N1    N     N_R   0.851789 0.498500 0.500562 -0.393770
N2    N     N_2   0.674002 0.398826 0.256902 -0.477287
N3    N     N_R   0.148202 0.504971 0.500991 -0.401941
N4    N     N_3   0.500040 0.499970 0.858290 -0.236389
N5    N     N_3   0.499960 0.500030 0.141710 -0.236461
N6    N     N_2   0.589825 0.628969 0.109189 -0.466647
N7    N     N_2   0.410174 0.371025 0.890826 -0.467062
N8    N     N_2   0.057215 0.152646 0.509301 -0.452170
N9    N     N_2   0.944894 0.854396 0.512920 -0.515989
N10   N     N_2   0.326435 0.601495 0.743684 -0.477060
O1    O     O_R   0.500030 0.316850 0.620870 -0.513802
O2    O     O_2   0.150820 0.284419 0.488824 -0.466081
O3    O     O_2   0.851880 0.276941 0.496003 -0.513606
O4    O     O_2   0.148461 0.726565 0.508850 -0.508338
O5    O     O_R   0.499970 0.683150 0.379130 -0.513756
O6    O     O_R   0.500000 0.316860 0.379090 -0.513538
O7    O     O_R   0.500000 0.683140 0.620910 -0.513706
O8    O     O_R   0.417890 0.499960 0.620920 -0.435279
O9    O     O_R   0.582110 0.500040 0.379080 -0.435276
O10   O     O_R   0.417870 0.499970 0.379140 -0.521909
O11   O     O_R   0.582130 0.500030 0.620860 -0.522089
O12   O     O_2   0.848149 0.718495 0.506801 -0.516348

loop_
_geom_bond_atom_site_label_1
_geom_bond_atom_site_label_2
_ccdc_geom_bond_type
C28   N3    A    
Cu1   O8    S    
C22   N4    S    
C27   C29   A    
C24   N5    S    
C27   N1    A    
C34   H41   S    
C44   H31   S    
C26   O2    S    
C44   N10   S    
C17   O9    A    
C47   C49   A    
C46   H37   S    
Cu2   O9    S    
C43   H26   S    
C29   C36   A    
C16   O8    A    
C33   C39   A    
C23   C45   A    
C45   N10   S    
C44   H30   S    
C21   N5    S    
H33   N2    S    
C43   H27   S    
C36   H1    S    
C3    H3    S    
C19   N4    S    
C7    C14   S    
C20   C24   S    
C40   H15   S    
C47   N2    S    
C31   C33   A    
C27   O3    S    
C9    H5    S    
C41   H19   S    
Cu1   N4    S    
C48   C50   A    
C40   H14   S    
C21   C22   S    
C4    H4    S    
C16   C48   S    
C18   N6    S    
C42   N8    S    
C7    H7    S    
C12   O5    A    
C3    C50   A    
C46   H36   S    
C37   C39   A    
C42   H22   S    
Cu1   Cu2   S    
C32   C35   A    
C35   C38   A    
H16   N7    S    
C4    C6    A    
C2    H2    S    
C25   O12   S    
C17   C49   S    
C50   H42   S    
C3    C5    A    
C43   H28   S    
C14   H9    S    
Cu1   O11   S    
C6    C34   A    
C30   C37   A    
C2    C4    A    
H11   N6    S    
C2    C49   A    
C1    O6    A    
C31   C32   A    
C5    C23   A    
Cu2   O6    S    
Cu1   O1    S    
C22   H38   S    
C46   N2    S    
C9    C11   S    
C5    N3    S    
C25   N1    A    
C8    C15   S    
C40   H13   S    
C13   C15   S    
C10   C14   S    
H25   N9    S    
C1    C13   S    
C18   N5    S    
C24   H39   S    
C37   H12   S    
C17   O11   A    
C41   H17   S    
C46   H35   S    
C45   C48   A    
C7    C9    S    
C21   H34   S    
C42   H21   S    
Cu1   O7    S    
C10   H6    S    
C18   C22   S    
C44   H32   S    
C10   C13   S    
C16   O10   A    
C40   N6    S    
C11   C12   S    
C39   N9    S    
Cu2   O10   S    
Cu2   N5    S    
C42   H24   S    
C28   C30   A    
C19   C24   S    
C9    C15   S    
C29   C31   A    
C8    H8    S    
C30   C32   A    
C19   N7    S    
H20   N8    S    
Cu2   O5    S    
C28   O4    S    
C8    C11   S    
C36   C38   A    
C11   C14   S    
C15   H10   S    
C41   N7    S    
C18   C20   S    
C38   N8    S    
C43   N9    S    
C26   N3    A    
C26   C35   A    
C7    C13   S    
C20   N4    S    
C20   H23   S    
C8    C10   S    
C6    N1    S    
C1    O1    A    
C23   H40   S    
C34   C47   A    
C12   O7    A    
C25   C33   A    
C41   H18   S    
C19   C21   S    
H29   N10   S    
