data_mof_unit_53293.cif
_audit_creation_date              2012-12-10T17:46:26-0500
_audit_creation_method            fapswitch 2.2
_symmetry_space_group_name_H-M    P1
_symmetry_Int_Tables_number       1
_space_group_crystal_system       triclinic
_cell_length_a                    20.798155
_cell_length_b                    21.185278
_cell_length_c                    14.733793
_cell_angle_alpha                 90.013087
_cell_angle_beta                  127.762061
_cell_angle_gamma                 90.030459
_cell_volume                      5132.25923688

loop_
_atom_site_label
_atom_site_type_symbol
_atom_type_description
_atom_site_fract_x
_atom_site_fract_y
_atom_site_fract_z
_atom_type_partial_charge
C1    C     C_R   0.603723 0.914515 0.632637 0.807388
C2    C     C_R   0.655199 0.237409 0.058374 -0.207333
C3    C     C_R   0.743206 0.790190 0.989328 0.068884
C4    C     C_R   0.246147 0.708003 0.992183 0.065266
C5    C     C_R   0.753824 0.292005 0.007795 0.065262
C6    C     C_R   0.797244 0.740218 0.058101 0.067316
C7    C     C_R   0.202774 0.259809 0.941937 0.067312
C8    C     C_R   0.350294 0.783469 0.035368 -0.209175
C9    C     C_R   0.649774 0.216467 0.964719 -0.209185
C10   C     C_R   0.700540 0.820714 0.023499 -0.217264
C11   C     C_R   0.299399 0.179259 0.976452 -0.217249
C12   C     C_R   0.794359 0.323932 0.971472 -0.217082
C13   C     C_R   0.706014 0.799734 0.117196 -0.219582
C14   C     C_R   0.205542 0.676118 0.028435 -0.217080
C15   C     C_R   0.150230 0.283308 0.964796 -0.215847
C16   C     C_R   0.849838 0.716760 0.035303 -0.215850
C17   C     C_2   0.231116 0.004684 0.597236 0.808099
C18   C     C_2   0.768882 0.995282 0.402765 0.808087
C19   C     C_2   0.733154 0.476351 0.598335 0.806114
C20   C     C_2   0.266843 0.523667 0.401664 0.806111
C21   C     C_R   0.293912 0.200228 0.882741 -0.219589
C22   C     C_R   0.788170 0.303419 0.876927 -0.189388
C23   C     C_R   0.211709 0.696646 0.122955 -0.189377
C24   C     C_R   0.154888 0.261760 0.057524 -0.217171
C25   C     C_R   0.845201 0.738325 0.942601 -0.217171
C26   C     C_R   0.320907 0.004846 0.664040 -0.118361
C27   C     C_R   0.679093 0.995146 0.335960 -0.118311
C28   C     C_R   0.821542 0.488797 0.664378 -0.117610
C29   C     C_R   0.396280 0.085487 0.367366 0.807390
C30   C     C_R   0.178457 0.511212 0.335622 -0.117606
C31   C     C_R   0.352170 0.003073 0.602666 0.015059
C32   C     C_R   0.647829 0.996918 0.397334 0.015067
C33   C     C_R   0.852424 0.493932 0.602816 0.015775
C34   C     C_R   0.147575 0.506073 0.397184 0.015775
C35   C     C_R   0.487240 0.997760 0.774801 -0.002640
C36   C     C_R   0.512761 0.002248 0.225199 -0.002641
C37   C     C_R   0.987289 0.501918 0.774780 -0.002212
C38   C     C_R   0.012712 0.498080 0.225220 -0.002200
C39   C     C_R   0.460691 0.999452 0.844000 -0.035877
C40   C     C_R   0.397850 0.913179 0.369319 0.806047
C41   C     C_R   0.539311 0.000559 0.156001 -0.035877
C42   C     C_R   0.960928 0.498510 0.844114 -0.035254
C43   C     C_R   0.039072 0.501492 0.155886 -0.035264
C44   C     C_R   0.375705 0.004996 0.786083 0.075836
C45   C     C_R   0.624296 0.995012 0.213918 0.075808
C46   C     C_R   0.875934 0.492837 0.786181 0.075244
C47   C     C_R   0.124067 0.507169 0.213819 0.075228
C48   C     C_R   0.515351 0.997018 0.967864 0.091487
C49   C     C_R   0.484652 0.002997 0.032137 0.091504
C50   C     C_R   0.015619 0.500739 0.968006 0.092794
C51   C     C_R   0.602150 0.086822 0.630679 0.806029
C52   C     C_R   0.984382 0.499263 0.031995 0.092814
C53   C     C_R   0.400425 0.012227 0.970417 -0.253687
C54   C     C_R   0.599579 0.987792 0.029584 -0.253713
C55   C     C_R   0.899402 0.496267 0.969855 -0.259367
C56   C     C_R   0.100599 0.503739 0.030146 -0.259388
C57   C     C_R   0.347678 0.013088 0.851130 -0.156152
C58   C     C_R   0.652326 0.986930 0.148872 -0.156156
C59   C     C_R   0.846942 0.493269 0.850729 -0.160994
C60   C     C_R   0.153059 0.506740 0.149272 -0.160945
C61   C     C_R   0.654785 0.140739 0.697440 -0.056744
C62   C     C_R   0.102324 0.413363 0.630894 0.806702
C63   C     C_R   0.345205 0.859268 0.302544 -0.056756
C64   C     C_R   0.333495 0.131408 0.288314 -0.059111
C65   C     C_R   0.666520 0.868606 0.711708 -0.059121
C66   C     C_R   0.166894 0.631212 0.712122 -0.055989
C67   C     C_R   0.833116 0.368778 0.287886 -0.055980
C68   C     C_R   0.844136 0.639855 0.301309 -0.058206
C69   C     C_R   0.155858 0.360142 0.698684 -0.058197
C70   C     C_R   0.740721 0.227677 0.725212 -0.174289
C71   C     C_R   0.259174 0.772383 0.274677 -0.174281
C72   C     C_R   0.219842 0.198534 0.228977 -0.180890
C73   C     C_R   0.897675 0.586636 0.369105 0.806704
C74   C     C_R   0.780244 0.801542 0.771137 -0.180887
C75   C     C_R   0.279145 0.699700 0.769559 -0.176985
C76   C     C_R   0.720938 0.300227 0.230538 -0.176976
C77   C     C_R   0.754583 0.724573 0.269819 -0.181596
C78   C     C_R   0.245352 0.275389 0.730119 -0.181608
C79   C     C_R   0.696215 0.173757 0.665051 -0.184144
C80   C     C_R   0.303711 0.826286 0.334867 -0.184134
C81   C     C_R   0.279373 0.155469 0.306260 -0.174857
C82   C     C_R   0.720689 0.844584 0.693819 -0.174866
C83   C     C_R   0.219656 0.656465 0.692499 -0.179387
C84   C     C_R   0.896156 0.414576 0.367209 0.807011
C85   C     C_R   0.780402 0.343485 0.307566 -0.179401
C86   C     C_R   0.800682 0.671606 0.331574 -0.174981
C87   C     C_R   0.199272 0.328365 0.668378 -0.174984
C88   C     C_R   0.658736 0.161826 0.790507 -0.241825
C89   C     C_R   0.341294 0.838156 0.209522 -0.241835
C90   C     C_R   0.326634 0.149903 0.191731 -0.250709
C91   C     C_R   0.673355 0.850093 0.808263 -0.250712
C92   C     C_R   0.175323 0.648476 0.810444 -0.248428
C93   C     C_R   0.824658 0.351536 0.189533 -0.248418
C94   C     C_R   0.840689 0.661268 0.208830 -0.246109
C95   C     C_R   0.103844 0.585423 0.632790 0.807017
C96   C     C_R   0.159332 0.338749 0.791194 -0.246097
C97   C     C_R   0.699879 0.217600 0.849010 0.089371
C98   C     C_R   0.300113 0.782400 0.150984 0.089360
C99   C     C_R   0.265382 0.191484 0.110441 0.091763
C100  C     C_R   0.734629 0.808535 0.889585 0.091760
C101  C     C_R   0.236433 0.690398 0.891283 0.092489
C102  C     C_R   0.763568 0.309593 0.108722 0.092483
C103  C     C_R   0.797869 0.716171 0.148710 0.091769
C104  C     C_R   0.202130 0.283838 0.851301 0.091771
C105  C     C_R   0.743083 0.249724 0.817019 0.155790
C106  C     C_R   0.344890 0.762510 0.941737 -0.207344
C107  C     C_R   0.256841 0.750317 0.182904 0.155816
C108  C     C_R   0.213057 0.217264 0.132139 0.159334
C109  C     C_R   0.787004 0.782795 0.867948 0.159332
C110  C     C_R   0.287172 0.717510 0.867733 0.161159
C111  C     C_R   0.712885 0.282436 0.132337 0.161156
C112  C     C_R   0.752652 0.746971 0.178581 0.160561
C113  C     C_R   0.247303 0.253007 0.821382 0.160563
C114  C     C_R   0.700887 0.241217 0.940174 0.067902
C115  C     C_R   0.299125 0.758763 0.059847 0.067905
C116  C     C_R   0.256782 0.209815 0.010676 0.068884
Cu1   Cu    Cu3+1 0.526640 0.000000 0.436960 0.942999
Cu2   Cu    Cu3+1 0.473360 0.000000 0.563040 0.943002
Cu3   Cu    Cu3+1 0.026640 0.500000 0.436960 0.943080
Cu4   Cu    Cu3+1 0.973360 0.500000 0.563040 0.943081
H1    H     H_    0.385063 0.782721 0.925830 0.149259
H2    H     H_    0.627092 0.980140 0.987972 0.130568
H3    H     H_    0.870747 0.496802 0.010765 0.132500
H4    H     H_    0.129254 0.503208 0.989236 0.132512
H5    H     H_    0.369866 0.866807 0.182977 0.150654
H6    H     H_    0.630222 0.133145 0.817105 0.150625
H7    H     H_    0.628550 0.867413 0.816573 0.151455
H8    H     H_    0.371406 0.132551 0.183378 0.151445
H9    H     H_    0.868174 0.370020 0.179457 0.150686
H10   H     H_    0.131773 0.630022 0.820474 0.150698
H11   H     H_    0.129146 0.366548 0.816107 0.150142
H12   H     H_    0.615071 0.217161 0.074334 0.149278
H13   H     H_    0.870907 0.633489 0.183944 0.150158
H14   H     H_    0.306240 0.841752 0.407062 0.161261
H15   H     H_    0.693654 0.158310 0.592820 0.161257
H16   H     H_    0.716660 0.858604 0.619792 0.168176
H17   H     H_    0.283425 0.141466 0.380313 0.168158
H18   H     H_    0.785636 0.356564 0.382922 0.159268
H19   H     H_    0.214447 0.643367 0.617168 0.159269
H20   H     H_    0.197213 0.344126 0.596718 0.165695
H21   H     H_    0.802719 0.655829 0.403210 0.165706
H22   H     H_    0.318448 0.719663 0.751902 0.141014
H23   H     H_    0.672490 0.824497 0.140650 0.149492
H24   H     H_    0.681678 0.280228 0.248246 0.141012
H25   H     H_    0.720811 0.748285 0.293803 0.142409
H26   H     H_    0.279091 0.251655 0.706100 0.142404
H27   H     H_    0.772879 0.252406 0.699520 0.146385
H28   H     H_    0.226964 0.747683 0.300313 0.146360
H29   H     H_    0.179366 0.217502 0.245237 0.143497
H30   H     H_    0.820761 0.782608 0.754926 0.143510
H31   H     H_    0.397130 0.817878 0.089077 0.146223
H32   H     H_    0.602965 0.182033 0.911046 0.146232
H33   H     H_    0.664170 0.862366 0.981671 0.139827
H34   H     H_    0.327402 0.175443 0.859252 0.149491
H35   H     H_    0.335738 0.137591 0.018250 0.139815
H36   H     H_    0.829482 0.366305 0.012283 0.143399
H37   H     H_    0.170375 0.633768 0.987585 0.143399
H38   H     H_    0.102848 0.317158 0.910477 0.146886
H39   H     H_    0.897242 0.682932 0.089658 0.146884
H40   H     H_    0.284287 0.022054 0.810646 0.185117
H41   H     H_    0.715719 0.977972 0.189358 0.185106
H42   H     H_    0.782571 0.492829 0.809783 0.187062
H43   H     H_    0.217429 0.507185 0.190219 0.187061
H44   H     H_    0.449360 0.003915 0.188175 0.126327
H45   H     H_    0.820027 0.329229 0.851753 0.167109
H46   H     H_    0.550641 0.996096 0.811824 0.126323
H47   H     H_    0.949567 0.493835 0.188554 0.124868
H48   H     H_    0.050434 0.506157 0.811446 0.124870
H49   H     H_    0.688532 0.996498 0.490287 0.154759
H50   H     H_    0.311467 0.003482 0.509713 0.154798
H51   H     H_    0.188042 0.509198 0.489968 0.154041
H52   H     H_    0.811957 0.490810 0.510032 0.154045
H53   H     H_    0.132934 0.969698 0.577399 0.342865
H54   H     H_    0.867087 0.030282 0.422676 0.342858
H55   H     H_    0.644521 0.425725 0.582502 0.343694
H56   H     H_    0.179798 0.670868 0.148073 0.167023
H57   H     H_    0.355467 0.574307 0.417495 0.343691
H58   H     H_    0.113588 0.280999 0.072079 0.148667
H59   H     H_    0.886541 0.719117 0.928097 0.148655
H60   H     H_    0.372913 0.019884 0.012030 0.130551
N1    N     N_R   0.433280 1.000000 0.657760 -0.186351
N2    N     N_R   0.566720 0.000000 0.342240 -0.186349
N3    N     N_R   0.933280 0.500000 0.657760 -0.186250
N4    N     N_R   0.066720 0.500000 0.342240 -0.186253
O1    O     O_R   0.600040 0.935040 0.546740 -0.584260
O2    O     O_R   0.444990 0.064930 0.346780 -0.589116
O3    O     O_R   0.444990 0.935070 0.346780 -0.586074
O4    O     O_R   0.555010 0.064930 0.653220 -0.586068
O5    O     O_R   0.055010 0.435070 0.653220 -0.587090
O6    O     O_R   0.944990 0.564930 0.346780 -0.587092
O7    O     O_R   0.944990 0.435070 0.346780 -0.588407
O8    O     O_R   0.055010 0.564930 0.653220 -0.588409
O9    O     O_2   0.188916 0.036405 0.509866 -0.598068
O10   O     O_R   0.194419 0.966134 0.630794 -0.761349
O11   O     O_2   0.811059 0.963509 0.490070 -0.598070
O12   O     O_R   0.399960 0.064960 0.453260 -0.584256
O13   O     O_R   0.805601 0.033864 0.369281 -0.761337
O14   O     O_2   0.684306 0.504399 0.508265 -0.590756
O15   O     O_R   0.705888 0.430409 0.635790 -0.777333
O16   O     O_2   0.315696 0.495623 0.491737 -0.590763
O17   O     O_R   0.294101 0.569615 0.364206 -0.777278
O18   O     O_R   0.399960 0.935040 0.453260 -0.584926
O19   O     O_R   0.600040 0.064960 0.546740 -0.584925
O20   O     O_R   0.100040 0.435040 0.546740 -0.581227
O21   O     O_R   0.899960 0.564960 0.453260 -0.581228
O22   O     O_R   0.899960 0.435040 0.453260 -0.588080
O23   O     O_R   0.100040 0.564960 0.546740 -0.588084
O24   O     O_R   0.555010 0.935070 0.653220 -0.589113

loop_
_geom_bond_atom_site_label_1
_geom_bond_atom_site_label_2
_ccdc_geom_bond_type
C78   C87   A    
C7    C116  A    
C32   H49   S    
C9    H32   S    
C17   C26   S    
C55   C59   A    
C5    C114  A    
C68   C86   A    
C41   C45   A    
C4    C115  A    
Cu2   O24   S    
C51   C61   S    
Cu3   O6    S    
C64   C90   A    
C87   H20   S    
C3    C6    A    
C35   H46   S    
C74   C109  A    
C83   H19   S    
C17   O10   S    
C26   C44   A    
C40   O3    A    
C20   C30   S    
C81   H17   S    
C99   C108  A    
C28   C46   A    
C40   C63   S    
C91   H7    S    
Cu4   O21   S    
C56   H4    S    
C32   N2    A    
C75   H22   S    
C74   C82   A    
C20   O17   S    
C13   C112  A    
C71   C107  A    
Cu1   O2    S    
Cu4   O8    S    
C54   C58   A    
C35   C39   A    
C46   C59   A    
C43   C52   A    
C75   C110  A    
C62   O20   A    
C37   N3    A    
C12   C22   A    
C60   H43   S    
C38   N4    A    
C29   O2    A    
C84   O7    A    
C42   C46   A    
C37   C42   A    
C1    O24   A    
C20   O16   D    
C88   H6    S    
C51   O4    A    
C8    C115  A    
C47   C60   A    
C22   H45   S    
C17   O9    D    
C3    C100  A    
C72   C108  A    
H54   O13   S    
C33   N3    A    
C50   C52   A    
C21   H34   S    
C34   N4    A    
C24   C108  A    
C91   C100  A    
C62   O5    A    
Cu2   O12   S    
C72   C81   A    
C69   C87   A    
C52   C55   A    
C11   H35   S    
C97   C105  A    
C27   C45   A    
C7    C15   A    
C71   H28   S    
C66   C83   A    
C29   C64   S    
C100  C109  A    
C31   N1    A    
C16   H39   S    
C82   H16   S    
C102  C111  A    
Cu2   O18   S    
C12   H36   S    
C93   H9    S    
C10   H33   S    
C41   C49   A    
C71   C80   A    
C51   O19   A    
C37   H48   S    
Cu1   O19   S    
C63   C80   A    
C95   O23   A    
C38   H47   S    
C2    C111  A    
C55   H3    S    
C45   C58   A    
C67   C85   A    
C30   C34   A    
C14   H37   S    
C30   C47   A    
C8    H31   S    
C15   H38   S    
C21   C113  A    
Cu1   O3    S    
C99   C116  A    
Cu2   O4    S    
Cu1   N2    S    
C66   C92   A    
C23   H56   S    
C101  C110  A    
C10   C13   A    
C68   C94   A    
C98   C107  A    
C56   C60   A    
C62   C69   S    
C103  C112  A    
C14   C23   A    
C48   C54   A    
C77   C112  A    
C92   H10   S    
C11   C116  A    
C61   C88   A    
C80   H14   S    
C2    H12   S    
C44   C57   A    
C58   H41   S    
C23   C107  A    
C4    C101  A    
C63   C89   A    
C18   O13   S    
C69   C96   A    
C6    C103  A    
C19   C28   S    
H55   O15   S    
C95   O8    A    
C42   C50   A    
C96   H11   S    
C92   C101  A    
C15   C24   A    
C57   H40   S    
C40   O18   A    
C28   C33   A    
C1    O1    A    
C7    C104  A    
C96   C104  A    
C24   H58   S    
H57   O17   S    
C1    C65   S    
C78   C113  A    
C36   N2    A    
C9    C114  A    
C78   H26   S    
C29   O12   A    
C53   H60   S    
C76   H24   S    
C90   C99   A    
C66   C95   S    
C36   H44   S    
C106  C110  A    
Cu2   N1    S    
C16   C25   A    
C65   C91   A    
C73   O21   A    
C5    C102  A    
C48   C49   A    
C19   O14   D    
C53   C57   A    
C18   O11   D    
C18   C27   S    
C73   O6    A    
Cu3   O7    S    
C70   C105  A    
C8    C106  A    
C93   C102  A    
C77   C86   A    
Cu3   Cu4   S    
C25   H59   S    
C59   H42   S    
C39   C44   A    
C31   H50   S    
C25   C109  A    
C35   N1    A    
C22   C105  A    
C79   H15   S    
C94   C103  A    
C19   O15   S    
C89   C98   A    
C89   H5    S    
Cu4   O22   S    
C68   C73   S    
C88   C97   A    
C38   C43   A    
C3    C10   A    
Cu1   O1    S    
Cu1   Cu2   S    
C33   H52   S    
C75   C83   A    
C65   C82   A    
C70   C79   A    
C77   H25   S    
C67   C84   S    
C94   H13   S    
C61   C79   A    
C76   C111  A    
C49   C53   A    
C54   H2    S    
C106  H1    S    
C11   C21   A    
C98   C115  A    
Cu3   N4    S    
C13   H23   S    
C4    C14   A    
Cu4   N3    S    
C50   C56   A    
C64   C81   A    
C5    C12   A    
C27   C32   A    
C6    C16   A    
C104  C113  A    
C84   O22   A    
C26   C31   A    
Cu3   O23   S    
C72   H29   S    
Cu3   O20   S    
C36   C41   A    
H53   O10   S    
C67   C93   A    
C90   H8    S    
C74   H30   S    
C70   H27   S    
C85   H18   S    
C97   C114  A    
Cu4   O5    S    
C2    C9    A    
C43   C47   A    
C76   C85   A    
C34   H51   S    
C86   H21   S    
C39   C48   A    
