data_mof_unit_66828.cif
_audit_creation_date              2013-03-05T15:41:46-0500
_audit_creation_method            fapswitch 2.2
_symmetry_space_group_name_H-M    P1
_symmetry_Int_Tables_number       1
_space_group_crystal_system       triclinic
_cell_length_a                    8.376059
_cell_length_b                    15.30908
_cell_length_c                    15.088832
_cell_angle_alpha                 98.624974
_cell_angle_beta                  99.179531
_cell_angle_gamma                 98.109289
_cell_volume                      1861.28212319

loop_
_atom_site_label
_atom_site_type_symbol
_atom_site_description
_atom_site_fract_x
_atom_site_fract_y
_atom_site_fract_z
_atom_type_partial_charge
P1    P     P_3+3 0.004200 0.709230 0.580350 0.474258
O1    O     O_2   0.174080 0.723060 0.553930 -0.371469
O2    O     O_3   0.901570 0.609580 0.550840 -0.352814
O3    O     O_3   0.370350 0.665080 0.388270 -0.396337
O4    O     O_2   0.284613 0.817461 0.446691 -0.368401
O5    O     O_3   0.020222 0.723299 0.700262 -0.679416
O6    O     O_3   0.353638 0.802390 0.284122 -0.538502
H1    H     H_    0.289620 0.669789 0.219678 0.153387
C1    C     C_3   0.347839 0.756263 0.125598 -0.855444
H2    H     H_    0.373249 0.702663 0.074241 0.236634
H3    H     H_    0.218174 0.765035 0.106780 0.255007
P2    P     P_3+3 0.305000 0.425570 0.290900 0.493355
P3    P     P_3+3 0.885327 0.605114 0.222480 0.453422
O7    O     O_2   0.134790 0.452800 0.278150 -0.379072
O8    O     O_3   0.937650 0.618620 0.340860 -0.376350
O9    O     O_2   0.987487 0.539440 0.180199 -0.393847
O10   O     O_3   0.268098 0.308016 0.257761 -0.623600
O11   O     O_3   0.954754 0.704821 0.186977 -0.540496
C2    C     C_3   0.902820 0.777196 0.236908 0.278791
H4    H     H_    0.998597 0.805637 0.298441 0.085973
H5    H     H_    0.784577 0.758042 0.259461 0.016834
C3    C     C_3   0.882088 0.847787 0.175951 0.325062
H6    H     H_    0.999973 0.865559 0.151914 0.037176
C4    C     C_3   0.747732 0.331395 0.254450 0.247527
H7    H     H_    0.621671 0.346024 0.244491 0.065234
H8    H     H_    0.830672 0.393630 0.291297 0.130646
C5    C     C_3   0.802451 0.303845 0.163294 -0.330162
H9    H     H_    0.935442 0.312295 0.180589 0.179595
Ba1   Ba    Ba6+2 0.154730 0.543770 0.458180 1.580483
C6    C     C_3   0.177656 0.737964 0.755324 0.908518
H10   H     H_    0.273178 0.733981 0.713259 0.020781
C7    C     C_3   0.210717 0.831585 0.816852 0.066609
H11   H     H_    0.344286 0.856216 0.829052 0.072609
H12   H     H_    0.145008 0.878139 0.780891 0.036801
C8    C     C_3   0.220393 0.279253 0.161592 1.087883
H13   H     H_    0.159117 0.328824 0.129381 -0.036418
C9    C     C_3   0.365919 0.267888 0.113512 -1.154449
H14   H     H_    0.319607 0.233717 0.042059 0.290576
H15   H     H_    0.445019 0.226728 0.148405 0.257063
H16   H     H_    0.438723 0.333097 0.111385 0.224350
P4    P     P_3+3 0.806080 0.290760 0.419570 0.514280
O12   O     O_2   0.636200 0.276890 0.446040 -0.359552
O13   O     O_3   0.908720 0.390410 0.449080 -0.401071
O14   O     O_3   0.439930 0.334910 0.611650 -0.380861
O15   O     O_3   0.751990 0.258896 0.301249 -0.568639
P5    P     P_3+3 0.917900 0.389977 0.778298 0.471110
O16   O     O_3   0.402060 0.547860 0.609750 -0.380958
O17   O     O_3   0.872630 0.381370 0.659060 -0.351556
O18   O     O_2   0.797070 0.445141 0.818567 -0.406567
O19   O     O_3   0.858442 0.283044 0.802268 -0.520515
Ba2   Ba    Ba6+2 0.655430 0.456220 0.541750 1.598175
P6    P     P_3+3 0.412280 0.780801 0.394562 0.447466
C10   C     C_3   0.377998 0.731296 0.220063 0.437518
H17   H     H_    0.505344 0.717714 0.234913 0.031656
H18   H     H_    0.429159 0.819905 0.124757 0.277479
O20   O     O_3   0.408220 0.452130 0.390170 -0.351934
C11   C     C_3   0.635913 0.735619 0.695782 0.327822
H19   H     H_    0.707813 0.689925 0.661642 0.123420
H20   H     H_    0.547220 0.752488 0.641060 0.064471
C12   C     C_3   0.756650 0.819664 0.746706 -0.595674
H21   H     H_    0.852118 0.799861 0.795235 0.223963
H22   H     H_    0.816101 0.853698 0.697747 0.150465
P7    P     P_3+3 0.504933 0.579842 0.724333 0.479418
O21   O     O_2   0.675490 0.547140 0.721820 -0.381257
O22   O     O_3   0.551441 0.696736 0.757394 -0.580201
C13   C     C_3   0.980754 0.231774 0.786463 0.357281
H23   H     H_    0.008964 0.232178 0.716836 0.036828
H24   H     H_    0.093233 0.258889 0.838522 0.080953
C14   C     C_3   0.924741 0.135002 0.796643 -0.601275
H25   H     H_    0.026719 0.096601 0.791049 0.186423
H26   H     H_    0.890398 0.133414 0.864594 0.198985
P8    P     P_3+3 0.389525 0.219471 0.607460 0.491643
C15   C     C_3   0.442134 0.269002 0.781544 0.376109
H27   H     H_    0.315672 0.283451 0.767468 -0.045334
O23   O     O_2   0.497196 0.175753 0.545754 -0.375897
O24   O     O_3   0.467371 0.199558 0.715767 -0.535956
H28   H     H_    0.530310 0.330805 0.783481 0.100157
C16   C     C_3   0.467886 0.241728 0.875039 0.116747
H29   H     H_    0.454071 0.299351 0.925778 0.068396
H30   H     H_    0.595697 0.228842 0.894342 0.119632
C17   C     C_R   0.165003 0.174343 0.562275 0.043569
C18   C     C_R   0.087316 0.087279 0.566960 -0.081468
C19   C     C_R   0.960337 0.898126 0.547415 -0.063722
C20   C     C_R   0.120320 0.939123 0.597620 0.019861
C21   C     C_R   0.174050 0.031098 0.610897 -0.201898
C22   C     C_R   0.896118 0.802103 0.531442 0.150167
H31   H     H_    0.295405 0.057603 0.649928 0.183330
C23   C     C_R   0.735580 0.774219 0.480745 -0.376650
C24   C     C_R   0.912034 0.202761 0.473843 0.111208
C25   C     C_R   0.836247 0.112821 0.475399 -0.080094
C26   C     C_R   0.926701 0.052981 0.518225 0.030720
C27   C     C_R   0.676843 0.079352 0.430477 -0.084108
C28   C     C_R   0.601215 0.991998 0.429799 -0.023326
C29   C     C_R   0.692776 0.927414 0.464214 -0.054921
C30   C     C_R   0.859245 0.958996 0.510332 0.030488
C31   C     C_R   0.629808 0.833498 0.451924 0.129810
C32   C     C_R   0.082494 0.222064 0.502435 0.189522
H32   H     H_    0.607285 0.121359 0.393974 0.155729
C33   C     C_R   0.228804 0.481338 0.768108 0.289401
C34   C     C_R   0.133561 0.444680 0.826345 0.051257
C35   C     C_R   0.198553 0.455498 0.919926 -0.388824
C36   C     C_R   0.357741 0.505600 0.957373 0.124209
C37   C     C_R   0.451959 0.538641 0.895150 -0.324514
C38   C     C_R   0.389150 0.525790 0.801848 0.212854
C39   C     C_R   0.592362 0.562597 0.093462 -0.253014
C40   C     C_R   0.666818 0.560968 0.182332 0.254337
C41   C     C_R   0.412305 0.486505 0.212846 0.253942
C42   C     C_R   0.335407 0.490165 0.123213 -0.337792
C43   C     C_R   0.427584 0.520887 0.059042 0.095816
C44   C     C_R   0.579202 0.519349 0.239587 -0.481976
H33   H     H_    0.670091 0.592866 0.052325 0.148292
H34   H     H_    0.121042 0.425868 0.961828 0.170779
H35   H     H_    0.205998 0.465740 0.103764 0.165140
H36   H     H_    0.573314 0.577135 0.916531 0.147564
H37   H     H_    0.643961 0.508230 0.303315 0.148621
C45   C     C_1   0.740890 0.209338 0.121623 0.267778
N1    N     N_1   0.693500 0.134871 0.089250 -0.098356
C46   C     C_1   0.763165 0.359719 0.094964 0.052743
N2    N     N_1   0.734456 0.401959 0.038811 -0.064570
O25   O     O_3   0.193697 0.672036 0.811578 -0.653795
C47   C     C_3   0.044701 0.639916 0.838232 0.045106
H38   H     H_    0.971827 0.586820 0.783272 0.188296
H39   H     H_    0.968650 0.691719 0.853853 0.124511
H40   H     H_    0.072978 0.611685 0.901207 0.118425
O26   O     O_3   0.160136 0.826987 0.901385 -0.582607
C48   C     C_3   0.194156 0.912475 0.956727 -0.234361
H41   H     H_    0.120094 0.958970 0.926107 0.141364
H42   H     H_    0.327469 0.940168 0.970270 0.151310
H43   H     H_    0.159132 0.906076 0.023584 0.151586
O27   O     O_3   0.101650 0.199309 0.142305 -0.648588
C49   C     C_3   0.168899 0.121626 0.156631 -0.270545
H44   H     H_    0.272387 0.134215 0.215539 0.127540
H45   H     H_    0.209806 0.092231 0.093964 0.166991
H46   H     H_    0.071479 0.071088 0.170107 0.166370
C50   C     C_1   0.682570 0.884857 0.800697 0.175073
N3    N     N_1   0.628890 0.937616 0.844882 -0.131964
C51   C     C_1   0.852431 0.930361 0.228955 -0.036645
N4    N     N_1   0.829749 0.996036 0.270117 -0.080727
C52   C     C_1   0.784002 0.091232 0.725350 0.252613
N5    N     N_1   0.673068 0.056231 0.669306 -0.059576
O28   O     O_3   0.344721 0.168988 0.876774 -0.614541
C53   C     C_3   0.404815 0.087408 0.864970 -0.187223
H47   H     H_    0.473649 0.077644 0.930864 0.145098
H48   H     H_    0.483313 0.082623 0.812259 0.171410
H49   H     H_    0.299064 0.032285 0.841395 0.133967
C54   C     C_1   0.253948 0.895797 0.627847 0.091448
N6    N     N_1   0.371335 0.868150 0.652447 -0.112710
C55   C     C_1   0.427580 0.977561 0.393409 0.202245
N7    N     N_1   0.288726 0.969623 0.364221 -0.081621
C56   C     C_1   0.677331 0.680242 0.458012 0.206246
N8    N     N_1   0.630668 0.604144 0.440771 0.001688
O29   O     O_3   0.173922 0.268948 0.451736 -0.612978
C57   C     C_3   0.211325 0.204434 0.383937 0.047348
H50   H     H_    0.218259 0.136730 0.401543 0.035353
H51   H     H_    0.335496 0.227416 0.371562 0.191456
H52   H     H_    0.115151 0.194817 0.322113 0.147681
O30   O     O_3   0.157270 0.484087 0.679953 -0.632078
C58   C     C_3   0.170515 0.404365 0.623965 0.355443
H53   H     H_    0.189423 0.347879 0.660319 -0.152320
H54   H     H_    0.247705 0.415621 0.573577 0.176396
H55   H     H_    0.059136 0.379882 0.576943 0.127906
O31   O     O_3   0.744948 0.814917 0.104620 -0.606961
C59   C     C_3   0.794740 0.797231 0.019617 -0.147450
H56   H     H_    0.882945 0.749260 0.020232 0.151348
H57   H     H_    0.848713 0.860579 0.000090 0.137877
H58   H     H_    0.685176 0.766200 0.966896 0.177744

loop_
_geom_bond_atom_site_label_1
_geom_bond_atom_site_label_2
_geom_bond_distance
_ccdc_geom_bond_type
C14   C52   1.467039 S    
C13   H24   1.110269 S    
C23   C31   1.421207 A    
C35   C36   1.423577 A    
P2    Ba1   3.393500 S    
P4    O12   1.533248 D    
P4    C24   1.925991 S    
C2    H4    1.112539 S    
C4    C5    1.536705 S    
P8    O24   1.747654 S    
C49   H46   1.108063 S    
O13   Ba2   2.932285 S    
P7    O22   1.754040 S    
C17   C18   1.415341 A    
C11   H19   1.107775 S    
C27   H32   1.079786 S    
C50   N3    1.155692 T    
C10   H17   1.109730 S    
C45   N1    1.157267 T    
C35   H34   1.077453 S    
C3    C51   1.465641 S    
C48   H41   1.112073 S    
C6    O25   1.419878 S    
P3    O11   1.746216 S    
O3    P6    1.741906 S    
O1    Ba1   2.873624 S    
C4    O15   1.403553 S    
C59   H57   1.111850 S    
C4    H8    1.109340 S    
O6    P6    1.754211 S    
Ba2   O20   2.816391 S    
C9    H16   1.101631 S    
O16   P7    1.767239 S    
C6    H10   1.100420 S    
C3    O31   1.418156 S    
C16   H30   1.116766 S    
C11   H20   1.105774 S    
C13   C14   1.527635 S    
C42   C43   1.423910 A    
C28   C55   1.443494 S    
C12   H22   1.106692 S    
P1    O1    1.532895 D    
C15   H27   1.106562 S    
C14   H26   1.110947 S    
C46   N2    1.156320 T    
C34   C35   1.405971 A    
C47   H40   1.107273 S    
P5    C34   1.860979 S    
C58   H55   1.060478 S    
C36   C37   1.423506 A    
C32   O29   1.372353 S    
O17   Ba2   2.815144 S    
C59   H56   1.112743 S    
P2    O10   1.762992 S    
C41   C42   1.414964 A    
O4    P6    1.543526 D    
O14   P8    1.747265 S    
C1    H18   1.110236 S    
C57   H51   1.103998 S    
C1    H2    1.109187 S    
O3    Ba1   2.841244 S    
O12   Ba2   2.874108 S    
C5    C45   1.472318 S    
C33   C38   1.395062 A    
C39   H33   1.074246 S    
C51   N4    1.156272 T    
Ba1   O13   2.867968 S    
C58   H54   1.091094 S    
P4    O13   1.602744 S    
C53   H49   1.105363 S    
C29   C30   1.435801 A    
P8    O23   1.542565 D    
C59   H58   1.109699 S    
O8    Ba1   2.814625 S    
C21   H31   1.079664 S    
P5    O17   1.759342 S    
P1    O5    1.770764 S    
C2    C3    1.531048 S    
C13   H23   1.113716 S    
C4    H7    1.101745 S    
C16   O28   1.413604 S    
C11   O22   1.405777 S    
O2    Ba2   2.868642 S    
C16   H29   1.110060 S    
O11   C2    1.405239 S    
C11   C12   1.535265 S    
O16   Ba2   2.937321 S    
C48   H43   1.108733 S    
C18   C26   1.412659 A    
O30   C58   1.405124 S    
C24   C32   1.399362 A    
C12   H21   1.102583 S    
P1    O2    1.602716 S    
C8    H13   1.102947 S    
C7    H12   1.112059 S    
C42   H35   1.073370 S    
C9    H14   1.107560 S    
C1    H3    1.110144 S    
C25   C27   1.385186 A    
C19   C20   1.435158 A    
P5    O18   1.546000 D    
C15   C16   1.521853 S    
C19   C30   1.458183 A    
C37   H36   1.074221 S    
P1    Ba1   3.412662 S    
C28   C29   1.440906 A    
C20   C21   1.390376 A    
C57   H52   1.107432 S    
C29   C31   1.433408 A    
O19   C13   1.403983 S    
C12   C50   1.461816 S    
C47   H38   1.103345 S    
P2    O20   1.568884 S    
O14   Ba2   2.840553 S    
O5    C6    1.410862 S    
Ba1   O16   2.816893 S    
C8    O27   1.424494 S    
P3    O8    1.743360 S    
C58   H53   1.107690 S    
C15   O24   1.404935 S    
C53   H48   1.110497 S    
C1    C10   1.522280 S    
O6    C10   1.403756 S    
O7    Ba1   2.828681 S    
C49   H44   1.110962 S    
C5    H9    1.087275 S    
O25   C47   1.416815 S    
C54   N6    1.154023 T    
C40   C44   1.387918 A    
C5    C46   1.462412 S    
P1    C22   1.962236 S    
C39   C43   1.416178 A    
C48   H42   1.111765 S    
C8    C9    1.531823 S    
C53   H47   1.108754 S    
C23   C56   1.423423 S    
C3    H6    1.117416 S    
Ba2   O21   2.828783 S    
P8    C17   1.887306 S    
P2    O7    1.532186 D    
P3    C40   1.829756 S    
C49   H45   1.110530 S    
H1    C10   1.111310 S    
P2    C41   1.869722 S    
C52   N5    1.156945 T    
Ba1   O20   2.938230 S    
C20   C54   1.427603 S    
O31   C59   1.410910 S    
C18   C21   1.378641 A    
C39   C40   1.391145 A    
P5    O19   1.750366 S    
C33   C34   1.403144 A    
C7    H11   1.105537 S    
C33   O30   1.378294 S    
O27   C49   1.416183 S    
C24   C25   1.437798 A    
C9    H15   1.104174 S    
P4    O15   1.746133 S    
O28   C53   1.408582 S    
C6    C7    1.549088 S    
O2    Ba1   2.931280 S    
C25   C26   1.431071 A    
O26   C48   1.407982 S    
C17   C32   1.402786 A    
C27   C28   1.394498 A    
C41   C44   1.389515 A    
C7    O26   1.415011 S    
P6    C31   1.895382 S    
P7    C38   1.849055 S    
C22   C23   1.409777 A    
C55   N7    1.158478 T    
C14   H25   1.110012 S    
C47   H39   1.106624 S    
Ba1   Ba2   4.635199 S    
C26   C30   1.449633 A    
P7    O21   1.583141 D    
C19   C22   1.462084 A    
O29   C57   1.416570 S    
P3    O9    1.540961 D    
C37   C38   1.396010 A    
C15   H28   1.108683 S    
C56   N8    1.151445 T    
C36   C43   1.522399 S    
O10   C8    1.425803 S    
C57   H50   1.114869 S    
C44   H37   1.075436 S    
P4    Ba2   3.413299 S    
C2    H5    1.112757 S    
