data_mof_unit_53420.cif
_audit_creation_date              2012-12-11T14:08:04-0500
_audit_creation_method            fapswitch 2.2
_symmetry_space_group_name_H-M    P1
_symmetry_Int_Tables_number       1
_space_group_crystal_system       triclinic
_cell_length_a                    10.964388
_cell_length_b                    10.912809
_cell_length_c                    18.73346
_cell_angle_alpha                 90.579745
_cell_angle_beta                  90.499661
_cell_angle_gamma                 60.045246
_cell_volume                      1941.96447012

loop_
_atom_site_label
_atom_site_type_symbol
_atom_type_description
_atom_site_fract_x
_atom_site_fract_y
_atom_site_fract_z
_atom_type_partial_charge
C1    C     C_R   0.233760 0.646477 0.607475 0.566948
C2    C     C_3   0.676806 0.586060 0.801281 -0.318236
C3    C     C_3   0.729890 0.693448 0.806977 -0.012837
C4    C     C_3   0.682567 0.657577 0.673425 0.053380
C5    C     C_3   0.841125 0.610343 0.685140 0.181350
C6    C     C_3   0.642787 0.570359 0.723524 -0.306185
C7    C     C_2   0.673235 0.163554 0.672394 -0.086028
C8    C     C_2   0.684861 0.173783 0.829684 -0.059754
C9    C     C_2   0.795764 0.135194 0.786533 -0.127030
C10   C     C_2   0.776351 0.167782 0.709765 -0.155713
C11   C     C_2   0.173546 0.662336 0.677884 -0.041181
C12   C     C_R   0.656866 0.625568 0.599792 0.593880
C13   C     C_2   0.186430 0.675793 0.837322 0.250277
C14   C     C_2   0.204703 0.562594 0.799521 0.308785
C15   C     C_2   0.232602 0.550709 0.722498 -0.102082
C16   C     C_2   0.651817 0.661041 0.322464 -0.068512
C17   C     C_2   0.699559 0.711721 0.176978 -0.129081
C18   C     C_2   0.693913 0.598379 0.197702 -0.135443
C19   C     C_2   0.708720 0.559491 0.272060 0.225014
C20   C     C_2   0.632943 0.194175 0.319377 -0.060891
C21   C     C_2   0.638683 0.199692 0.165081 -0.109902
C22   C     C_2   0.524007 0.228463 0.201558 -0.169351
C23   C     C_R   0.627736 0.229463 0.602476 0.535889
C24   C     C_2   0.517703 0.256981 0.277215 -0.137021
C25   C     C_2   0.121431 0.681166 0.344713 -0.102185
C26   C     C_2   0.113727 0.691236 0.190777 -0.091529
C27   C     C_2   0.041622 0.804746 0.233801 -0.159532
C28   C     C_2   0.073784 0.800874 0.309075 -0.168203
C29   C     C_R   0.702114 0.103888 0.898150 0.597058
C30   C     C_R   0.756210 0.711481 0.883120 0.593308
C31   C     C_R   0.118867 0.707154 0.907428 0.583764
C32   C     C_R   0.673667 0.113324 0.101788 0.536251
C33   C     C_R   0.733486 0.719459 0.104416 0.570334
C34   C     C_R   0.215121 0.651566 0.404499 0.561941
C35   C     C_R   0.087082 0.713035 0.115377 0.544251
C36   C     C_R   0.642016 0.623609 0.394318 0.578519
C37   C     C_R   0.614129 0.232848 0.393729 0.562379
C38   C     C_3   0.620282 0.836967 0.772798 0.251802
C39   C     C_3   0.592914 0.816561 0.693720 0.270378
C40   C     C_3   0.867991 0.634200 0.763756 -0.194568
Cr1   Cr    Cr6+3 0.393010 0.398050 0.501480 1.045535
Cr2   Cr    Cr6+3 0.398820 0.707980 0.501630 1.079489
Cr3   Cr    Cr6+3 0.708140 0.393940 0.496850 1.043444
Cr4   Cr    Cr6+3 0.937950 0.938450 0.008940 1.004929
Cr5   Cr    Cr6+3 0.626180 0.937030 0.994750 1.040540
Cr6   Cr    Cr6+3 0.937790 0.625760 0.001410 1.048028
H1    H     H_    0.702181 0.456465 0.708556 0.123986
H2    H     H_    0.949849 0.532001 0.786668 0.156859
H3    H     H_    0.908316 0.495801 0.672486 0.161975
H4    H     H_    0.902637 0.072571 0.806598 0.172239
H5    H     H_    0.846710 0.197006 0.684319 0.147947
H6    H     H_    0.578374 0.237597 0.809160 0.133013
H7    H     H_    0.606861 0.129209 0.697614 0.188648
H8    H     H_    0.309390 0.446311 0.702840 0.154189
H9    H     H_    0.519667 0.884139 0.802448 0.174459
H10   H     H_    0.092856 0.766813 0.695010 0.181045
H11   H     H_    0.699204 0.520797 0.159027 0.164409
H12   H     H_    0.699513 0.788763 0.214061 0.066371
H13   H     H_    0.591343 0.772312 0.308738 0.054508
H14   H     H_    0.439577 0.216362 0.178125 0.155113
H15   H     H_    0.413463 0.325408 0.299169 0.149512
H16   H     H_    0.718838 0.219343 0.188005 0.128583
H17   H     H_    0.737769 0.124608 0.298824 0.081331
H18   H     H_    0.968322 0.907990 0.211922 0.146343
H19   H     H_    0.077017 0.891127 0.331884 0.149197
H20   H     H_    0.188413 0.586620 0.210393 0.087474
H21   H     H_    0.109696 0.594623 0.323189 0.094723
H22   H     H_    0.622008 0.879862 0.658870 0.206847
H23   H     H_    0.909224 0.708814 0.766916 0.197565
H24   H     H_    0.759375 0.480520 0.820751 0.162357
H25   H     H_    0.583997 0.618139 0.835798 0.117004
H26   H     H_    0.529163 0.604399 0.717915 0.172145
O1    O     O_R   0.507110 0.256280 0.580300 -0.507812
O2    O     O_R   0.524640 0.695370 0.425100 -0.510902
O3    O     O_R   0.735890 0.504390 0.415980 -0.465834
O4    O     O_R   0.690560 0.277820 0.422350 -0.477870
O5    O     O_3   0.499990 0.499990 0.499980 -0.272139
O6    O     O_R   0.089190 0.825870 0.932320 -0.519470
O7    O     O_R   0.819070 0.053960 0.931440 -0.511478
O8    O     O_R   0.607070 0.076440 0.916460 -0.465391
O9    O     O_R   0.647110 0.806550 0.917690 -0.500214
O10   O     O_R   0.837080 0.593860 0.915300 -0.510936
O11   O     O_R   0.064770 0.636080 0.932550 -0.466477
O12   O     O_R   0.280830 0.527190 0.577940 -0.499140
O13   O     O_R   0.068250 0.829200 0.092940 -0.512545
O14   O     O_R   0.799650 0.057040 0.080330 -0.515147
O15   O     O_R   0.586130 0.079760 0.077080 -0.519661
O16   O     O_R   0.627700 0.809630 0.066580 -0.486156
O17   O     O_R   0.816140 0.597180 0.075920 -0.519367
O18   O     O_R   0.045360 0.639170 0.081440 -0.516070
O19   O     O_3   0.833980 0.833750 0.001700 -0.298176
O20   O     O_R   0.261360 0.738990 0.584270 -0.473818
O21   O     O_R   0.532590 0.694780 0.574370 -0.443882
O22   O     O_R   0.744470 0.503750 0.577000 -0.535189
O23   O     O_R   0.698520 0.277230 0.571620 -0.504625
O24   O     O_R   0.498530 0.256920 0.419280 -0.520563
O25   O     O_R   0.272880 0.527780 0.428680 -0.506211
O26   O     O_R   0.252780 0.739630 0.423250 -0.513528
F1    F     F_    0.669625 0.930955 0.777358 -0.685229
F2    F     F_    0.206786 0.450997 0.832477 -0.652896
O27   O     O_3   0.191039 0.785671 0.802632 -0.614557
C41   C     C_3   0.289763 0.816935 0.834178 -0.001183
H27   H     H_    0.376665 0.783451 0.796021 0.180506
H28   H     H_    0.334965 0.763081 0.885999 0.117371
C42   C     C_3   0.223008 0.976398 0.844278 -0.320746
H29   H     H_    0.130071 0.017617 0.879731 0.168429
H30   H     H_    0.300422 0.001677 0.868813 0.115367
H31   H     H_    0.189138 0.030014 0.791825 0.188561
O28   O     O_3   0.767479 0.417141 0.288516 -0.529249
C43   C     C_3   0.913277 0.348228 0.273855 0.004436
H32   H     H_    0.964637 0.399635 0.303513 0.134243
H33   H     H_    0.932657 0.348768 0.215637 0.129060
C44   C     C_3   0.981967 0.195060 0.297562 -0.363799
H34   H     H_    0.940912 0.137920 0.265091 0.127869
H35   H     H_    0.097653 0.142597 0.289980 0.099862
H36   H     H_    0.959862 0.189789 0.354845 0.176169
F3    F     F_    0.450338 0.865872 0.683787 -0.662008
F4    F     F_    0.880761 0.684663 0.640354 -0.659658

loop_
_geom_bond_atom_site_label_1
_geom_bond_atom_site_label_2
_ccdc_geom_bond_type
C7    C10   D    
C24   H15   S    
Cr2   O21   S    
C39   H22   S    
C1    C11   S    
C5    H3    S    
C34   O25   A    
Cr6   O17   S    
C25   C28   D    
C6    H26   S    
C42   H30   S    
C26   C27   D    
O27   C41   S    
C8    C29   S    
Cr5   O15   S    
C33   O16   A    
Cr2   O26   S    
C22   H14   S    
C38   C39   S    
Cr1   O24   S    
Cr3   O22   S    
C31   O11   A    
C41   C42   S    
C18   C19   S    
C43   H32   S    
Cr6   O10   S    
C11   C15   D    
C38   H9    S    
C20   C24   D    
C3    C38   S    
C8    C9    D    
C25   H21   S    
Cr3   O23   S    
C4    C12   S    
C9    C10   S    
C8    H6    S    
Cr2   O20   S    
C25   C34   S    
C44   H36   S    
C13   C14   D    
C12   O22   A    
C2    C6    S    
C17   C33   S    
C23   O1    A    
Cr4   O14   S    
C10   H5    S    
C42   H31   S    
C19   O28   S    
Cr3   O3    S    
C21   C32   S    
Cr2   O2    S    
C6    H1    S    
C26   H20   S    
C15   H8    S    
Cr5   O16   S    
C4    C6    S    
C40   H23   S    
C38   F1    S    
Cr6   O19   S    
C39   F3    S    
Cr1   O12   S    
C37   O24   A    
C1    O12   A    
C16   H13   S    
C30   O10   A    
C3    C30   S    
C36   O3    A    
C33   O17   A    
C18   H11   S    
C29   O7    A    
C4    C39   S    
C32   O14   A    
C17   C18   D    
C41   H28   S    
C43   C44   S    
C21   H16   S    
Cr4   O19   S    
C36   O2    A    
C37   O4    A    
C3    C40   S    
C1    O20   A    
C22   C24   S    
C12   O21   A    
C7    H7    S    
C13   O27   S    
C2    H25   S    
C31   O6    A    
C44   H34   S    
Cr3   O4    S    
C40   H2    S    
C13   C31   S    
Cr4   O7    S    
Cr5   O9    S    
C9    H4    S    
C4    C5    S    
C14   F2    S    
Cr6   O18   S    
Cr3   O5    S    
C42   H29   S    
C17   H12   S    
C5    F4    S    
C30   O9    A    
Cr4   O6    S    
C2    C3    S    
C2    H24   S    
O28   C43   S    
C16   C36   S    
Cr1   O5    S    
C20   C37   S    
C35   O13   A    
C29   O8    A    
C20   H17   S    
C16   C19   D    
C7    C23   S    
C34   O26   A    
C23   O23   A    
C28   H19   S    
Cr5   O8    S    
Cr1   O25   S    
C41   H27   S    
Cr5   O19   S    
C43   H33   S    
C27   H18   S    
Cr1   O1    S    
Cr6   O11   S    
C35   O18   A    
C26   C35   S    
C32   O15   A    
Cr2   O5    S    
C5    C40   S    
C27   C28   S    
C14   C15   S    
C21   C22   D    
C11   H10   S    
Cr4   O13   S    
C44   H35   S    
