data_mof_unit_31669.cif
_audit_creation_date              2012-12-11T15:48:02-0500
_audit_creation_method            fapswitch 2.2
_symmetry_space_group_name_H-M    P1
_symmetry_Int_Tables_number       1
_space_group_crystal_system       triclinic
_cell_length_a                    6.931604
_cell_length_b                    17.594642
_cell_length_c                    19.448021
_cell_angle_alpha                 108.488749
_cell_angle_beta                  89.70881
_cell_angle_gamma                 90.582711
_cell_volume                      2249.32084958

loop_
_atom_site_label
_atom_site_type_symbol
_atom_type_description
_atom_site_fract_x
_atom_site_fract_y
_atom_site_fract_z
_atom_type_partial_charge
O1    O     O_R   0.494330 0.415710 0.413720 -0.551906
O2    O     O_R   0.819360 0.430070 0.560210 -0.551490
O3    O     O_R   0.994320 0.584290 0.586280 -0.534685
C1    C     C_R   0.650331 0.415280 0.582123 0.690149
O4    O     O_R   0.823740 0.406290 0.412670 -0.551705
O5    O     O_R   0.998730 0.560340 0.437690 -0.507096
C2    C     C_R   0.654619 0.383115 0.384684 0.663769
O6    O     O_R   0.489920 0.439660 0.562310 -0.548100
O7    O     O_3   0.662330 0.550570 0.508380 -0.318271
V1    V     V_3+5 0.935370 0.490620 0.498440 1.481332
O8    O     O_R   0.328720 0.569930 0.439790 -0.532663
C3    C     C_R   0.160366 0.585770 0.418722 0.779178
O9    O     O_R   0.324340 0.593710 0.587330 -0.510233
C4    C     C_R   0.155824 0.617935 0.614668 0.745515
V2    V     V_3+5 0.435940 0.509380 0.501560 1.534310
O10   O     O_3   0.159110 0.449430 0.491620 -0.396965
C5    C     C_R   0.302618 0.742313 0.707125 0.381157
C6    C     C_R   0.288886 0.804798 0.772888 -0.186820
H1    H     H_    0.409769 0.845920 0.790052 0.156047
C7    C     C_R   0.120773 0.815930 0.815424 -0.118292
C8    C     C_R   0.964736 0.762960 0.790750 -0.127389
H2    H     H_    0.832828 0.769954 0.822156 0.136440
C9    C     C_R   0.978242 0.699328 0.725797 -0.147028
H3    H     H_    0.856234 0.658741 0.709430 0.163714
C10   C     C_R   0.146833 0.687442 0.682967 -0.130605
C11   C     C_R   0.306447 0.635610 0.322659 -0.276038
C12   C     C_R   0.152054 0.636090 0.370119 -0.193886
C13   C     C_R   0.989491 0.683827 0.370002 0.567753
C14   C     C_R   0.981572 0.730415 0.323061 -0.030181
C15   C     C_R   0.136078 0.728351 0.274893 -0.025179
C16   C     C_R   0.298622 0.680595 0.274603 0.090264
C17   C     C_R   0.821953 0.779152 0.323278 -0.120705
C18   C     C_R   0.814081 0.824325 0.275725 -0.209633
C19   C     C_R   0.965400 0.821751 0.226917 0.095643
C20   C     C_R   0.128028 0.774119 0.226852 0.088808
C21   C     C_R   0.282697 0.772243 0.178851 0.091721
C22   C     C_R   0.442542 0.723818 0.178548 -0.198014
C23   C     C_R   0.450260 0.678321 0.225881 -0.154520
C24   C     C_R   0.957198 0.866249 0.178453 -0.221332
C25   C     C_R   0.111884 0.865599 0.131098 -0.084289
C26   C     C_R   0.274751 0.818727 0.132004 -0.224552
H4    H     H_    0.431475 0.598873 0.322119 0.164675
H5    H     H_    0.701785 0.782046 0.359824 0.193600
H6    H     H_    0.688618 0.860946 0.276827 0.139892
H7    H     H_    0.831859 0.902678 0.178581 0.125998
H8    H     H_    0.394308 0.817599 0.095532 0.128513
H9    H     H_    0.562360 0.721445 0.141936 0.132386
H10   H     H_    0.575763 0.641696 0.224691 0.130939
C27   C     C_R   0.784375 0.181505 0.866136 -0.220188
C28   C     C_R   0.622361 0.133335 0.867951 -0.081992
C29   C     C_R   0.465214 0.131868 0.821854 -0.205208
C30   C     C_R   0.469202 0.177354 0.774191 0.086581
C31   C     C_R   0.630614 0.226577 0.773580 0.054030
C32   C     C_R   0.788340 0.228948 0.819971 0.092781
C33   C     C_R   0.314503 0.174507 0.727092 -0.172507
C34   C     C_R   0.318091 0.221002 0.680513 -0.180622
C35   C     C_R   0.476515 0.271162 0.680123 0.088969
C36   C     C_R   0.634242 0.273531 0.726513 0.054471
C37   C     C_R   0.795658 0.322751 0.725899 0.090574
C38   C     C_R   0.950369 0.325589 0.772991 -0.187982
C39   C     C_R   0.946779 0.279097 0.819572 -0.187895
C40   C     C_R   0.480471 0.318614 0.633966 -0.221974
C41   C     C_R   0.642478 0.366787 0.632153 -0.078362
C42   C     C_R   0.799640 0.368241 0.678239 -0.218997
H11   H     H_    0.905612 0.183249 0.901631 0.126089
H12   H     H_    0.340360 0.094427 0.822424 0.127667
H13   H     H_    0.189788 0.136709 0.726645 0.141425
H14   H     H_    0.196163 0.218085 0.645083 0.137432
H15   H     H_    0.359239 0.316868 0.598470 0.124882
H16   H     H_    0.924503 0.405672 0.677658 0.119252
H17   H     H_    0.075094 0.363380 0.773432 0.132835
H18   H     H_    0.068716 0.282009 0.854998 0.133301
C43   C     C_R   0.811530 0.276545 0.281666 -0.155425
H19   H     H_    0.952227 0.295925 0.304956 0.113907
C44   C     C_R   0.800603 0.212758 0.216701 -0.152652
H20   H     H_    0.933339 0.184859 0.192080 0.118449
C45   C     C_R   0.621154 0.185358 0.184122 -0.046308
C46   C     C_R   0.452927 0.223531 0.218393 -0.154449
H21   H     H_    0.312239 0.204144 0.195098 0.116512
C47   C     C_R   0.463855 0.287323 0.283363 -0.154161
H22   H     H_    0.331130 0.315227 0.307990 0.113856
C48   C     C_R   0.643312 0.314721 0.315939 -0.041723
O11   O     O_R   0.774940 0.060470 0.937800 -0.537577
O12   O     O_R   0.440880 0.093730 0.087350 -0.543577
O13   O     O_R   0.266130 0.939630 0.062280 -0.539789
C49   C     C_R   0.609941 0.116960 0.115377 0.684212
O14   O     O_R   0.445480 0.069960 0.939820 -0.543954
O15   O     O_R   0.270770 0.915690 0.913690 -0.542131
C50   C     C_R   0.614519 0.084819 0.917962 0.717730
O16   O     O_R   0.770300 0.084410 0.086380 -0.542682
O17   O     O_3   0.602600 0.949510 0.991670 -0.369705
V3    V     V_3+5 0.329470 0.009370 0.001550 1.402894
O18   O     O_R   0.940760 0.906160 0.912560 -0.540836
C51   C     C_R   0.109648 0.883332 0.884570 0.712401
O19   O     O_R   0.936150 0.929930 0.060100 -0.543678
C52   C     C_R   0.104295 0.914788 0.081690 0.709647
V4    V     V_3+5 0.828930 0.990450 0.998310 1.408754
O20   O     O_3   0.105670 0.050490 0.008320 -0.371562
Cl1   Cl    Cl    0.515518 0.739151 0.656283 -0.632433
F1    F     F_    0.840653 0.686225 0.416443 -0.670511

loop_
_geom_bond_atom_site_label_1
_geom_bond_atom_site_label_2
_ccdc_geom_bond_type
C33   C34   A    
O18   C51   A    
C43   H19   S    
O19   C52   A    
C1    O6    A    
V4    O20   S    
V3    O20   S    
C35   C40   A    
C45   C46   A    
C1    C41   S    
C11   C12   A    
C40   C41   A    
C27   H11   S    
C15   C20   A    
C21   C22   A    
C22   C23   A    
O12   C49   A    
C6    H1    S    
C14   C17   A    
O5    C3    A    
C15   C16   A    
O13   C52   A    
C46   C47   A    
C27   C32   A    
C34   C35   A    
C19   C20   A    
O8    V2    S    
O15   V3    S    
C26   H8    S    
O1    V2    S    
C42   H16   S    
C22   H9    S    
O7    V1    S    
O16   V4    S    
C23   H10   S    
C30   C33   A    
C24   H7    S    
C13   F1    S    
C11   C16   A    
O9    C4    A    
C43   C44   A    
C21   C26   A    
C25   C52   S    
O13   V3    S    
C28   C29   A    
O11   C50   A    
O15   C51   A    
C3    C12   S    
C29   C30   A    
C47   C48   A    
C49   O16   A    
C24   C25   A    
O4    C2    A    
C46   H21   S    
C38   H17   S    
C36   C37   A    
C34   H14   S    
C19   C24   A    
C40   H15   S    
C38   C39   A    
C20   C21   A    
O2    C1    A    
C44   H20   S    
C14   C15   A    
C44   C45   A    
C28   C50   S    
C9    H3    S    
C5    C6    A    
C37   C42   A    
O17   V4    S    
C5    Cl1   S    
O3    C4    A    
C39   H18   S    
C25   C26   A    
C45   C49   S    
O6    V2    S    
C8    C9    A    
O2    V1    S    
O18   V4    S    
C43   C48   A    
O17   V3    S    
O14   V3    S    
C30   C31   A    
C11   H4    S    
C7    C51   S    
C13   C14   A    
O1    C2    A    
C18   H6    S    
C47   H22   S    
O5    V1    S    
C33   H13   S    
C31   C36   A    
O19   V4    S    
C31   C32   A    
C32   C39   A    
C16   C23   A    
C5    C10   A    
C17   C18   A    
O9    V2    S    
O7    V2    S    
O4    V1    S    
O3    V1    S    
V1    O10   S    
C35   C36   A    
C17   H5    S    
C18   C19   A    
C6    C7    A    
C9    C10   A    
C4    C10   S    
C41   C42   A    
C37   C38   A    
C2    C48   S    
C7    C8    A    
C27   C28   A    
O11   V4    S    
C12   C13   A    
O14   C50   A    
O12   V3    S    
C8    H2    S    
C29   H12   S    
V2    O10   S    
O8    C3    A    
