data_mof_unit_33330.cif
_audit_creation_date              2012-12-11T14:39:38-0500
_audit_creation_method            fapswitch 2.2
_symmetry_space_group_name_H-M    P1
_symmetry_Int_Tables_number       1
_space_group_crystal_system       triclinic
_cell_length_a                    7.300105
_cell_length_b                    14.283573
_cell_length_c                    16.12087
_cell_angle_alpha                 89.999763
_cell_angle_beta                  97.82835
_cell_angle_gamma                 89.999802
_cell_volume                      1665.28314087

loop_
_atom_site_label
_atom_site_type_symbol
_atom_type_description
_atom_site_fract_x
_atom_site_fract_y
_atom_site_fract_z
_atom_type_partial_charge
O1    O     O_R   0.525340 0.338340 0.164530 -0.537783
O2    O     O_R   0.474660 0.661660 0.835470 -0.536574
O3    O     O_R   0.974660 0.838340 0.835470 -0.537787
O4    O     O_R   0.025340 0.161660 0.164530 -0.536574
O5    O     O_R   0.253520 0.352000 0.336710 -0.552213
O6    O     O_R   0.746480 0.648000 0.663290 -0.545523
O7    O     O_R   0.246480 0.852000 0.663290 -0.552225
O8    O     O_R   0.753520 0.148000 0.336710 -0.545521
O9    O     O_R   0.083330 0.168380 0.337300 -0.535640
O10   O     O_R   0.916670 0.831620 0.662700 -0.533997
O11   O     O_R   0.416670 0.668380 0.662700 -0.535638
O12   O     O_R   0.583330 0.331620 0.337300 -0.533998
C1    C     C_R   0.432523 0.368174 0.363772 0.689705
C2    C     C_R   0.567061 0.632050 0.636236 0.685213
C3    C     C_R   0.067477 0.868178 0.636231 0.689710
C4    C     C_R   0.932939 0.132046 0.363761 0.685212
O13   O     O_R   0.195840 0.349670 0.165140 -0.542309
O14   O     O_R   0.804160 0.650330 0.834860 -0.541069
O15   O     O_R   0.304160 0.849670 0.834860 -0.542298
O16   O     O_R   0.695840 0.150330 0.165140 -0.541070
C5    C     C_R   0.357178 0.371871 0.137871 0.739496
C6    C     C_R   0.642869 0.628232 0.862220 0.742019
C7    C     C_R   0.142822 0.871870 0.862129 0.739496
C8    C     C_R   0.857132 0.128232 0.137780 0.742016
O17   O     O_3   0.387830 0.193120 0.250910 -0.376150
O18   O     O_3   0.612170 0.806880 0.749090 -0.383346
O19   O     O_3   0.112170 0.693120 0.749090 -0.376149
O20   O     O_3   0.887830 0.306880 0.250910 -0.383344
V1    V     V_3+5 0.113010 0.264540 0.250910 1.358273
V2    V     V_3+5 0.886990 0.735460 0.749090 1.365967
V3    V     V_3+5 0.386990 0.764540 0.749090 1.358295
V4    V     V_3+5 0.613010 0.235460 0.250910 1.365964
H1    H     H_    0.811763 0.816469 0.256628 0.113455
H2    H     H_    0.164291 0.186639 0.743797 0.120013
H3    H     H_    0.688227 0.316480 0.743380 0.113454
H4    H     H_    0.335718 0.686626 0.256192 0.120018
C9    C     C_R   0.062826 0.193885 0.531650 -0.174588
C10   C     C_R   0.944863 0.806700 0.467084 -0.182773
C11   C     C_R   0.437202 0.693886 0.468338 -0.174528
C12   C     C_R   0.555123 0.306701 0.532925 -0.182781
C13   C     C_R   0.106555 0.227330 0.614044 0.149968
C14   C     C_R   0.883647 0.775358 0.385690 0.155436
C15   C     C_R   0.393460 0.727325 0.385942 0.149968
C16   C     C_R   0.616342 0.275363 0.614321 0.155438
C17   C     C_R   0.130992 0.162656 0.679751 -0.229406
C18   C     C_R   0.859509 0.839568 0.319886 -0.173576
C19   C     C_R   0.369022 0.662647 0.320239 -0.229457
C20   C     C_R   0.640478 0.339575 0.680122 -0.173581
C21   C     C_R   0.107558 0.067005 0.664520 -0.179201
C22   C     C_R   0.890846 0.934348 0.335100 -0.195785
C23   C     C_R   0.392467 0.566998 0.335474 -0.179198
C24   C     C_R   0.609139 0.434355 0.664904 -0.195785
C25   C     C_R   0.059700 0.032570 0.582303 0.074487
C26   C     C_R   0.944861 0.967952 0.417231 0.079599
C27   C     C_R   0.440321 0.532568 0.417694 0.074494
C28   C     C_R   0.555131 0.467956 0.582770 0.079608
C29   C     C_R   0.034335 0.097090 0.514884 0.008622
C30   C     C_R   0.974551 0.903129 0.484301 0.021590
C31   C     C_R   0.465686 0.597091 0.485110 0.008613
C32   C     C_R   0.525442 0.403129 0.515703 0.021600
C33   C     C_R   0.031912 0.935701 0.566796 -0.172887
C34   C     C_R   0.971654 0.064632 0.432919 -0.166110
C35   C     C_R   0.468093 0.435699 0.433206 -0.172871
C36   C     C_R   0.528350 0.564635 0.567078 -0.166130
H5    H     H_    0.043939 0.243627 0.480909 0.115640
H6    H     H_    0.962709 0.755210 0.516797 0.113546
H7    H     H_    0.456092 0.743631 0.519076 0.115618
H8    H     H_    0.537283 0.255209 0.483214 0.113539
H9    H     H_    0.125517 0.020703 0.718117 0.113949
H10   H     H_    0.869722 0.980978 0.281782 0.111388
H11   H     H_    0.374509 0.520693 0.281880 0.113948
H12   H     H_    0.630261 0.480987 0.718219 0.111396
H13   H     H_    0.135603 0.066736 0.056663 0.160235
H14   H     H_    0.864059 0.933867 0.942811 0.160222
H15   H     H_    0.364398 0.566736 0.943336 0.160235
H16   H     H_    0.635941 0.433867 0.057190 0.160221
C37   C     C_2   0.149311 0.942190 0.930512 -0.341874
C38   C     C_2   0.850537 0.058092 0.069238 -0.341574
C39   C     C_2   0.350689 0.442191 0.069488 -0.341877
C40   C     C_2   0.649464 0.558092 0.930763 -0.341577
C41   C     C_2   0.996659 0.965847 0.965179 -0.132414
C42   C     C_2   0.003057 0.034657 0.034380 -0.129842
C43   C     C_2   0.503341 0.465847 0.034821 -0.132416
C44   C     C_2   0.496944 0.534657 0.965621 -0.129841
H17   H     H_    0.718415 0.026002 0.046173 0.127166
H18   H     H_    0.281471 0.974200 0.953644 0.127757
H19   H     H_    0.781586 0.526002 0.953828 0.127165
H20   H     H_    0.218528 0.474201 0.046356 0.127756
C45   C     C_3   0.118199 0.330532 0.636374 -0.359224
C46   C     C_3   0.056020 0.398711 0.564244 -0.341762
C47   C     C_3   0.056242 0.499326 0.595836 -0.678320
H21   H     H_    0.960546 0.506421 0.643207 0.238823
H22   H     H_    0.196529 0.519470 0.625309 0.233411
H23   H     H_    0.011313 0.547569 0.543007 0.206264
H24   H     H_    0.149756 0.393880 0.515818 0.206720
H25   H     H_    0.914151 0.380961 0.534837 0.206756
H26   H     H_    0.030240 0.342804 0.686427 0.175504
H27   H     H_    0.262083 0.346949 0.663500 0.191716
C48   C     C_3   0.818815 0.676258 0.370714 -0.386173
C49   C     C_3   0.967863 0.610575 0.350049 -0.370316
C50   C     C_3   0.893077 0.511435 0.336288 -0.676903
H28   H     H_    0.853574 0.482524 0.395286 0.220594
H29   H     H_    0.771326 0.510215 0.286758 0.222020
H30   H     H_    0.001966 0.466993 0.315654 0.245480
H31   H     H_    0.016419 0.634827 0.291408 0.211845
H32   H     H_    0.081176 0.610081 0.403209 0.229221
H33   H     H_    0.766261 0.649504 0.427265 0.197445
H34   H     H_    0.708269 0.675240 0.316682 0.197789
C51   C     C_3   0.381787 0.830524 0.363604 -0.359233
C52   C     C_3   0.443963 0.898712 0.435727 -0.341782
C53   C     C_3   0.443718 0.999323 0.404125 -0.678289
H35   H     H_    0.539419 0.006419 0.356757 0.238815
H36   H     H_    0.303429 0.019456 0.374644 0.233405
H37   H     H_    0.488625 0.047576 0.456948 0.206273
H38   H     H_    0.350235 0.893882 0.484156 0.206725
H39   H     H_    0.585838 0.880970 0.465131 0.206762
H40   H     H_    0.469729 0.842797 0.313546 0.175500
H41   H     H_    0.237897 0.846933 0.336485 0.191714
C54   C     C_3   0.681208 0.176268 0.629297 -0.386175
C55   C     C_3   0.532156 0.110551 0.649896 -0.370268
C56   C     C_3   0.606965 0.011407 0.663591 -0.677053
H42   H     H_    0.646535 0.982567 0.604583 0.220587
H43   H     H_    0.728671 0.010151 0.713142 0.222074
H44   H     H_    0.498069 0.966925 0.684159 0.245518
H45   H     H_    0.483570 0.134741 0.708547 0.211866
H46   H     H_    0.418857 0.110094 0.596729 0.229200
H47   H     H_    0.733855 0.149547 0.572761 0.197495
H48   H     H_    0.791697 0.175243 0.683355 0.197744

loop_
_geom_bond_atom_site_label_1
_geom_bond_atom_site_label_2
_ccdc_geom_bond_type
C13   C45   S    
O1    C5    A    
C50   H28   S    
C12   C32   A    
C27   C31   A    
O13   V1    S    
O3    C7    A    
C53   H35   S    
C40   C44   D    
O15   V3    S    
C41   C42   S    
C51   H40   S    
C46   H24   S    
C48   H34   S    
C49   H31   S    
C22   C26   A    
C4    C34   S    
C32   C35   A    
O20   V1    S    
O9    C4    A    
C10   C14   A    
C40   H19   S    
O10   C3    A    
O16   V4    S    
O4    C8    A    
O11   C2    A    
C55   H46   S    
H15   C44   S    
O6    C2    A    
H4    C19   S    
C14   C18   A    
O10   V2    S    
C52   C53   S    
C56   H44   S    
C10   C30   A    
C25   C33   A    
O16   C8    A    
C27   C35   A    
O2    C6    A    
C28   C36   A    
O14   V2    S    
C37   C41   D    
C12   C16   A    
O5    C1    A    
O4    V1    S    
O9    V1    S    
C54   H48   S    
C30   C33   A    
O7    C3    A    
O11   V3    S    
O18   V3    S    
C50   H29   S    
C21   H9    S    
O12   V4    S    
O19   V2    S    
H1    C18   S    
C23   H11   S    
H3    C20   S    
H16   C43   S    
C39   H20   S    
C51   H41   S    
O5    V1    S    
O7    V3    S    
O8    V4    S    
C10   H6    S    
C29   C34   A    
C47   H21   S    
C25   C29   A    
C55   H45   S    
C19   C23   A    
C26   C34   A    
C16   C54   S    
O1    V4    S    
O13   C5    A    
C28   C32   A    
C45   H26   S    
O2    V3    S    
O3    V2    S    
O15   C7    A    
C24   H12   S    
C47   H22   S    
C38   C42   D    
C48   C49   S    
C1    C35   S    
C17   C21   A    
C11   C31   A    
C5    C39   S    
C3    C33   S    
C53   H36   S    
H2    C17   S    
C7    C37   S    
C56   H42   S    
C2    C36   S    
C38   H17   S    
C9    H5    S    
O6    V2    S    
C37   H18   S    
C50   H30   S    
C43   C44   S    
H14   C41   S    
C52   H39   S    
H13   C42   S    
C55   C56   S    
C26   C30   A    
C8    C38   S    
O14   C6    A    
C11   H7    S    
C11   C15   A    
C54   C55   S    
C46   H25   S    
C48   H33   S    
C18   C22   A    
C49   H32   S    
C45   H27   S    
C22   H10   S    
C6    C40   S    
C16   C20   A    
C51   C52   S    
C47   H23   S    
C39   C43   D    
C46   C47   S    
O17   V4    S    
C21   C25   A    
C49   C50   S    
C53   H37   S    
C23   C27   A    
C9    C13   A    
C56   H43   S    
C31   C36   A    
C20   C24   A    
O12   C1    A    
O8    C4    A    
C12   H8    S    
C13   C17   A    
C15   C51   S    
C45   C46   S    
C14   C48   S    
C15   C19   A    
C52   H38   S    
C9    C29   A    
C24   C28   A    
C54   H47   S    
