data_mof_unit_62460.cif
_audit_creation_date              2012-12-10T18:04:10-0500
_audit_creation_method            fapswitch 2.2
_symmetry_space_group_name_H-M    P1
_symmetry_Int_Tables_number       1
_space_group_crystal_system       triclinic
_cell_length_a                    18.360984
_cell_length_b                    30.691548
_cell_length_c                    30.815137
_cell_angle_alpha                 89.992617
_cell_angle_beta                  89.930912
_cell_angle_gamma                 90.004944
_cell_volume                      17365.1495454

loop_
_atom_site_label
_atom_site_type_symbol
_atom_type_description
_atom_site_fract_x
_atom_site_fract_y
_atom_site_fract_z
_atom_type_partial_charge
C1    C     C_R   0.500448 0.690619 0.309179 0.776852
C2    C     C_R   0.500390 0.690616 0.690819 0.777844
C3    C     C_R   0.999447 0.190470 0.309290 0.778522
C4    C     C_R   0.000352 0.190615 0.690826 0.778718
C5    C     C_R   0.999446 0.690470 0.809290 0.779360
C6    C     C_R   0.000369 0.690616 0.190826 0.777213
C7    C     C_R   0.500413 0.190618 0.809172 0.778320
C8    C     C_R   0.499435 0.190470 0.190710 0.778674
C9    C     C_R   0.562167 0.615379 0.396489 0.116093
C10   C     C_R   0.562071 0.615334 0.603465 0.115458
C11   C     C_R   0.046900 0.127346 0.409132 0.089450
C12   C     C_R   0.062265 0.114958 0.603889 0.123431
C13   C     C_R   0.046981 0.627305 0.909089 0.090060
C14   C     C_R   0.062273 0.614990 0.103861 0.118281
C15   C     C_R   0.562356 0.115021 0.896083 0.118286
C16   C     C_R   0.546898 0.127312 0.090836 0.087806
C17   C     C_3   0.607087 0.641734 0.427213 -0.458077
C18   C     C_3   0.607135 0.641650 0.572715 -0.455177
C19   C     C_3   0.054225 0.159448 0.445264 -0.503002
C20   C     C_3   0.108184 0.141056 0.573415 -0.462232
C21   C     C_3   0.054456 0.659401 0.945217 -0.499170
C22   C     C_3   0.108171 0.641106 0.073388 -0.458503
C23   C     C_3   0.608093 0.141170 0.926541 -0.459373
C24   C     C_3   0.554458 0.159422 0.054709 -0.498428
C25   C     C_3   0.607032 0.677641 0.393255 -0.426221
C26   C     C_3   0.607094 0.677545 0.606674 -0.445974
C27   C     C_3   0.052600 0.195059 0.411004 -0.400717
C28   C     C_3   0.108211 0.176923 0.607392 -0.458334
C29   C     C_3   0.052838 0.695015 0.910960 -0.392780
C30   C     C_3   0.108206 0.676964 0.107376 -0.428297
C31   C     C_3   0.608104 0.177049 0.892565 -0.426913
C32   C     C_3   0.552890 0.195019 0.088977 -0.391564
C33   C     C_R   0.437929 0.859124 0.141513 -0.129430
C34   C     C_R   0.447358 0.873594 0.844587 -0.141712
C35   C     C_R   0.947179 0.373523 0.155426 -0.141711
C36   C     C_R   0.938028 0.358905 0.858806 -0.129943
C37   C     C_R   0.947151 0.873505 0.655410 -0.142315
C38   C     C_R   0.938026 0.859164 0.358543 -0.129554
C39   C     C_R   0.447658 0.373789 0.655696 -0.146931
C40   C     C_R   0.447842 0.373860 0.344322 -0.146856
C41   C     C_R   0.501905 0.842249 0.158126 -0.096187
C42   C     C_R   0.502604 0.842412 0.842823 -0.116598
C43   C     C_R   0.002527 0.342406 0.157167 -0.117117
C44   C     C_R   0.001994 0.342257 0.841872 -0.098095
C45   C     C_R   0.002522 0.842405 0.657168 -0.116685
C46   C     C_R   0.001993 0.842252 0.341874 -0.096335
C47   C     C_R   0.502614 0.342410 0.657163 -0.115422
C48   C     C_R   0.502698 0.342418 0.342828 -0.116189
C49   C     C_R   0.568354 0.858504 0.141742 0.357875
C50   C     C_R   0.553600 0.840698 0.877124 0.383588
C51   C     C_R   0.053576 0.340722 0.122825 0.383382
C52   C     C_R   0.068448 0.358768 0.857907 0.358222
C53   C     C_R   0.053598 0.840734 0.622839 0.383366
C54   C     C_R   0.068446 0.858473 0.358198 0.357817
C55   C     C_R   0.553206 0.340517 0.622586 0.382879
C56   C     C_R   0.553239 0.340495 0.377362 0.383924
C57   C     C_R   0.567708 0.890893 0.109322 -0.194765
C58   C     C_R   0.552398 0.872804 0.909514 -0.192868
C59   C     C_R   0.052342 0.372814 0.090420 -0.192394
C60   C     C_R   0.067808 0.391157 0.890330 -0.191890
C61   C     C_R   0.052367 0.872826 0.590434 -0.193030
C62   C     C_R   0.067805 0.890864 0.390618 -0.195050
C63   C     C_R   0.551940 0.372621 0.590193 -0.205456
C64   C     C_R   0.552004 0.372609 0.409744 -0.203330
C65   C     C_R   0.501043 0.907295 0.093025 -0.114564
C66   C     C_R   0.499532 0.905876 0.908660 -0.105565
C67   C     C_R   0.999397 0.405842 0.091305 -0.105566
C68   C     C_R   0.001147 0.407322 0.906952 -0.115210
C69   C     C_R   0.999398 0.905840 0.591305 -0.105615
C70   C     C_R   0.001142 0.907297 0.406973 -0.114657
C71   C     C_R   0.499406 0.405871 0.591327 -0.105914
C72   C     C_R   0.499545 0.405901 0.408645 -0.105671
C73   C     C_R   0.437271 0.890184 0.110432 -0.051309
C74   C     C_R   0.444965 0.904102 0.877290 -0.020653
C75   C     C_R   0.944767 0.404023 0.122712 -0.020631
C76   C     C_R   0.937378 0.389987 0.889856 -0.053790
C77   C     C_R   0.944743 0.904006 0.622696 -0.020879
C78   C     C_R   0.937372 0.890219 0.389621 -0.051325
C79   C     C_R   0.445174 0.404296 0.622990 -0.029599
C80   C     C_R   0.445380 0.404373 0.377019 -0.031145
C81   C     C_3   0.355990 0.891959 0.108786 0.600843
C82   C     C_3   0.412813 0.938376 0.848567 0.547234
C83   C     C_3   0.912448 0.438269 0.151440 0.547366
C84   C     C_3   0.856098 0.391495 0.891894 0.601979
C85   C     C_3   0.912368 0.938240 0.651415 0.547635
C86   C     C_3   0.856087 0.892024 0.391347 0.600861
C87   C     C_3   0.413710 0.438687 0.651882 0.552769
C88   C     C_3   0.414095 0.438798 0.348138 0.553160
C89   C     C_R   0.360270 0.750068 0.249937 0.846293
C90   C     C_R   0.360269 0.750008 0.750039 0.828358
C91   C     C_R   0.639732 0.749976 0.250002 0.850734
C92   C     C_R   0.639733 0.750030 0.750018 0.837884
C93   C     C_R   0.860271 0.250051 0.249959 0.832828
C94   C     C_R   0.860268 0.250028 0.750067 0.850298
C95   C     C_R   0.139730 0.250002 0.249968 0.842864
C96   C     C_R   0.139733 0.250015 0.750002 0.852333
C97   C     C_R   0.860271 0.750051 0.749958 0.832521
C98   C     C_R   0.860267 0.750032 0.250069 0.846777
C99   C     C_R   0.139730 0.750001 0.749968 0.843225
C100  C     C_R   0.139735 0.750011 0.249991 0.850848
C101  C     C_R   0.360271 0.250047 0.749962 0.825057
C102  C     C_R   0.360268 0.250015 0.250046 0.831756
C103  C     C_R   0.639733 0.249988 0.749989 0.836846
C104  C     C_R   0.639732 0.250038 0.250026 0.842769
C105  C     C_3   0.357237 0.856075 0.144684 0.547145
C106  C     C_3   0.415517 0.904193 0.811767 0.582706
C107  C     C_3   0.915167 0.404093 0.188252 0.582839
C108  C     C_3   0.857336 0.355591 0.856024 0.548365
C109  C     C_3   0.915079 0.904063 0.688227 0.582794
C110  C     C_3   0.857336 0.856147 0.355451 0.547307
C111  C     C_3   0.416545 0.404510 0.688688 0.585843
C112  C     C_3   0.416911 0.404619 0.311341 0.586207
C113  C     C_R   0.499992 0.940353 0.940708 0.870645
C114  C     C_R   0.500064 0.940530 0.059572 0.843020
C115  C     C_R   0.000111 0.440538 0.940420 0.842300
C116  C     C_R   0.999941 0.440346 0.059285 0.870114
C117  C     C_R   0.000110 0.940530 0.440428 0.843020
C118  C     C_R   0.999941 0.940345 0.559285 0.870692
C119  C     C_R   0.499994 0.440362 0.440702 0.859935
C120  C     C_R   0.499943 0.440359 0.559296 0.860181
C121  C     C_R   0.499858 0.559092 0.439961 0.831779
C122  C     C_R   0.499806 0.559094 0.560035 0.831846
C123  C     C_R   0.000118 0.059333 0.440469 0.808588
C124  C     C_R   0.999801 0.059085 0.560052 0.829940
C125  C     C_R   0.000118 0.559331 0.940466 0.807627
C126  C     C_R   0.999804 0.559094 0.060045 0.828652
C127  C     C_R   0.499854 0.059084 0.939945 0.829328
C128  C     C_R   0.500066 0.059338 0.059528 0.808202
C129  C     C_R   0.499762 0.809214 0.190886 0.900706
C130  C     C_R   0.501421 0.809391 0.809292 0.877663
C131  C     C_R   0.001386 0.309389 0.190707 0.880418
C132  C     C_R   0.999822 0.309216 0.809116 0.902965
C133  C     C_R   0.001382 0.809389 0.690707 0.879806
C134  C     C_R   0.999821 0.809216 0.309116 0.901012
C135  C     C_R   0.501467 0.309390 0.690705 0.874073
C136  C     C_R   0.501503 0.309391 0.309294 0.878158
C137  C     C_1   0.282675 0.750108 0.249934 -0.075037
C138  C     C_1   0.282671 0.749983 0.750023 -0.105548
C139  C     C_1   0.717332 0.749978 0.250034 -0.078196
C140  C     C_1   0.717330 0.750079 0.749997 -0.102777
C141  C     C_1   0.782673 0.250093 0.249981 -0.105543
C142  C     C_1   0.782672 0.250000 0.750072 -0.080704
C143  C     C_1   0.217328 0.249984 0.249981 -0.105798
C144  C     C_1   0.217330 0.250072 0.749988 -0.095122
C145  C     C_1   0.782672 0.750089 0.749974 -0.105968
C146  C     C_1   0.782672 0.750006 0.250075 -0.075670
C147  C     C_1   0.217328 0.749981 0.749979 -0.103910
C148  C     C_1   0.217335 0.750080 0.249955 -0.077767
C149  C     C_1   0.282672 0.250087 0.749975 -0.103451
C150  C     C_1   0.282670 0.249989 0.250028 -0.108028
C151  C     C_1   0.717332 0.249979 0.750025 -0.089050
C152  C     C_1   0.717331 0.250088 0.250008 -0.103600
C153  C     C_R   0.562274 0.648027 0.365685 0.092696
C154  C     C_R   0.562195 0.647968 0.634272 0.097032
C155  C     C_R   0.045807 0.159688 0.378033 0.103994
C156  C     C_R   0.062395 0.147589 0.634700 0.103795
C157  C     C_R   0.045890 0.659650 0.877992 0.102639
C158  C     C_R   0.062409 0.647614 0.134679 0.092894
C159  C     C_R   0.562468 0.147665 0.865276 0.092726
C160  C     C_R   0.545851 0.159642 0.121942 0.100747
C161  C     C_R   0.500054 0.656786 0.341533 -0.080637
C162  C     C_R   0.499948 0.656785 0.658461 -0.081245
C163  C     C_R   0.000751 0.156328 0.341825 -0.097840
C164  C     C_R   0.999885 0.156770 0.658494 -0.082337
C165  C     C_R   0.000740 0.656328 0.841823 -0.098275
C166  C     C_R   0.999911 0.656774 0.158493 -0.080585
C167  C     C_R   0.499995 0.156771 0.841502 -0.081701
C168  C     C_R   0.500681 0.156335 0.158169 -0.097499
C169  C     C_R   0.440089 0.628824 0.344876 -0.235121
C170  C     C_R   0.439896 0.628891 0.655133 -0.234196
C171  C     C_R   0.962196 0.117304 0.335059 -0.237947
C172  C     C_R   0.939517 0.129158 0.654888 -0.234326
C173  C     C_R   0.962084 0.617335 0.835086 -0.235555
C174  C     C_R   0.939556 0.629151 0.154897 -0.235337
C175  C     C_R   0.439725 0.129079 0.845111 -0.234380
C176  C     C_R   0.461923 0.117371 0.164935 -0.237574
C177  C     C_R   0.438752 0.596068 0.376689 0.172199
C178  C     C_R   0.438550 0.596144 0.623311 0.172808
C179  C     C_R   0.961349 0.084812 0.367239 0.115148
C180  C     C_R   0.938208 0.096378 0.623095 0.171138
C181  C     C_R   0.961240 0.584840 0.867264 0.115814
C182  C     C_R   0.938240 0.596378 0.123098 0.171514
C183  C     C_R   0.438423 0.096292 0.876897 0.171495
C184  C     C_R   0.461032 0.084892 0.132746 0.115407
C185  C     C_R   0.499690 0.590576 0.404452 -0.074812
C186  C     C_R   0.499552 0.590595 0.595526 -0.075578
C187  C     C_R   0.001277 0.091158 0.405778 -0.066122
C188  C     C_R   0.999511 0.090548 0.595595 -0.078676
C189  C     C_R   0.001274 0.591152 0.905770 -0.065860
C190  C     C_R   0.999524 0.590566 0.095580 -0.076323
C191  C     C_R   0.499651 0.090532 0.904387 -0.076154
C192  C     C_R   0.501116 0.091188 0.094196 -0.065859
Cu1   Cu    Cu3+1 0.500000 0.780890 0.280900 1.099689
Cu2   Cu    Cu3+1 0.500000 0.780890 0.719100 1.112729
Cu3   Cu    Cu3+1 0.000000 0.280890 0.280900 1.104088
Cu4   Cu    Cu3+1 0.000000 0.280890 0.719100 1.078245
Cu5   Cu    Cu3+1 0.000000 0.780890 0.780900 1.110028
Cu6   Cu    Cu3+1 0.000000 0.780890 0.219100 1.099949
Cu7   Cu    Cu3+1 0.500000 0.280890 0.780900 1.128967
Cu8   Cu    Cu3+1 0.500000 0.280890 0.219100 1.111070
Cu9   Cu    Cu3+1 0.500000 0.719080 0.219090 1.062347
Cu10  Cu    Cu3+1 0.500000 0.719080 0.780910 1.061571
Cu11  Cu    Cu3+1 0.000000 0.219080 0.219090 1.044205
Cu12  Cu    Cu3+1 0.000000 0.219080 0.780910 1.062660
Cu13  Cu    Cu3+1 0.000000 0.719080 0.719090 1.041641
Cu14  Cu    Cu3+1 0.000000 0.719080 0.280910 1.060180
Cu15  Cu    Cu3+1 0.500000 0.219080 0.719090 1.054821
Cu16  Cu    Cu3+1 0.500000 0.219080 0.280910 1.040458
Cu17  Cu    Cu3+1 0.427490 0.999980 0.000000 1.141099
Cu18  Cu    Cu3+1 0.572510 0.999980 0.000000 1.020091
Cu19  Cu    Cu3+1 0.927490 0.499980 0.000000 1.143307
Cu20  Cu    Cu3+1 0.072510 0.499980 0.000000 1.024633
Cu21  Cu    Cu3+1 0.927490 0.999980 0.500000 1.141806
Cu22  Cu    Cu3+1 0.072510 0.999980 0.500000 1.017756
Cu23  Cu    Cu3+1 0.427490 0.499980 0.500000 1.113139
Cu24  Cu    Cu3+1 0.572510 0.499980 0.500000 1.027521
H1    H     H_    0.393068 0.633619 0.324169 0.151577
H2    H     H_    0.392833 0.633729 0.675861 0.152152
H3    H     H_    0.930157 0.112857 0.305878 0.169093
H4    H     H_    0.892230 0.134235 0.675377 0.152896
H5    H     H_    0.929968 0.612916 0.805930 0.169828
H6    H     H_    0.892282 0.634214 0.175399 0.151354
H7    H     H_    0.392488 0.134102 0.824635 0.151991
H8    H     H_    0.429776 0.112963 0.194128 0.168712
H9    H     H_    0.576977 0.650533 0.457297 0.184518
H10   H     H_    0.577122 0.650488 0.542648 0.185361
H11   H     H_    0.661810 0.627212 0.432528 0.224405
H12   H     H_    0.661831 0.627074 0.567368 0.221252
H13   H     H_    0.006034 0.159788 0.467170 0.195626
H14   H     H_    0.078665 0.150097 0.543262 0.186002
H15   H     H_    0.107728 0.156703 0.461877 0.210312
H16   H     H_    0.162722 0.126189 0.568307 0.221923
H17   H     H_    0.006312 0.659778 0.967159 0.194525
H18   H     H_    0.078636 0.650154 0.043242 0.186148
H19   H     H_    0.107988 0.656612 0.961791 0.214583
H20   H     H_    0.162713 0.626248 0.068265 0.225830
H21   H     H_    0.578450 0.150167 0.956704 0.186320
H22   H     H_    0.506327 0.159845 0.032827 0.194769
H23   H     H_    0.662667 0.126370 0.931631 0.225424
H24   H     H_    0.607994 0.156604 0.038068 0.213971
H25   H     H_    0.576827 0.707292 0.403588 0.222672
H26   H     H_    0.576990 0.707228 0.596360 0.221724
H27   H     H_    0.661703 0.683782 0.378977 0.220919
H28   H     H_    0.661747 0.683626 0.620920 0.209250
H29   H     H_    0.003243 0.215977 0.412899 0.218674
H30   H     H_    0.078767 0.206791 0.596932 0.219058
H31   H     H_    0.105041 0.212919 0.408058 0.206264
H32   H     H_    0.162732 0.182663 0.621953 0.208812
H33   H     H_    0.003534 0.715974 0.912894 0.218552
H34   H     H_    0.078752 0.706833 0.096930 0.222953
H35   H     H_    0.105314 0.712830 0.907972 0.211509
H36   H     H_    0.162735 0.682709 0.121929 0.221152
H37   H     H_    0.578531 0.206879 0.903037 0.223474
H38   H     H_    0.503630 0.216014 0.087108 0.218869
H39   H     H_    0.662652 0.182863 0.877986 0.221442
H40   H     H_    0.605400 0.212796 0.091905 0.211123
H41   H     H_    0.619186 0.902987 0.097066 0.201482
H42   H     H_    0.593492 0.872418 0.934718 0.188890
H43   H     H_    0.093492 0.372462 0.065188 0.189238
H44   H     H_    0.119279 0.403444 0.902327 0.203058
H45   H     H_    0.093537 0.872485 0.565214 0.188910
H46   H     H_    0.119276 0.902933 0.402831 0.201324
H47   H     H_    0.592748 0.372100 0.564766 0.186982
H48   H     H_    0.592759 0.372055 0.435142 0.187016
O1    O     O_R   0.500000 0.731000 0.321180 -0.589976
O2    O     O_R   0.500000 0.731000 0.678820 -0.589542
O3    O     O_R   0.000000 0.231000 0.321180 -0.590549
O4    O     O_R   0.000000 0.231000 0.678820 -0.592772
O5    O     O_R   0.000000 0.731000 0.821180 -0.589622
O6    O     O_R   0.000000 0.731000 0.178820 -0.589814
O7    O     O_R   0.500000 0.231000 0.821180 -0.587595
O8    O     O_R   0.500000 0.231000 0.178820 -0.589349
O9    O     O_R   0.500000 0.678810 0.268980 -0.576554
O10   O     O_R   0.500000 0.678810 0.731020 -0.576060
O11   O     O_R   0.000000 0.178810 0.268980 -0.589768
O12   O     O_R   0.000000 0.178810 0.731020 -0.576079
O13   O     O_R   0.000000 0.678810 0.768980 -0.589444
O14   O     O_R   0.000000 0.678810 0.231020 -0.576821
O15   O     O_R   0.500000 0.178810 0.768980 -0.575553
O16   O     O_R   0.500000 0.178810 0.231020 -0.589808
O17   O     O_R   0.394200 0.776090 0.276090 -0.554204
O18   O     O_R   0.394200 0.776090 0.723910 -0.546763
O19   O     O_R   0.605800 0.776090 0.276090 -0.549966
O20   O     O_R   0.605800 0.776090 0.723910 -0.563811
O21   O     O_R   0.894200 0.276090 0.276090 -0.546846
O22   O     O_R   0.894200 0.276090 0.723910 -0.559160
O23   O     O_R   0.105800 0.276090 0.276090 -0.564900
O24   O     O_R   0.105800 0.276090 0.723910 -0.563889
O25   O     O_R   0.894200 0.776090 0.776090 -0.546211
O26   O     O_R   0.894200 0.776090 0.223910 -0.554052
O27   O     O_R   0.105800 0.776090 0.776090 -0.562289
O28   O     O_R   0.105800 0.776090 0.223910 -0.549848
O29   O     O_R   0.394200 0.276090 0.776090 -0.541329
O30   O     O_R   0.394200 0.276090 0.223910 -0.545673
O31   O     O_R   0.605800 0.276090 0.776090 -0.551553
O32   O     O_R   0.605800 0.276090 0.223910 -0.562203
O33   O     O_R   0.394210 0.723900 0.223890 -0.577572
O34   O     O_R   0.394210 0.723900 0.776110 -0.591834
O35   O     O_R   0.605790 0.723900 0.223890 -0.585050
O36   O     O_R   0.605790 0.723900 0.776110 -0.566169
O37   O     O_R   0.894210 0.223900 0.223890 -0.594067
O38   O     O_R   0.894210 0.223900 0.776110 -0.575220
O39   O     O_R   0.105790 0.223900 0.223890 -0.566995
O40   O     O_R   0.105790 0.223900 0.776110 -0.580469
O41   O     O_R   0.894210 0.723900 0.723890 -0.595264
O42   O     O_R   0.894210 0.723900 0.276110 -0.577858
O43   O     O_R   0.105790 0.723900 0.723890 -0.568624
O44   O     O_R   0.105790 0.723900 0.276110 -0.585561
O45   O     O_R   0.394210 0.223900 0.723890 -0.596234
O46   O     O_R   0.394210 0.223900 0.276110 -0.595940
O47   O     O_R   0.605790 0.223900 0.723890 -0.571181
O48   O     O_R   0.605790 0.223900 0.276110 -0.567441
O49   O     O_R   0.500000 0.821170 0.231010 -0.549442
O50   O     O_R   0.500000 0.821170 0.768990 -0.527160
O51   O     O_R   0.000000 0.321170 0.231010 -0.526910
O52   O     O_R   0.000000 0.321170 0.768990 -0.549751
O53   O     O_R   0.000000 0.821170 0.731010 -0.526619
O54   O     O_R   0.000000 0.821170 0.268990 -0.549270
O55   O     O_R   0.500000 0.321170 0.731010 -0.526282
O56   O     O_R   0.500000 0.321170 0.268990 -0.525778
O57   O     O_R   0.500000 0.768980 0.178810 -0.557804
O58   O     O_R   0.500000 0.768980 0.821190 -0.556612
O59   O     O_R   0.000000 0.268980 0.178810 -0.556314
O60   O     O_R   0.000000 0.268980 0.821190 -0.557420
O61   O     O_R   0.000000 0.768980 0.678810 -0.557268
O62   O     O_R   0.000000 0.768980 0.321190 -0.558319
O63   O     O_R   0.500000 0.268980 0.678810 -0.559582
O64   O     O_R   0.500000 0.268980 0.321190 -0.558793
O65   O     O_R   0.438730 0.954890 0.954890 -0.530260
O66   O     O_R   0.438730 0.954890 0.045110 -0.523281
O67   O     O_R   0.561270 0.954890 0.954890 -0.584983
O68   O     O_R   0.561270 0.954890 0.045110 -0.606851
O69   O     O_R   0.938730 0.454890 0.954890 -0.523730
O70   O     O_R   0.938730 0.454890 0.045110 -0.530240
O71   O     O_R   0.061270 0.454890 0.954890 -0.605619
O72   O     O_R   0.061270 0.454890 0.045110 -0.584689
O73   O     O_R   0.938730 0.954890 0.454890 -0.523111
O74   O     O_R   0.938730 0.954890 0.545110 -0.530273
O75   O     O_R   0.061270 0.954890 0.454890 -0.606974
O76   O     O_R   0.061270 0.954890 0.545110 -0.585148
O77   O     O_R   0.438730 0.454890 0.454890 -0.546252
O78   O     O_R   0.438730 0.454890 0.545110 -0.545871
O79   O     O_R   0.561270 0.454890 0.454890 -0.584382
O80   O     O_R   0.561270 0.454890 0.545110 -0.585791
O81   O     O_R   0.438760 0.545060 0.454900 -0.548825
O82   O     O_R   0.438760 0.545060 0.545100 -0.548460
O83   O     O_R   0.561240 0.545060 0.454900 -0.589305
O84   O     O_R   0.561240 0.545060 0.545100 -0.590637
O85   O     O_R   0.938760 0.045060 0.454900 -0.556358
O86   O     O_R   0.938760 0.045060 0.545100 -0.547987
O87   O     O_R   0.061240 0.045060 0.454900 -0.595749
O88   O     O_R   0.061240 0.045060 0.545100 -0.588757
O89   O     O_R   0.938760 0.545060 0.954900 -0.556690
O90   O     O_R   0.938760 0.545060 0.045100 -0.548419
O91   O     O_R   0.061240 0.545060 0.954900 -0.593660
O92   O     O_R   0.061240 0.545060 0.045100 -0.587840
O93   O     O_R   0.438760 0.045060 0.954900 -0.548484
O94   O     O_R   0.438760 0.045060 0.045100 -0.556816
O95   O     O_R   0.561240 0.045060 0.954900 -0.587981
O96   O     O_R   0.561240 0.045060 0.045100 -0.594902
N1    N     N_3   0.374862 0.569669 0.381321 -0.486774
H49   H     H_    0.331143 0.590221 0.388663 0.222827
H50   H     H_    0.363940 0.555106 0.351363 0.287893
N2    N     N_3   0.374606 0.569806 0.618700 -0.487729
H51   H     H_    0.330954 0.590404 0.611399 0.223078
H52   H     H_    0.363582 0.555221 0.648653 0.286210
N3    N     N_3   0.919473 0.045941 0.361011 -0.524515
H53   H     H_    0.865240 0.054978 0.355965 0.258802
H54   H     H_    0.938105 0.030661 0.332782 0.246690
N4    N     N_3   0.874022 0.070296 0.618226 -0.486464
H55   H     H_    0.830669 0.091067 0.610781 0.225504
H56   H     H_    0.862536 0.055713 0.648120 0.287154
N5    N     N_3   0.919260 0.546003 0.861069 -0.524033
H57   H     H_    0.865033 0.555083 0.856075 0.260603
H58   H     H_    0.937783 0.530713 0.832820 0.247305
N6    N     N_3   0.874064 0.570285 0.118242 -0.486804
H59   H     H_    0.830697 0.591049 0.110806 0.223912
H60   H     H_    0.862601 0.555700 0.148138 0.287133
N7    N     N_3   0.374299 0.070139 0.881777 -0.486834
H61   H     H_    0.330867 0.090858 0.889261 0.223758
H62   H     H_    0.362930 0.055579 0.851876 0.287128
N8    N     N_3   0.418974 0.046083 0.138983 -0.524537
H63   H     H_    0.364763 0.055199 0.144047 0.258442
H64   H     H_    0.437452 0.030766 0.167206 0.246763
Cl1   Cl    Cl    0.652597 0.839113 0.160979 -0.571028
Cl2   Cl    Cl    0.623488 0.801393 0.878567 -0.558719
Cl3   Cl    Cl    0.123572 0.301483 0.121345 -0.559226
Cl4   Cl    Cl    0.152687 0.339691 0.838243 -0.559959
Cl5   Cl    Cl    0.123620 0.801511 0.621378 -0.561933
Cl6   Cl    Cl    0.152685 0.839038 0.338885 -0.571518
Cl7   Cl    Cl    0.622738 0.300997 0.620773 -0.565980
Cl8   Cl    Cl    0.622671 0.300914 0.379132 -0.560717
Cl9   Cl    Cl    0.322160 0.944197 0.124847 -0.481386
Cl10  Cl    Cl    0.471551 0.984682 0.842269 -0.544192
Cl11  Cl    Cl    0.321955 0.875648 0.056889 -0.455912
Cl12  Cl    Cl    0.324193 0.954023 0.866997 -0.451580
Cl13  Cl    Cl    0.971030 0.484640 0.157687 -0.544442
Cl14  Cl    Cl    0.821632 0.443610 0.875942 -0.468471
Cl15  Cl    Cl    0.823828 0.453824 0.133058 -0.449549
Cl16  Cl    Cl    0.822714 0.375112 0.943971 -0.453307
Cl17  Cl    Cl    0.970907 0.984627 0.657684 -0.544708
Cl18  Cl    Cl    0.822323 0.944275 0.375314 -0.481283
Cl19  Cl    Cl    0.823752 0.953773 0.633005 -0.450257
Cl20  Cl    Cl    0.821967 0.875715 0.443279 -0.455795
Cl21  Cl    Cl    0.472961 0.484797 0.657810 -0.545175
Cl22  Cl    Cl    0.473510 0.484839 0.342163 -0.540854
Cl23  Cl    Cl    0.325011 0.454615 0.633959 -0.480024
Cl24  Cl    Cl    0.325400 0.454822 0.366110 -0.469374
Cl25  Cl    Cl    0.325475 0.871661 0.197338 -0.474572
Cl26  Cl    Cl    0.475960 0.916924 0.767772 -0.426682
Cl27  Cl    Cl    0.325277 0.803193 0.129447 -0.513161
Cl28  Cl    Cl    0.329756 0.884492 0.792490 -0.461568
Cl29  Cl    Cl    0.975462 0.416892 0.232209 -0.429200
Cl30  Cl    Cl    0.824940 0.371039 0.803511 -0.478320
Cl31  Cl    Cl    0.829418 0.384302 0.207585 -0.461395
Cl32  Cl    Cl    0.825999 0.302617 0.871462 -0.511185
Cl33  Cl    Cl    0.975317 0.916878 0.732206 -0.427056
Cl34  Cl    Cl    0.825660 0.871754 0.302827 -0.474328
Cl35  Cl    Cl    0.829328 0.884243 0.707526 -0.461580
Cl36  Cl    Cl    0.825299 0.803274 0.370723 -0.513677
Cl37  Cl    Cl    0.477685 0.417045 0.732307 -0.426285
Cl38  Cl    Cl    0.478201 0.417083 0.267685 -0.425016
Cl39  Cl    Cl    0.330843 0.385122 0.708502 -0.462603
Cl40  Cl    Cl    0.331195 0.385333 0.291584 -0.466038

loop_
_geom_bond_atom_site_label_1
_geom_bond_atom_site_label_2
_ccdc_geom_bond_type
C83   Cl15  S    
C90   O18   A    
C34   C42   A    
C10   C154  A    
C117  O73   A    
C89   O33   A    
C14   C158  A    
C39   C47   A    
C105  Cl27  S    
C106  Cl28  S    
C113  O67   A    
Cu6   Cu14  S    
Cu22  O87   S    
C70   C117  S    
Cu23  O81   S    
Cu1   Cu9   S    
C62   C70   A    
C176  C184  A    
C169  C177  A    
N8    H64   S    
C99   C147  S    
C89   O17   A    
C8    C168  S    
C22   H18   S    
Cu3   O51   S    
C174  H6    S    
C82   Cl12  S    
C99   O43   A    
Cu4   Cu12  S    
C37   C109  S    
C24   H24   S    
C39   C111  S    
Cu8   Cu16  S    
Cu17  O93   S    
C79   C87   S    
C12   C188  A    
Cu8   O30   S    
C94   O38   A    
C7    O15   A    
C73   C81   S    
C119  O77   A    
C166  C174  A    
C34   C106  S    
C111  Cl39  S    
C128  O94   A    
C38   C78   A    
Cu21  O85   S    
C153  C161  A    
C23   C31   S    
C142  C151  T    
Cu23  Cu24  S    
C24   C32   S    
C27   H31   S    
C2    O10   A    
C12   C20   S    
C13   C21   S    
C81   Cl9   S    
C19   H13   S    
Cu13  O43   S    
Cu14  O44   S    
C33   C73   A    
C170  C178  A    
C36   C44   A    
Cu9   O35   S    
C37   C45   A    
C6    O14   A    
C117  O75   A    
Cu7   O7    S    
Cu8   O8    S    
C15   C191  A    
Cu6   O6    S    
Cu1   O17   S    
C50   Cl2   S    
C86   C110  S    
C97   C145  S    
C106  Cl26  S    
C140  C145  T    
Cu17  O66   S    
C115  O71   A    
C44   C132  S    
Cu14  O62   S    
C45   C133  S    
Cu24  O83   S    
C17   C25   S    
C104  C152  S    
C43   C131  S    
C61   H45   S    
C100  O28   A    
C101  O29   A    
Cu20  O71   S    
C132  O52   A    
C10   C18   S    
C103  O47   A    
C57   H41   S    
C159  C167  A    
C97   O25   A    
C160  C168  A    
Cu20  O92   S    
Cu5   O5    S    
C114  O68   A    
C35   C107  S    
C133  O53   A    
C96   C144  S    
C178  C186  A    
C127  O93   A    
C87   C111  S    
C80   C88   S    
Cu13  O13   S    
C175  H7    S    
C182  C190  A    
C121  O81   A    
Cu9   O9    S    
Cu12  O60   S    
C130  O58   A    
C66   C113  S    
C180  N4    S    
C16   C160  A    
C137  C148  T    
C69   C77   A    
Cu2   O2    S    
C48   C56   A    
C112  Cl38  S    
C174  C182  A    
C71   C79   A    
N4    H55   S    
C40   C112  S    
C58   H42   S    
C9    C185  A    
C27   H29   S    
C122  C186  S    
C40   C80   A    
C66   C74   A    
C49   C57   A    
N2    H51   S    
C126  C190  S    
Cu18  O96   S    
C129  O49   A    
C52   C60   A    
C107  Cl29  S    
C125  O91   A    
C88   Cl22  S    
C30   H36   S    
C55   C63   A    
C56   C64   A    
C91   O19   A    
Cu16  O46   S    
C35   C43   A    
C172  H4    S    
C48   C136  S    
C161  C169  A    
C44   C52   A    
C77   C85   S    
Cu1   O19   S    
C109  Cl33  S    
Cu2   O20   S    
Cu8   O32   S    
C171  C179  A    
C181  C189  A    
C12   C156  A    
Cu4   O22   S    
C13   C157  A    
C90   C138  S    
N6    H60   S    
C115  O69   A    
C81   C105  S    
C94   C142  S    
C118  O76   A    
C157  C165  A    
C124  C188  S    
C133  O61   A    
C155  C163  A    
Cu13  O61   S    
C127  C191  S    
C128  C192  S    
Cu19  O90   S    
C29   H33   S    
C129  O57   A    
C67   C116  S    
C114  O66   A    
Cu9   O57   S    
C102  O46   A    
Cu21  O74   S    
Cu17  Cu18  S    
Cu17  O65   S    
C28   H30   S    
C121  O83   A    
Cu4   O52   S    
C42   C50   A    
Cu5   O25   S    
Cu18  O67   S    
Cu11  O37   S    
Cu4   O4    S    
C67   C75   A    
C17   H9    S    
C112  Cl40  S    
Cu3   O3    S    
C167  C175  A    
C168  C176  A    
C7    C167  S    
C95   O39   A    
C176  H8    S    
C47   C135  S    
C154  C162  A    
C31   C159  S    
C3    O11   A    
C25   H25   S    
C68   C76   A    
C97   O41   A    
C31   H39   S    
C14   C22   S    
C92   O20   A    
C87   Cl23  S    
C93   O21   A    
C17   H11   S    
C135  O55   A    
Cu22  O88   S    
C136  O56   A    
C95   O23   A    
C127  O95   A    
C98   O42   A    
C104  O48   A    
Cu23  O78   S    
Cu15  O47   S    
C183  N7    S    
Cu16  O48   S    
C38   C46   A    
C164  C172  A    
C173  C181  A    
C14   C190  A    
C53   Cl5   S    
Cu12  O12   S    
Cu7   O29   S    
C32   H38   S    
Cu2   O18   S    
C110  Cl36  S    
Cu3   O23   S    
C96   O40   A    
Cu7   O55   S    
Cu4   O24   S    
C49   Cl1   S    
Cu8   O56   S    
C126  O92   A    
C60   H44   S    
C141  C152  T    
C169  H1    S    
C130  O50   A    
C139  C146  T    
C95   C143  S    
N8    H63   S    
Cu24  O79   S    
Cu5   Cu13  S    
C18   C26   S    
C84   Cl14  S    
C118  O74   A    
C173  H5    S    
C76   C84   S    
C24   H22   S    
N7    H61   S    
C102  O30   A    
Cu21  Cu22  S    
N1    H50   S    
C11   C19   S    
C29   H35   S    
Cu15  O15   S    
C98   O26   A    
C85   C109  S    
N5    H58   S    
C179  C187  A    
Cu9   O33   S    
Cu2   Cu10  S    
C69   C118  S    
C177  C185  A    
Cu14  O14   S    
Cu16  O16   S    
C28   H32   S    
C108  Cl30  S    
C41   C49   A    
C180  C188  A    
C123  O87   A    
Cu10  O10   S    
C21   H17   S    
Cu5   O27   S    
Cu6   O28   S    
C107  Cl31  S    
C184  C192  A    
C108  Cl32  S    
C182  N6    S    
C6    O6    A    
C38   C110  S    
C163  C171  A    
C103  C151  S    
C172  C180  A    
C1    C161  S    
C59   H43   S    
C122  O84   A    
C74   C82   S    
C55   Cl7   S    
C124  O86   A    
C25   H27   S    
C27   C155  S    
C181  N5    S    
C20   H14   S    
C31   H37   S    
C25   C153  S    
C50   C58   A    
Cu15  O63   S    
C128  O96   A    
C87   Cl21  S    
C29   C157  S    
C5    O5    A    
C54   C62   A    
C37   C77   A    
Cu24  O84   S    
C39   C79   A    
C15   C159  A    
C23   H23   S    
Cu20  O72   S    
Cu19  Cu20  S    
C162  C170  A    
C91   O35   A    
C83   Cl13  S    
C46   C54   A    
C110  Cl34  S    
C33   C105  S    
Cu3   O21   S    
C178  N2    S    
C126  O90   A    
C18   H12   S    
C102  C150  S    
C91   C139  S    
C85   Cl17  S    
C89   C137  S    
Cu17  O94   S    
C136  O64   A    
C84   Cl16  S    
C92   C140  S    
C93   C141  S    
C158  C166  A    
C132  O60   A    
C177  N1    S    
Cu22  O76   S    
C116  O70   A    
C57   C65   A    
C63   H47   S    
N4    H56   S    
C64   H48   S    
C111  Cl37  S    
C104  O32   A    
C20   C28   S    
Cu21  O86   S    
Cu10  O36   S    
C33   C41   A    
Cu12  O38   S    
C123  O85   A    
C75   C83   S    
C21   H19   S    
C21   C29   S    
C43   C51   A    
Cu6   O26   S    
C96   O24   A    
N2    H52   S    
Cu1   O49   S    
C68   C115  S    
C88   C112  S    
Cu15  O45   S    
C84   C108  S    
Cu22  O75   S    
C60   C68   A    
C72   C80   A    
C134  O62   A    
C122  O82   A    
Cu20  O91   S    
C131  O59   A    
C124  O88   A    
C2    O2    A    
C20   H16   S    
C70   C78   A    
C88   Cl24  S    
C65   C114  S    
N3    H53   S    
C134  O54   A    
C65   C73   A    
C94   O22   A    
C35   C75   A    
C71   C120  S    
C92   O36   A    
C11   C187  A    
C93   O37   A    
C184  N8    S    
C23   H21   S    
C26   H28   S    
N7    H62   S    
C46   C134  S    
C165  C173  A    
Cu16  O64   S    
C13   C189  A    
Cu6   O54   S    
C81   Cl11  S    
Cu19  O89   S    
C101  C149  S    
C40   C48   A    
C36   C76   A    
C10   C186  A    
C58   C66   A    
C143  C150  T    
C85   Cl19  S    
C6    C166  S    
C86   Cl20  S    
C4    C164  S    
C5    C165  S    
C18   H10   S    
C1    O9    A    
Cu21  O73   S    
C59   C67   A    
C78   C86   S    
C82   C106  S    
C16   C24   S    
Cu14  O42   S    
Cu18  O68   S    
C32   H40   S    
C116  O72   A    
C53   C61   A    
C99   O27   A    
C8    O16   A    
C135  O63   A    
Cu10  O34   S    
C36   C108  S    
Cu11  O39   S    
C4    O12   A    
Cu12  O40   S    
C5    O13   A    
C62   H46   S    
N3    H54   S    
Cu23  O82   S    
C98   C146  S    
Cu11  O11   S    
C120  O78   A    
C9    C153  A    
C30   H34   S    
C131  O51   A    
C121  C185  S    
C52   Cl4   S    
C105  Cl25  S    
Cu18  O95   S    
Cu10  O58   S    
C144  C149  T    
C113  O65   A    
C120  O80   A    
C138  C147  T    
Cu7   Cu15  S    
Cu23  O77   S    
C1    O1    A    
C42   C130  S    
C3    O3    A    
C22   H20   S    
C9    C17   S    
C34   C74   A    
Cu19  O70   S    
C109  Cl35  S    
C125  O89   A    
C26   C154  S    
C51   C59   A    
Cu5   O53   S    
C19   C27   S    
N6    H59   S    
Cu2   O50   S    
C47   C55   A    
C61   C69   A    
C30   C158  S    
C16   C192  A    
C51   Cl3   S    
Cu24  O80   S    
C175  C183  A    
C4    O4    A    
C8    O8    A    
C63   C71   A    
C183  C191  A    
C125  C189  S    
C26   H26   S    
C119  O79   A    
C11   C155  A    
N1    H49   S    
Cu1   O1    S    
C3    C163  S    
C22   C30   S    
N5    H57   S    
C41   C129  S    
Cu7   O31   S    
C90   O34   A    
C103  O31   A    
C100  C148  S    
C86   Cl18  S    
C72   C119  S    
C15   C23   S    
C56   Cl8   S    
C83   C107  S    
C64   C72   A    
C123  C187  S    
C171  H3    S    
C45   C53   A    
C7    O7    A    
C100  O44   A    
C101  O45   A    
C156  C164  A    
C82   Cl10  S    
Cu19  O69   S    
C28   C156  S    
C179  N3    S    
C32   C160  S    
C19   H15   S    
Cu13  O41   S    
Cu3   Cu11  S    
Cu11  O59   S    
C2    C162  S    
C170  H2    S    
C54   Cl6   S    
