data_mof_unit_34927.cif
_audit_creation_date              2012-12-10T16:38:09-0500
_audit_creation_method            fapswitch 2.2
_symmetry_space_group_name_H-M    P1
_symmetry_Int_Tables_number       1
_space_group_crystal_system       triclinic
_cell_length_a                    28.288479
_cell_length_b                    18.597211
_cell_length_c                    16.861248
_cell_angle_alpha                 89.947383
_cell_angle_beta                  61.015646
_cell_angle_gamma                 89.915948
_cell_volume                      7759.46230996

loop_
_atom_site_label
_atom_site_type_symbol
_atom_type_description
_atom_site_fract_x
_atom_site_fract_y
_atom_site_fract_z
_atom_type_partial_charge
C1    C     C_R   0.700030 0.264516 0.677122 0.888822
C2    C     C_R   0.111590 0.500080 0.459160 0.064434
C3    C     C_R   0.194199 0.208800 0.904646 0.075411
C4    C     C_R   0.665628 0.403587 0.984431 -0.193709
C5    C     C_R   0.346190 0.610198 0.991685 -0.205049
C6    C     C_R   0.346920 0.388744 0.990235 -0.206081
C7    C     C_R   0.647773 0.621319 0.018529 -0.224293
C8    C     C_R   0.153770 0.889727 0.008396 -0.205115
C9    C     C_R   0.852943 0.121747 0.980281 -0.207216
C10   C     C_R   0.842572 0.897799 0.998342 -0.198572
C11   C     C_R   0.153119 0.111188 0.009685 -0.205977
C12   C     C_R   0.699240 0.391726 0.022908 0.197875
C13   C     C_R   0.388407 0.999916 0.540856 0.064375
C14   C     C_R   0.326497 0.635961 0.935890 0.195201
C15   C     C_R   0.327198 0.362818 0.934629 0.194275
C16   C     C_R   0.667173 0.649582 0.073212 0.179714
C17   C     C_R   0.173445 0.863926 0.064198 0.195063
C18   C     C_R   0.833644 0.148530 0.924665 0.180562
C19   C     C_R   0.821581 0.875208 0.942829 0.200978
C20   C     C_R   0.172853 0.137083 0.065292 0.194182
C21   C     C_R   0.729486 0.186760 0.807720 -0.188306
C22   C     C_R   0.270737 0.812575 0.192138 -0.196739
C23   C     C_R   0.270568 0.187587 0.192506 -0.196601
C24   C     C_R   0.576813 0.000037 0.577194 0.072320
C25   C     C_R   0.727581 0.816418 0.807610 -0.192288
C26   C     C_R   0.229243 0.687394 0.807868 -0.196659
C27   C     C_R   0.761205 0.309215 0.199857 -0.195612
C28   C     C_R   0.768859 0.691456 0.192353 -0.190317
C29   C     C_R   0.229447 0.312393 0.807487 -0.196532
C30   C     C_R   0.755760 0.167389 0.856234 -0.216373
C31   C     C_R   0.246781 0.835484 0.141288 -0.220105
C32   C     C_R   0.246432 0.164831 0.141946 -0.220367
C33   C     C_R   0.750432 0.841585 0.859337 -0.215574
C34   C     C_R   0.253183 0.664459 0.858734 -0.220084
C35   C     C_R   0.117524 0.370702 0.439936 -0.243378
C36   C     C_R   0.735667 0.330730 0.150707 -0.223217
C37   C     C_R   0.743491 0.671105 0.143001 -0.217587
C38   C     C_R   0.253598 0.335125 0.858032 -0.220343
C39   C     C_R   0.079975 0.090206 0.928376 0.916743
C40   C     C_R   0.919280 0.911671 0.072584 0.926010
C41   C     C_R   0.921432 0.093497 0.069862 0.915026
C42   C     C_R   0.080117 0.910093 0.928208 0.921463
C43   C     C_R   0.579154 0.592053 0.929414 0.920061
C44   C     C_R   0.420024 0.409795 0.071623 0.917712
C45   C     C_R   0.419883 0.589904 0.071795 0.918351
C46   C     C_R   0.928505 0.629981 0.408163 -0.247212
C47   C     C_R   0.579686 0.409167 0.928215 0.919968
C48   C     C_R   0.522336 0.130211 0.589603 0.110525
C49   C     C_R   0.428080 0.870066 0.572923 0.100412
C50   C     C_R   0.427644 0.129777 0.573405 0.100535
C51   C     C_R   0.522558 0.869797 0.589747 0.110241
C52   C     C_R   0.071943 0.629922 0.427023 0.100395
C53   C     C_R   0.977633 0.369779 0.410505 0.110166
C54   C     C_R   0.977458 0.630193 0.410214 0.110244
C55   C     C_R   0.072322 0.370211 0.426697 0.100474
C56   C     C_R   0.494404 0.194590 0.597349 -0.198914
C57   C     C_R   0.928582 0.369912 0.408726 -0.247632
C58   C     C_R   0.447863 0.805526 0.589262 -0.201303
C59   C     C_R   0.447273 0.194335 0.589756 -0.201077
C60   C     C_R   0.494858 0.805362 0.597256 -0.198427
C61   C     C_R   0.052174 0.694457 0.410638 -0.200853
C62   C     C_R   0.005545 0.305392 0.402813 -0.198339
C63   C     C_R   0.005176 0.694622 0.402653 -0.197998
C64   C     C_R   0.052675 0.305646 0.410403 -0.200939
C65   C     C_R   0.453873 0.064990 0.569888 0.033850
C66   C     C_R   0.501181 0.934873 0.578800 0.031534
C67   C     C_R   0.501049 0.065102 0.578799 0.031629
C68   C     C_R   0.117047 0.629520 0.440577 -0.243670
C69   C     C_R   0.454060 0.934908 0.569730 0.033985
C70   C     C_R   0.998824 0.565119 0.421194 0.031593
C71   C     C_R   0.046106 0.435001 0.430182 0.033985
C72   C     C_R   0.045948 0.565084 0.430257 0.034033
C73   C     C_R   0.998930 0.434890 0.421275 0.031722
C74   C     C_R   0.973638 0.499986 0.421559 -0.052728
C75   C     C_R   0.067878 0.500059 0.440062 -0.049784
C76   C     C_R   0.432116 0.999934 0.559962 -0.049903
C77   C     C_R   0.526354 0.000008 0.578477 -0.052897
C78   C     C_R   0.897856 0.433934 0.424488 0.056550
C79   C     C_R   0.571503 0.870012 0.591821 -0.247556
C80   C     C_R   0.133885 0.565878 0.467312 0.057494
C81   C     C_R   0.134079 0.434287 0.467029 0.056814
C82   C     C_R   0.897842 0.565978 0.424215 0.055959
C83   C     C_R   0.366123 0.934117 0.532675 0.057487
C84   C     C_R   0.602133 0.066064 0.575558 0.056788
C85   C     C_R   0.602158 0.934018 0.575797 0.055925
C86   C     C_R   0.365910 0.065710 0.533005 0.056752
C87   C     C_R   0.843122 0.434961 0.441452 -0.115816
C88   C     C_R   0.172758 0.564346 0.499480 -0.100223
C89   C     C_R   0.172836 0.435720 0.499361 -0.099975
C90   C     C_R   0.382452 0.129289 0.560132 -0.243496
C91   C     C_R   0.843118 0.565016 0.441323 -0.115519
C92   C     C_R   0.327246 0.935653 0.500512 -0.100248
C93   C     C_R   0.656872 0.065038 0.558577 -0.115229
C94   C     C_R   0.656880 0.934983 0.558692 -0.115332
C95   C     C_R   0.327158 0.064279 0.500659 -0.100027
C96   C     C_R   0.817790 0.500016 0.447079 -0.298502
C97   C     C_R   0.189750 0.499997 0.517070 -0.321789
C98   C     C_R   0.310250 0.000003 0.482935 -0.321901
C99   C     C_R   0.682204 0.999984 0.552950 -0.299864
C100  C     C_3   0.713876 0.457219 0.059203 -0.958585
C101  C     C_R   0.382974 0.870470 0.559377 -0.243982
C102  C     C_3   0.358650 0.613873 0.837364 -0.949412
C103  C     C_3   0.359614 0.383891 0.835744 -0.949281
C104  C     C_3   0.633518 0.634118 0.173722 -0.932415
C105  C     C_3   0.141253 0.885928 0.162765 -0.948800
C106  C     C_3   0.866119 0.129265 0.825182 -0.938669
C107  C     C_3   0.850566 0.904907 0.847411 -0.946910
C108  C     C_3   0.140465 0.115931 0.164150 -0.948917
C109  C     C_R   0.299308 0.734058 0.322927 0.895295
C110  C     C_R   0.571399 0.130082 0.591350 -0.248429
C111  C     C_R   0.726618 0.277361 0.943860 -0.026165
C112  C     C_R   0.277903 0.729236 0.047243 -0.025791
C113  C     C_R   0.278061 0.270541 0.047010 -0.025663
C114  C     C_R   0.718594 0.737561 0.956518 -0.023824
C115  C     C_R   0.222064 0.770693 0.952796 -0.025783
C116  C     C_R   0.782744 0.238659 0.038656 -0.022055
C117  C     C_R   0.774996 0.778383 0.050200 -0.027192
C118  C     C_R   0.221965 0.229404 0.952956 -0.025630
C119  C     C_R   0.759423 0.215268 0.918235 0.066952
C120  C     C_R   0.299276 0.266004 0.322956 0.894746
C121  C     C_R   0.244368 0.790860 0.075412 0.069161
C122  C     C_R   0.244206 0.209347 0.075737 0.069070
C123  C     C_R   0.752363 0.799064 0.927436 0.070211
C124  C     C_R   0.255594 0.709064 0.924628 0.069188
C125  C     C_R   0.747771 0.298994 0.067070 0.068593
C126  C     C_R   0.740982 0.717501 0.078617 0.067697
C127  C     C_R   0.255823 0.290594 0.924229 0.069058
C128  C     C_R   0.792343 0.200865 0.958903 0.028427
C129  C     C_R   0.213603 0.809307 0.031644 0.022907
C130  C     C_R   0.213322 0.191124 0.032162 0.023301
C131  C     C_R   0.700616 0.734316 0.677098 0.886663
C132  C     C_R   0.782594 0.818682 0.972507 0.020068
C133  C     C_R   0.286352 0.690602 0.968412 0.022945
C134  C     C_R   0.724362 0.323331 0.012943 0.024835
C135  C     C_R   0.709178 0.700961 0.036841 0.027820
C136  C     C_R   0.286714 0.308803 0.967790 0.023304
C137  C     C_R   0.661346 0.353128 0.926281 0.014044
C138  C     C_R   0.340989 0.649625 0.066697 0.021390
C139  C     C_R   0.341410 0.349808 0.065916 0.022198
C140  C     C_R   0.655352 0.656552 0.938967 0.029466
C141  C     C_R   0.158991 0.850334 0.933343 0.021414
C142  C     C_R   0.200693 0.765943 0.677073 0.895396
C143  C     C_R   0.845598 0.158520 0.058850 0.026738
C144  C     C_R   0.838858 0.855419 0.070109 0.018638
C145  C     C_R   0.158607 0.150161 0.934046 0.022153
C146  C     C_R   0.626061 0.362167 0.888774 -0.121203
C147  C     C_R   0.372612 0.635473 0.110441 -0.122391
C148  C     C_R   0.372836 0.364132 0.110013 -0.122203
C149  C     C_R   0.625571 0.639280 0.892545 -0.120680
C150  C     C_R   0.127386 0.864518 0.889571 -0.123625
C151  C     C_R   0.875394 0.141976 0.105624 -0.117161
C152  C     C_R   0.871674 0.867006 0.112089 -0.122690
C153  C     C_R   0.799092 0.234206 0.322691 0.889037
C154  C     C_R   0.127162 0.135867 0.889976 -0.121673
C155  C     C_R   0.634852 0.324870 0.812377 -0.288554
C156  C     C_R   0.360896 0.668418 0.190596 -0.297071
C157  C     C_R   0.360928 0.331403 0.190425 -0.297667
C158  C     C_R   0.638721 0.669883 0.810435 -0.300780
C159  C     C_R   0.139117 0.831598 0.809396 -0.296216
C160  C     C_R   0.862485 0.173892 0.186903 -0.305255
C161  C     C_R   0.860889 0.832203 0.190809 -0.293433
C162  C     C_R   0.139055 0.168622 0.809585 -0.297757
C163  C     C_R   0.676223 0.275837 0.774757 -0.136745
C164  C     C_R   0.799190 0.766314 0.322931 0.886611
C165  C     C_R   0.321450 0.719991 0.226159 -0.129090
C166  C     C_R   0.321452 0.279973 0.226113 -0.128809
C167  C     C_R   0.677937 0.721656 0.774428 -0.127822
C168  C     C_R   0.178551 0.780009 0.773841 -0.129023
C169  C     C_R   0.821180 0.222943 0.224760 -0.125668
C170  C     C_R   0.821026 0.781307 0.226350 -0.130313
C171  C     C_R   0.178542 0.220035 0.773889 -0.128785
C172  C     C_R   0.701175 0.251724 0.825882 0.096957
C173  C     C_R   0.298172 0.746888 0.173334 0.090892
C174  C     C_R   0.298213 0.253063 0.173301 0.090624
C175  C     C_R   0.200722 0.234000 0.677044 0.894789
C176  C     C_R   0.700145 0.750720 0.827873 0.092662
C177  C     C_R   0.201816 0.753088 0.826676 0.090914
C178  C     C_R   0.797110 0.250379 0.172331 0.094196
C179  C     C_R   0.796822 0.756565 0.174105 0.095432
C180  C     C_R   0.201794 0.246924 0.826691 0.090624
C181  C     C_R   0.691427 0.129328 0.534833 0.890262
C182  C     C_R   0.303108 0.871668 0.484808 0.908639
C183  C     C_R   0.303088 0.128347 0.484855 0.908424
C184  C     C_R   0.691429 0.870643 0.534854 0.891639
C185  C     C_R   0.196896 0.628332 0.515183 0.908801
C186  C     C_R   0.923180 0.499960 0.422840 0.072603
C187  C     C_R   0.808572 0.370671 0.465170 0.895655
C188  C     C_R   0.808571 0.629357 0.465146 0.893154
C189  C     C_R   0.196907 0.371653 0.515161 0.908475
C190  C     C_R   0.696185 0.293777 0.899212 0.076616
C191  C     C_R   0.305592 0.708545 0.095690 0.075720
C192  C     C_R   0.305817 0.291169 0.095329 0.075449
C193  C     C_R   0.691414 0.714936 0.907839 0.076001
C194  C     C_R   0.194386 0.791410 0.904339 0.075936
C195  C     C_R   0.808837 0.216392 0.089516 0.073303
C196  C     C_R   0.803489 0.796818 0.097975 0.076824
H1    H     H_    0.072890 0.255083 0.406017 0.137790
H2    H     H_    0.217885 0.499946 0.543576 0.190682
H3    H     H_    0.282116 0.000055 0.456427 0.190695
H4    H     H_    0.723990 0.999945 0.538240 0.197118
H5    H     H_    0.139125 0.320656 0.426188 0.189115
H6    H     H_    0.915687 0.680253 0.392772 0.175378
H7    H     H_    0.915782 0.319573 0.393674 0.175563
H8    H     H_    0.138340 0.679699 0.427333 0.189172
H9    H     H_    0.584319 0.819738 0.607208 0.175510
H10   H     H_    0.360847 0.179333 0.573871 0.189120
H11   H     H_    0.361690 0.820285 0.572608 0.189229
H12   H     H_    0.989878 0.745311 0.392616 0.139025
H13   H     H_    0.584207 0.180420 0.606393 0.174984
H14   H     H_    0.611592 0.337566 0.778542 0.190221
H15   H     H_    0.382025 0.652315 0.226965 0.195010
H16   H     H_    0.381941 0.347580 0.226903 0.195284
H17   H     H_    0.618851 0.651701 0.772871 0.192778
H18   H     H_    0.118003 0.847727 0.773011 0.195336
H19   H     H_    0.883363 0.157409 0.223556 0.191081
H20   H     H_    0.882943 0.846422 0.226218 0.192199
H21   H     H_    0.118025 0.152471 0.773124 0.195144
H22   H     H_    0.646766 0.455639 0.993729 0.159549
H23   H     H_    0.990328 0.254675 0.392901 0.139008
H24   H     H_    0.368059 0.560429 0.970798 0.175264
H25   H     H_    0.368952 0.438266 0.968625 0.176480
H26   H     H_    0.625157 0.572665 0.044123 0.188892
H27   H     H_    0.131897 0.939491 0.029319 0.175150
H28   H     H_    0.874577 0.072099 0.956945 0.183801
H29   H     H_    0.864200 0.947973 0.980608 0.169930
H30   H     H_    0.131096 0.061656 0.031254 0.176418
H31   H     H_    0.729262 0.148974 0.759086 0.155065
H32   H     H_    0.270305 0.848806 0.242676 0.162937
H33   H     H_    0.270037 0.151395 0.243224 0.163432
H34   H     H_    0.072211 0.745060 0.406414 0.137810
H35   H     H_    0.728587 0.851220 0.755333 0.158043
H36   H     H_    0.229679 0.651176 0.757316 0.162971
H37   H     H_    0.752955 0.341324 0.258394 0.171698
H38   H     H_    0.768703 0.653968 0.241604 0.159263
H39   H     H_    0.229977 0.348596 0.756779 0.163439
H40   H     H_    0.772422 0.113855 0.845196 0.164277
H41   H     H_    0.231855 0.889823 0.152833 0.166158
H42   H     H_    0.231184 0.110687 0.153995 0.166047
H43   H     H_    0.764138 0.896219 0.846813 0.164662
H44   H     H_    0.268091 0.610114 0.847188 0.166187
H45   H     H_    0.510167 0.754670 0.607260 0.138939
H46   H     H_    0.705037 0.371590 0.181319 0.166007
H47   H     H_    0.726870 0.617551 0.154830 0.170925
H48   H     H_    0.268867 0.389261 0.845978 0.166059
H49   H     H_    0.680751 0.469871 0.128071 0.230360
H50   H     H_    0.719938 0.504254 0.014631 0.252474
H51   H     H_    0.752692 0.450262 0.059643 0.255773
H52   H     H_    0.356872 0.655089 0.791274 0.252802
H53   H     H_    0.344857 0.560923 0.826631 0.225606
H54   H     H_    0.402209 0.608792 0.817134 0.245173
H55   H     H_    0.403219 0.388053 0.815510 0.245161
H56   H     H_    0.427046 0.244894 0.594179 0.137672
H57   H     H_    0.357405 0.342526 0.790286 0.252866
H58   H     H_    0.346410 0.437041 0.824092 0.225669
H59   H     H_    0.589847 0.636409 0.193969 0.248195
H60   H     H_    0.642179 0.579656 0.190056 0.226249
H61   H     H_    0.639381 0.675149 0.215868 0.257037
H62   H     H_    0.143072 0.844693 0.208804 0.252766
H63   H     H_    0.097682 0.890930 0.182996 0.245213
H64   H     H_    0.154988 0.938904 0.173579 0.225552
H65   H     H_    0.860254 0.168593 0.781193 0.257745
H66   H     H_    0.856209 0.074246 0.813002 0.226903
H67   H     H_    0.427840 0.754920 0.593447 0.137671
H68   H     H_    0.909992 0.130727 0.803566 0.248335
H69   H     H_    0.893280 0.918064 0.827116 0.242894
H70   H     H_    0.853031 0.864611 0.797063 0.255663
H71   H     H_    0.831047 0.955413 0.843424 0.224682
H72   H     H_    0.096869 0.111675 0.184387 0.245296
H73   H     H_    0.153733 0.062806 0.175733 0.225614
H74   H     H_    0.142627 0.157292 0.209653 0.252881
H75   H     H_    0.509608 0.245305 0.607299 0.138498
H76   H     H_    0.776004 0.500055 0.461792 0.196884
O1    O     O_R   0.746490 0.236330 0.638080 -0.623622
O2    O     O_R   0.325830 0.813840 0.483730 -0.646216
O3    O     O_R   0.325830 0.186160 0.483730 -0.645709
O4    O     O_R   0.674170 0.813840 0.516270 -0.632295
O5    O     O_R   0.174170 0.686160 0.516270 -0.645957
O6    O     O_R   0.825830 0.313840 0.483730 -0.631903
O7    O     O_R   0.825830 0.686160 0.483730 -0.631994
O8    O     O_R   0.174170 0.313840 0.516270 -0.645711
O9    O     O_R   0.739960 0.127620 0.525000 -0.631401
O10   O     O_R   0.260040 0.872380 0.475000 -0.631977
O11   O     O_R   0.260040 0.127620 0.475000 -0.632027
O12   O     O_R   0.253510 0.763670 0.361920 -0.642981
O13   O     O_R   0.739960 0.872380 0.525000 -0.631491
O14   O     O_R   0.239960 0.627620 0.525000 -0.632029
O15   O     O_R   0.760040 0.372380 0.475000 -0.630884
O16   O     O_R   0.760040 0.627620 0.475000 -0.630825
O17   O     O_R   0.239960 0.372380 0.525000 -0.632053
O18   O     O_R   0.680700 0.294870 0.629350 -0.627615
O19   O     O_R   0.319300 0.705130 0.370650 -0.621009
O20   O     O_R   0.319300 0.294870 0.370650 -0.620601
O21   O     O_R   0.680700 0.705130 0.629350 -0.628973
O22   O     O_R   0.180700 0.794870 0.629350 -0.620683
O23   O     O_R   0.253510 0.236330 0.361920 -0.643268
O24   O     O_R   0.819300 0.205130 0.370650 -0.626724
O25   O     O_R   0.819300 0.794870 0.370650 -0.628607
O26   O     O_R   0.180700 0.205130 0.629350 -0.620692
O27   O     O_R   0.062020 0.072840 0.007170 -0.641077
O28   O     O_R   0.937980 0.927160 0.992830 -0.632655
O29   O     O_R   0.937980 0.072840 0.992830 -0.645988
O30   O     O_R   0.062020 0.927160 0.007170 -0.638797
O31   O     O_R   0.562020 0.572840 0.007170 -0.643272
O32   O     O_R   0.437980 0.427160 0.992830 -0.640949
O33   O     O_R   0.437980 0.572840 0.992830 -0.639635
O34   O     O_R   0.746490 0.763670 0.638080 -0.625398
O35   O     O_R   0.562020 0.427160 0.007170 -0.628383
O36   O     O_R   0.947860 0.073950 0.109290 -0.618468
O37   O     O_R   0.052140 0.926050 0.890710 -0.616252
O38   O     O_R   0.052140 0.073950 0.890710 -0.618771
O39   O     O_R   0.947860 0.926050 0.109290 -0.617465
O40   O     O_R   0.447860 0.573950 0.109290 -0.618432
O41   O     O_R   0.552140 0.426050 0.890710 -0.619687
O42   O     O_R   0.552140 0.573950 0.890710 -0.617861
O43   O     O_R   0.447860 0.426050 0.109290 -0.617485
O44   O     O_R   0.246490 0.736330 0.638080 -0.643029
O45   O     O_R   0.753510 0.263670 0.361920 -0.634800
O46   O     O_R   0.753510 0.736330 0.361920 -0.626492
O47   O     O_R   0.246490 0.263670 0.638080 -0.643296
O48   O     O_R   0.674170 0.186160 0.516270 -0.633075
Zn1   Zn    Zn3+2 0.792340 0.208750 0.507670 0.943937
Zn2   Zn    Zn3+2 0.494040 0.500000 0.919480 0.924824
Zn3   Zn    Zn3+2 0.005960 0.000000 0.080520 0.925556
Zn4   Zn    Zn3+2 0.994040 0.000000 0.919480 0.930656
Zn5   Zn    Zn3+2 0.207660 0.791250 0.492330 0.932968
Zn6   Zn    Zn3+2 0.207660 0.208750 0.492330 0.932214
Zn7   Zn    Zn3+2 0.792340 0.791250 0.507670 0.943000
Zn8   Zn    Zn3+2 0.292340 0.708750 0.507670 0.932244
Zn9   Zn    Zn3+2 0.707660 0.291250 0.492330 0.937489
Zn10  Zn    Zn3+2 0.707660 0.708750 0.492330 0.941900
Zn11  Zn    Zn3+2 0.292340 0.291250 0.507670 0.932259
Zn12  Zn    Zn3+2 0.505960 0.500000 0.080520 0.936793

loop_
_geom_bond_atom_site_label_1
_geom_bond_atom_site_label_2
_ccdc_geom_bond_type
C91   C188  S    
O40   Zn12  S    
C58   H67   S    
C47   O41   A    
C45   O33   A    
C9    C143  A    
C120  C166  S    
C158  H17   S    
C60   H45   S    
C124  C133  A    
C50   C59   A    
C108  H73   S    
C52   C61   A    
O15   Zn9   S    
C54   C63   A    
C58   C60   A    
C131  O21   A    
C61   C63   A    
C117  C132  A    
C62   C64   A    
C100  H49   S    
C101  H11   S    
C91   C96   A    
C116  C195  A    
C93   C181  S    
C50   C90   A    
C113  C122  A    
C70   C74   A    
C78   C186  A    
C4    C12   A    
C34   H44   S    
C24   C85   A    
C88   C97   A    
C119  C128  A    
C143  C151  A    
C162  H21   S    
C159  H18   S    
C49   C69   A    
C158  C167  A    
O2    Zn8   S    
C21   H31   S    
C11   C20   A    
C166  C174  A    
C150  C159  A    
C39   C154  S    
C137  C146  A    
C40   O28   A    
C127  C136  A    
C31   C121  A    
C139  C192  A    
C86   C90   A    
C71   C73   A    
C35   H5    S    
O45   Zn9   S    
C160  H19   S    
C17   C129  A    
C173  C191  A    
C82   C91   A    
C51   C66   A    
O34   Zn7   S    
C52   C72   A    
C3    C118  A    
C54   C70   A    
C106  H68   S    
C61   H34   S    
C163  C172  A    
C65   C76   A    
C8    H27   S    
C131  O34   A    
O19   Zn8   S    
C63   H12   S    
C110  H13   S    
C79   C85   A    
C109  O12   A    
C66   C77   A    
C34   C124  A    
C57   C78   A    
C185  O5    A    
C182  O10   A    
O39   Zn3   S    
C41   C151  S    
C142  O22   A    
C21   C172  A    
C8    C17   A    
C56   C59   A    
C103  H55   S    
C62   H23   S    
O30   Zn3   S    
C80   C88   A    
C100  H51   S    
C92   C182  S    
C112  C191  A    
O16   Zn10  S    
C95   C183  S    
C11   H30   S    
O23   Zn6   S    
C84   C93   A    
C48   C67   A    
C14   C102  S    
C86   C95   A    
C142  C168  S    
C24   C77   A    
C103  H58   S    
C2    C81   A    
C47   O35   A    
C15   C103  S    
C55   C71   A    
C2    C75   A    
C28   H38   S    
C20   C108  S    
C78   C87   A    
C48   C110  A    
C105  H62   S    
C123  C132  A    
C68   H8    S    
C164  C170  S    
C138  C191  A    
C67   C77   A    
C27   C178  A    
C185  O14   A    
C23   C174  A    
C183  O11   A    
C32   H42   S    
C98   H3    S    
O31   Zn12  S    
C22   H32   S    
C106  H66   S    
C40   C152  S    
C69   C76   A    
C111  C119  A    
C85   C94   A    
C6    C139  A    
C108  H72   S    
C29   H39   S    
C18   C128  A    
C4    C137  A    
C46   C82   A    
O42   Zn2   S    
C29   C38   A    
C8    C141  A    
C176  C193  A    
C149  C158  A    
C152  C161  A    
O22   Zn5   S    
C131  C167  S    
C12   C134  A    
C55   C64   A    
C156  H15   S    
C72   C75   A    
C16   C104  S    
C141  C150  A    
C139  C148  A    
C162  C171  A    
O9    Zn1   S    
C87   C187  S    
C15   C136  A    
C155  C163  A    
C79   H9    S    
C140  C193  A    
C3    C180  A    
C18   C106  S    
C107  H69   S    
O48   Zn9   S    
C10   C144  A    
C164  O25   A    
C23   H33   S    
O11   Zn6   S    
C189  O17   A    
C145  C154  A    
C88   C185  S    
C115  C194  A    
C3    C145  A    
C105  H64   S    
C4    H22   S    
C116  C125  A    
O28   Zn4   S    
C118  C127  A    
C114  C123  A    
C22   C173  A    
C37   C126  A    
C117  C126  A    
C26   C177  A    
C19   C132  A    
C113  C192  A    
C83   C101  A    
C43   O42   A    
C45   C147  S    
C154  C162  A    
C45   O40   A    
C111  C134  A    
C144  C196  A    
C14   C133  A    
C41   O36   A    
O1    Zn1   S    
C182  O2    A    
C170  C179  A    
O24   Zn1   S    
C36   H46   S    
O3    Zn11  S    
C112  C121  A    
C144  C152  A    
C9    H28   S    
C28   C37   A    
C148  C157  A    
C50   C65   A    
C51   C79   A    
C47   C146  S    
C100  H50   S    
C137  C190  A    
C9    C18   A    
C39   O27   A    
C51   C60   A    
C30   H40   S    
C140  C149  A    
C174  C192  A    
O13   Zn7   S    
C19   C107  S    
C125  C134  A    
C184  O4    A    
C37   H47   S    
C102  H53   S    
C142  O44   A    
C73   C74   A    
O12   Zn5   S    
O41   Zn2   S    
C184  O13   A    
C104  H59   S    
C82   C186  A    
C49   C101  A    
C7    C140  A    
O38   Zn4   S    
O44   Zn8   S    
C168  C177  A    
O37   Zn4   S    
C90   H10   S    
C146  C155  A    
C188  O16   A    
C65   C67   A    
C10   H29   S    
C160  C169  A    
C93   C99   A    
O25   Zn7   S    
C81   C89   A    
C64   H1    S    
C94   C184  S    
C179  C196  A    
C153  O24   A    
C175  O47   A    
C189  O8    A    
O33   Zn2   S    
C92   C98   A    
C32   C122  A    
C177  C194  A    
C53   C57   A    
C43   O31   A    
C44   O32   A    
O5    Zn5   S    
C42   O30   A    
O6    Zn1   S    
C118  C130  A    
C10   C19   A    
C143  C195  A    
C57   H7    S    
O29   Zn4   S    
C147  C156  A    
C5    C14   A    
C109  C165  S    
C7    C16   A    
C161  H20   S    
C126  C135  A    
C42   O37   A    
C103  H57   S    
C120  O20   A    
C44   O43   A    
C109  O19   A    
C25   H35   S    
C115  C124  A    
C155  H14   S    
C121  C129  A    
O14   Zn8   S    
C27   C36   A    
C38   H48   S    
C21   C30   A    
C13   C83   A    
C172  C190  A    
C23   C32   A    
C153  O45   A    
O47   Zn11  S    
C156  C165  A    
C108  H74   S    
C1    O18   A    
C28   C179  A    
C12   C100  S    
O18   Zn9   S    
C5    H24   S    
C46   H6    S    
C1    C163  S    
C111  C190  A    
C153  C169  S    
O10   Zn5   S    
C89   C189  S    
O32   Zn2   S    
C56   H75   S    
C74   C186  A    
C188  O7    A    
C68   C80   A    
O21   Zn10  S    
C114  C193  A    
C36   C125  A    
C112  C133  A    
C40   O39   A    
C38   C127  A    
C35   C81   A    
C95   C98   A    
O8    Zn6   S    
C5    C138  A    
C83   C92   A    
C66   C69   A    
C30   C119  A    
C165  C173  A    
O26   Zn6   S    
C175  O26   A    
C159  C168  A    
C6    C15   A    
C187  O15   A    
O17   Zn11  S    
C113  C136  A    
C13   C86   A    
C114  C135  A    
C1    O1    A    
C52   C68   A    
C104  H61   S    
C6    H25   S    
C31   H41   S    
C105  H63   S    
C46   C54   A    
C107  H70   S    
C26   C34   A    
C181  O48   A    
C22   C31   A    
C35   C55   A    
O7    Zn7   S    
C102  H52   S    
O35   Zn12  S    
C7    H26   S    
C41   O29   A    
C11   C145  A    
C26   H36   S    
C171  C175  S    
C29   C180  A    
C106  H65   S    
C84   C110  A    
C49   C58   A    
C89   C97   A    
C99   H4    S    
C181  O9    A    
C33   H43   S    
O20   Zn11  S    
C17   C105  S    
C53   C62   A    
C183  O3    A    
C13   C76   A    
C138  C147  A    
C87   C96   A    
O4    Zn10  S    
O36   Zn3   S    
C164  O46   A    
C161  C170  A    
C107  H71   S    
C171  C180  A    
C39   O38   A    
C169  C178  A    
C115  C129  A    
C187  O6    A    
C48   C56   A    
C102  H54   S    
C97   H2    S    
C53   C73   A    
C120  O23   A    
C20   C130  A    
C43   C149  S    
C157  C166  A    
C96   H76   S    
C178  C195  A    
C104  H60   S    
C151  C160  A    
C24   C84   A    
C117  C196  A    
C71   C75   A    
C25   C176  A    
C94   C99   A    
C44   C148  S    
C141  C194  A    
C42   C150  S    
C2    C80   A    
C27   H37   S    
C157  H16   S    
O27   Zn3   S    
C116  C128  A    
C25   C33   A    
C59   H56   S    
C33   C123  A    
O46   Zn10  S    
C70   C72   A    
C16   C135  A    
O43   Zn12  S    
C122  C130  A    
C167  C176  A    
