data_mof_unit_59773.cif
_audit_creation_date              2012-12-10T18:06:48-0500
_audit_creation_method            fapswitch 2.2
_symmetry_space_group_name_H-M    P1
_symmetry_Int_Tables_number       1
_space_group_crystal_system       triclinic
_cell_length_a                    12.595977
_cell_length_b                    13.077296
_cell_length_c                    15.152954
_cell_angle_alpha                 84.235665
_cell_angle_beta                  99.165175
_cell_angle_gamma                 96.845917
_cell_volume                      2438.11848911

loop_
_atom_site_label
_atom_site_type_symbol
_atom_type_description
_atom_site_fract_x
_atom_site_fract_y
_atom_site_fract_z
_atom_type_partial_charge
C1    C     C_R   0.442676 0.308131 0.507968 0.874652
C2    C     C_R   0.704630 0.554885 0.933797 0.088593
C3    C     C_R   0.596402 0.574888 0.898181 0.034524
C4    C     C_R   0.435909 0.515207 0.334912 0.836940
C5    C     C_R   0.773362 0.538444 0.871216 0.109232
C6    C     C_R   0.725899 0.510150 0.785625 -0.241144
C7    C     C_R   0.552695 0.550052 0.811452 -0.259064
C8    C     C_R   0.616049 0.938742 0.341818 -0.243183
C9    C     C_R   0.575561 0.800467 0.454551 -0.090022
C10   C     C_R   0.338623 0.157276 0.575537 -0.307480
C11   C     C_R   0.311772 0.051323 0.588293 -0.127932
C12   C     C_R   0.470261 0.586464 0.097633 0.045025
C13   C     C_R   0.357097 0.983882 0.542955 0.428748
C14   C     C_R   0.435157 0.024358 0.485990 -0.045641
C15   C     C_R   0.446870 0.131465 0.461757 0.057201
C16   C     C_R   0.554142 0.691801 0.484658 0.851959
C17   C     C_R   0.503433 0.963557 0.453209 0.078226
C18   C     C_R   0.557541 0.002674 0.379990 0.168395
C19   C     C_R   0.552276 0.105054 0.346035 -0.254494
C20   C     C_R   0.499513 0.169390 0.387703 -0.186353
C21   C     C_R   0.525092 0.867578 0.495495 -0.299920
C22   C     C_R   0.621014 0.835324 0.375335 0.093634
C23   C     C_R   0.383209 0.646600 0.065736 0.102461
C24   C     C_R   0.406305 0.197880 0.512713 -0.113107
C25   C     C_R   0.143116 0.649545 0.622483 0.367837
C26   C     C_R   0.756055 0.379402 0.394034 0.010474
C27   C     C_R   0.850564 0.354511 0.369947 -0.266797
C28   C     C_R   0.566559 0.492524 0.664532 0.876873
C29   C     C_R   0.948867 0.402168 0.409067 -0.201892
C30   C     C_R   0.952352 0.474430 0.473623 0.051175
C31   C     C_R   0.853713 0.496242 0.495993 0.248483
C32   C     C_R   0.048997 0.525295 0.516724 -0.053359
C33   C     C_R   0.045737 0.598545 0.580110 0.054027
C34   C     C_R   0.553153 0.586713 0.045160 0.046547
C35   C     C_R   0.946139 0.616153 0.601502 -0.295167
C36   C     C_R   0.851935 0.566389 0.559288 -0.234347
C37   C     C_R   0.149697 0.504664 0.500324 -0.098335
C38   C     C_R   0.239578 0.621890 0.604649 0.012447
C39   C     C_R   0.404765 0.546156 0.239316 -0.133427
C40   C     C_R   0.614792 0.511915 0.756924 -0.093555
C41   C     C_R   0.311986 0.663496 0.125226 0.097420
C42   C     C_R   0.327995 0.617061 0.213169 -0.263715
C43   C     C_R   0.465658 0.520323 0.176668 0.039457
C44   C     C_3   0.892953 0.575934 0.881335 -0.424840
C45   C     C_R   0.529114 0.608237 0.952699 0.061734
C46   C     C_3   0.963703 0.486805 0.887876 -0.345814
C47   C     C_3   0.083078 0.523712 0.914480 -0.867819
C48   C     C_3   0.667692 0.765012 0.321245 -0.406963
C49   C     C_3   0.787427 0.755854 0.356528 -0.296579
C50   C     C_3   0.832888 0.680833 0.304989 -0.890088
C51   C     C_3   0.834351 0.501460 0.079727 -0.421056
C52   C     C_3   0.815087 0.383113 0.085985 -0.326110
C53   C     C_3   0.916489 0.334644 0.131443 -0.915352
C54   C     C_3   0.224525 0.735888 0.100342 -0.440804
C55   C     C_3   0.273574 0.849072 0.100153 -0.327524
C56   C     C_R   0.437237 0.659843 0.917919 -0.214286
C57   C     C_3   0.186040 0.922580 0.075891 -0.879513
C58   C     C_3   0.503410 0.412143 0.185901 -0.393635
C59   C     C_3   0.457989 0.352041 0.103381 -0.332137
C60   C     C_3   0.480056 0.238999 0.119702 -0.921865
C61   C     C_R   0.369119 0.684562 0.974890 -0.228873
C62   C     C_R   0.657862 0.564557 0.082680 -0.269176
C63   C     C_R   0.735050 0.548797 0.029245 0.072559
H1    H     H_    0.302957 0.728646 0.945833 0.168454
H2    H     H_    0.939135 0.666914 0.651886 0.156542
H3    H     H_    0.160868 0.451108 0.454043 0.145469
H4    H     H_    0.678957 0.343948 0.363335 0.132557
H5    H     H_    0.019723 0.380772 0.387104 0.137742
H6    H     H_    0.847505 0.298695 0.321272 0.156811
H7    H     H_    0.778392 0.584757 0.577328 0.212456
H8    H     H_    0.777486 0.494400 0.738921 0.166990
H9    H     H_    0.281184 0.637393 0.261726 0.171888
H10   H     H_    0.420590 0.686221 0.847576 0.163854
H11   H     H_    0.679654 0.559045 0.154885 0.155200
H12   H     H_    0.592894 0.136483 0.289884 0.142764
H13   H     H_    0.109631 0.587454 0.866020 0.285350
H14   H     H_    0.096899 0.550989 0.982841 0.250580
H15   H     H_    0.132514 0.458795 0.914775 0.251149
H16   H     H_    0.939128 0.424125 0.937620 0.232901
H17   H     H_    0.953180 0.453823 0.821844 0.224913
H18   H     H_    0.908152 0.628138 0.820964 0.198936
H19   H     H_    0.917270 0.626933 0.936775 0.191416
H20   H     H_    0.786760 0.603224 0.310493 0.267931
H21   H     H_    0.828220 0.709400 0.233061 0.252581
H22   H     H_    0.918853 0.673735 0.333301 0.253031
H23   H     H_    0.653899 0.968174 0.283560 0.134603
H24   H     H_    0.834241 0.833063 0.349147 0.212495
H25   H     H_    0.798006 0.728682 0.428797 0.243628
H26   H     H_    0.620180 0.688040 0.320330 0.224704
H27   H     H_    0.660309 0.796385 0.249742 0.187919
H28   H     H_    0.318103 0.852308 0.492488 0.334637
H29   H     H_    0.086752 0.766405 0.661009 0.333674
H30   H     H_    0.982521 0.353310 0.090029 0.265655
H31   H     H_    0.944664 0.363959 0.198343 0.265115
H32   H     H_    0.898258 0.249363 0.140045 0.249898
H33   H     H_    0.748250 0.356940 0.125548 0.219651
H34   H     H_    0.497708 0.841445 0.558976 0.197828
H35   H     H_    0.791013 0.355577 0.017897 0.225031
H36   H     H_    0.909212 0.528055 0.052259 0.214351
H37   H     H_    0.851843 0.526188 0.149213 0.197769
H38   H     H_    0.141188 0.910571 0.007788 0.262651
H39   H     H_    0.128490 0.909613 0.125363 0.260772
H40   H     H_    0.223925 0.003718 0.076450 0.251234
H41   H     H_    0.318420 0.863817 0.167842 0.226831
H42   H     H_    0.331433 0.865683 0.051065 0.224415
H43   H     H_    0.176277 0.719965 0.034333 0.195820
H44   H     H_    0.166386 0.722088 0.149473 0.200718
H45   H     H_    0.306254 0.207654 0.614784 0.180358
H46   H     H_    0.449384 0.198947 0.057997 0.257916
H47   H     H_    0.568321 0.233247 0.136979 0.253978
H48   H     H_    0.437941 0.199898 0.174886 0.268211
H49   H     H_    0.369146 0.355515 0.087267 0.226316
H50   H     H_    0.495455 0.386266 0.044242 0.235526
H51   H     H_    0.592524 0.414234 0.199840 0.190247
H52   H     H_    0.472720 0.366490 0.243821 0.192860
H53   H     H_    0.254640 0.021281 0.633326 0.172631
H54   H     H_    0.498866 0.248643 0.360624 0.143346
H55   H     H_    0.315763 0.658140 0.636780 0.169084
H56   H     H_    0.467761 0.555292 0.787435 0.165277
N1    N     N_R   0.239390 0.551900 0.544730 -0.144774
N2    N     N_R   0.759950 0.448600 0.455730 -0.129095
O1    O     O_R   0.374950 0.371210 0.521360 -0.605071
O2    O     O_3   0.148121 0.724806 0.681047 -0.772098
O3    O     O_R   0.542050 0.338030 0.492790 -0.604842
O4    O     O_R   0.368720 0.526070 0.390200 -0.605460
O5    O     O_R   0.535820 0.492890 0.361630 -0.628999
O6    O     O_R   0.457950 0.661970 0.507210 -0.603508
O7    O     O_R   0.625050 0.628790 0.478640 -0.634754
O8    O     O_R   0.464180 0.507110 0.638370 -0.612298
O9    O     O_R   0.631280 0.473930 0.609800 -0.625669
O10   O     O_3   0.315945 0.881352 0.550057 -0.778334
Zn1   Zn    Zn3+2 0.388420 0.522150 0.519080 0.931619
Zn2   Zn    Zn3+2 0.611580 0.477850 0.480920 0.911363

loop_
_geom_bond_atom_site_label_1
_geom_bond_atom_site_label_2
_ccdc_geom_bond_type
C22   C48   S    
C53   H32   S    
C11   C13   A    
C41   C42   A    
C49   H24   S    
C10   H45   S    
C19   C20   A    
C14   C17   A    
C50   H21   S    
C52   C53   S    
C57   H39   S    
C12   C23   A    
C26   C27   A    
C29   C30   A    
C4    O4    A    
C55   H42   S    
C5    C6    A    
C26   H4    S    
C9    C16   S    
C47   H13   S    
C18   C19   A    
C12   C43   A    
C3    C7    A    
C31   C36   A    
C46   H16   S    
C9    C22   A    
C27   C29   A    
C35   H2    S    
C34   C62   A    
C28   O8    A    
C46   C47   S    
O6    Zn1   S    
C60   H46   S    
C50   H22   S    
C1    O1    A    
C35   C36   A    
C45   C56   A    
C36   H7    S    
C8    C22   A    
C7    C40   A    
C26   N2    A    
C30   C32   A    
C28   O9    A    
C27   H6    S    
O8    Zn1   S    
C38   N1    A    
C54   H44   S    
C59   C60   S    
C48   H27   S    
C13   C14   A    
C49   H25   S    
C6    H8    S    
O1    Zn1   S    
C20   H54   S    
C44   C46   S    
C50   H20   S    
C59   H49   S    
C39   C42   A    
C51   H36   S    
C15   C20   A    
C57   H40   S    
C54   H43   S    
C53   H30   S    
C51   C52   S    
C7    H56   S    
C51   C63   S    
C31   N2    A    
C44   H18   S    
H29   O2    S    
C39   C43   A    
C10   C24   A    
C58   C59   S    
C55   H41   S    
C3    C45   A    
C8    C18   A    
C38   H55   S    
C61   H1    S    
C62   C63   A    
C25   C38   A    
C29   H5    S    
C21   H34   S    
C14   C15   A    
C4    C39   S    
C59   H50   S    
C37   H3    S    
C42   H9    S    
C17   C18   A    
C13   O10   S    
C34   C45   A    
C32   C37   A    
C11   H53   S    
C25   O2    S    
O3    Zn2   S    
C48   C49   S    
C5    C44   S    
C48   H26   S    
C55   C57   S    
C58   H52   S    
C6    C40   A    
O9    Zn2   S    
C47   H14   S    
C12   C34   A    
C2    C63   A    
C51   H37   S    
C54   C55   S    
C15   C24   A    
C56   H10   S    
C53   H31   S    
N1    Zn1   S    
C57   H38   S    
C44   H19   S    
C23   C41   A    
C4    O5    A    
C32   C33   A    
C19   H12   S    
C2    C3    A    
C1    O3    A    
C60   H48   S    
O7    Zn2   S    
C46   H17   S    
C43   C58   S    
O4    Zn1   S    
C9    C21   A    
C30   C31   A    
C37   N1    A    
C52   H35   S    
C33   C35   A    
C52   H33   S    
C8    H23   S    
C16   O7    A    
C16   O6    A    
C17   C21   A    
C41   C54   S    
C60   H47   S    
C10   C11   A    
C2    C5    A    
C23   C61   A    
H28   O10   S    
C1    C24   S    
C49   C50   S    
C58   H51   S    
C28   C40   S    
C56   C61   A    
C62   H11   S    
C47   H15   S    
N2    Zn2   S    
O5    Zn2   S    
C25   C33   A    
