data_mof_unit_9481.cif
_audit_creation_date              2012-12-10T17:03:39-0500
_audit_creation_method            fapswitch 2.2
_symmetry_space_group_name_H-M    P1
_symmetry_Int_Tables_number       1
_space_group_crystal_system       triclinic
_cell_length_a                    10.115885
_cell_length_b                    10.756014
_cell_length_c                    13.210436
_cell_angle_alpha                 92.414386
_cell_angle_beta                  71.179036
_cell_angle_gamma                 92.396098
_cell_volume                      1358.71464588

loop_
_atom_site_label
_atom_site_type_symbol
_atom_type_description
_atom_site_fract_x
_atom_site_fract_y
_atom_site_fract_z
_atom_type_partial_charge
C1    C     C_R   0.502278 0.736279 0.501931 0.865900
C2    C     C_R   0.442457 0.575752 0.981828 0.030021
C3    C     C_R   0.483354 0.582780 0.869400 0.017993
C4    C     C_R   0.547756 0.572640 0.030665 -0.080872
C5    C     C_R   0.688467 0.567029 0.965985 -0.032816
C6    C     C_R   0.728082 0.609778 0.862509 0.512984
C7    C     C_R   0.623681 0.619662 0.814139 -0.278124
C8    C     C_R   0.520230 0.574506 0.141424 0.436701
C9    C     C_R   0.750177 0.494078 0.114691 -0.288846
C10   C     C_R   0.382424 0.552886 0.817228 -0.182094
C11   C     C_2   0.605610 0.067047 0.455443 -0.268508
C12   C     C_R   0.424741 0.515867 0.702575 0.875009
C13   C     C_2   0.486489 0.128836 0.495486 0.300044
C14   C     C_2   0.604600 0.932911 0.443642 -0.151788
C15   C     C_2   0.506940 0.866402 0.514270 -0.214700
C16   C     C_2   0.088601 0.405346 0.464495 0.406149
C17   C     C_2   0.940489 0.408794 0.456475 0.353562
C18   C     C_R   0.496141 0.262493 0.500939 0.775606
C19   C     C_R   0.576304 0.504476 0.297121 0.855527
C20   C     C_R   0.788117 0.522969 0.007296 -0.070705
C21   C     C_R   0.617854 0.524377 0.182945 -0.198437
C22   C     C_R   0.239902 0.553272 0.877563 -0.270668
C23   C     C_R   0.198480 0.567804 0.988627 0.562198
C24   C     C_R   0.299128 0.561982 0.039613 -0.257196
H1    H     H_    0.825161 0.453271 0.144844 0.204001
H2    H     H_    0.685123 0.888693 0.378038 0.136658
H3    H     H_    0.433928 0.906071 0.585972 0.160564
H4    H     H_    0.102935 0.583576 0.507296 0.081218
H5    H     H_    0.891601 0.579676 0.522580 0.082978
H6    H     H_    0.892793 0.505543 0.954805 0.215235
H7    H     H_    0.160495 0.541132 0.838890 0.184894
H8    H     H_    0.261163 0.543131 0.123490 0.201298
H9    H     H_    0.650982 0.658471 0.735722 0.177000
H10   H     H_    0.706653 0.115105 0.429386 0.192046
N1    N     N_2   0.148270 0.498670 0.498870 -0.239781
N2    N     N_2   0.852610 0.498640 0.498840 -0.248938
O1    O     O_R   0.386950 0.680940 0.500020 -0.612512
O2    O     O_R   0.613110 0.680900 0.499980 -0.623011
O3    O     O_R   0.330780 0.500000 0.653640 -0.622880
O4    O     O_R   0.556930 0.499960 0.653610 -0.605382
O5    O     O_R   0.386890 0.319100 0.500020 -0.544555
O6    O     O_R   0.613050 0.319060 0.499980 -0.593938
O7    O     O_R   0.443070 0.500040 0.346390 -0.540638
O8    O     O_R   0.669220 0.500000 0.346360 -0.655809
Zn1   Zn    Zn3+2 0.349000 0.500030 0.500020 0.974233
Zn2   Zn    Zn3+2 0.651000 0.499970 0.499980 0.928911
O9    O     O_3   0.357280 0.069008 0.507523 -0.602609
C25   C     C_3   0.261518 0.092931 0.610944 0.125017
H11   H     H_    0.215816 0.185950 0.616654 0.203962
H12   H     H_    0.311232 0.086924 0.674572 0.097496
C26   C     C_3   0.141410 0.997013 0.632203 -0.807593
H13   H     H_    0.180808 0.901628 0.629002 0.245932
H14   H     H_    0.064717 0.015157 0.712676 0.214807
H15   H     H_    0.088035 0.002825 0.571139 0.268591
O10   O     O_3   0.161607 0.295486 0.441053 -0.554844
C27   C     C_3   0.194197 0.260877 0.331568 0.211069
H16   H     H_    0.187755 0.338771 0.280168 0.110880
H17   H     H_    0.122775 0.182363 0.325752 0.188905
C28   C     C_3   0.340724 0.210573 0.286587 -0.837811
H18   H     H_    0.350139 0.128501 0.330842 0.283366
H19   H     H_    0.361704 0.181642 0.201287 0.188732
H20   H     H_    0.420515 0.281703 0.291187 0.258525
O11   O     O_3   0.895384 0.300891 0.413369 -0.595870
C29   C     C_3   0.881107 0.321949 0.311881 0.155536
H21   H     H_    0.925542 0.413574 0.277782 0.131341
H22   H     H_    0.769381 0.313474 0.320746 0.207969
C30   C     C_3   0.942686 0.218355 0.229276 -1.013401
H23   H     H_    0.888638 0.213021 0.168027 0.237678
H24   H     H_    0.054566 0.237963 0.185671 0.241314
H25   H     H_    0.928333 0.126705 0.267726 0.270897
O12   O     O_3   0.862721 0.660560 0.821817 -0.607516
C31   C     C_3   0.922390 0.634362 0.712213 -0.356183
H26   H     H_    0.886709 0.701811 0.665955 0.169422
H27   H     H_    0.901563 0.535793 0.691169 0.158141
H28   H     H_    0.037215 0.648127 0.691559 0.203108
O13   O     O_3   0.401527 0.629683 0.209153 -0.624214
C32   C     C_3   0.431805 0.756963 0.223888 0.118028
H29   H     H_    0.468132 0.804877 0.146069 0.133757
H30   H     H_    0.512945 0.768953 0.264186 0.133094
C33   C     C_3   0.299368 0.817933 0.294575 -0.788412
H31   H     H_    0.256254 0.768472 0.370907 0.273965
H32   H     H_    0.323139 0.916094 0.312778 0.228213
H33   H     H_    0.219799 0.815155 0.252961 0.222618
O14   O     O_3   0.057825 0.573406 0.046067 -0.639316
C34   C     C_3   0.033307 0.671335 0.124261 -0.334065
H34   H     H_    0.097519 0.757020 0.094215 0.167512
H35   H     H_    0.051040 0.640457 0.197911 0.161299
H36   H     H_    0.922265 0.696926 0.146735 0.202132

loop_
_geom_bond_atom_site_label_1
_geom_bond_atom_site_label_2
_ccdc_geom_bond_type
O10   C27   S    
C4    C8    A    
C9    H1    S    
C5    C20   A    
C20   H6    S    
C34   H34   S    
C10   C22   A    
O4    Zn2   S    
H5    N2    S    
C13   C18   S    
C19   C21   S    
C3    C7    A    
C18   O6    A    
C16   N1    D    
C5    C6    A    
C11   C14   S    
C34   H36   S    
C8    O13   S    
C27   H16   S    
O6    Zn2   S    
C25   C26   S    
H4    N1    S    
O8    Zn2   S    
C16   C17   S    
C23   C24   A    
N2    Zn2   S    
C1    C15   S    
C17   N2    D    
C1    O1    A    
O3    Zn1   S    
C25   H12   S    
C28   H18   S    
C7    H9    S    
C31   H28   S    
C19   O7    A    
C32   H30   S    
C6    O12   S    
C28   H19   S    
C22   H7    S    
C34   H35   S    
C30   H23   S    
C29   C30   S    
O13   C32   S    
C31   H26   S    
C33   H32   S    
C23   O14   S    
C18   O5    A    
C13   O9    S    
C33   H31   S    
C32   H29   S    
C14   H2    S    
C26   H13   S    
C26   H14   S    
C29   H22   S    
C12   O4    A    
C2    C4    A    
C24   H8    S    
C9    C20   A    
C15   H3    S    
O9    C25   S    
C8    C21   A    
O14   C34   S    
O7    Zn1   S    
C10   C12   S    
C1    O2    A    
C31   H27   S    
C25   H11   S    
C2    C24   A    
O1    Zn1   S    
N1    Zn1   S    
C19   O8    A    
C33   H33   S    
C32   C33   S    
C28   H20   S    
C14   C15   D    
C11   H10   S    
C4    C5    A    
C6    C7    A    
C27   C28   S    
C26   H15   S    
C29   H21   S    
C30   H25   S    
C12   O3    A    
C2    C3    A    
C16   O10   S    
O12   C31   S    
C3    C10   A    
C17   O11   S    
C11   C13   D    
C9    C21   A    
C27   H17   S    
O2    Zn2   S    
O11   C29   S    
O5    Zn1   S    
C22   C23   A    
C30   H24   S    
