data_mof_unit_47460.cif
_audit_creation_date              2013-03-05T16:33:33-0500
_audit_creation_method            fapswitch 2.2
_symmetry_space_group_name_H-M    P1
_symmetry_Int_Tables_number       1
_space_group_crystal_system       triclinic
_cell_length_a                    10.799608
_cell_length_b                    10.833775
_cell_length_c                    9.572655
_cell_angle_alpha                 90.838874
_cell_angle_beta                  90.178205
_cell_angle_gamma                 90.80999
_cell_volume                      1119.76753293

loop_
_atom_site_label
_atom_site_type_symbol
_atom_site_description
_atom_site_fract_x
_atom_site_fract_y
_atom_site_fract_z
_atom_type_partial_charge
O1    O     O_R   0.500000 0.319640 0.618810 -0.588803
O2    O     O_R   0.500010 0.319680 0.381230 -0.576039
C1    C     C_R   0.497190 0.262192 0.498704 0.810427
O3    O     O_R   0.319650 0.499970 0.618810 -0.556143
O4    O     O_R   0.319660 0.500010 0.381230 -0.577199
C2    C     C_R   0.262590 0.499927 0.499949 0.796891
Cu1   Cu    Cu3+1 0.499990 0.499980 0.640670 1.014723
Cu2   Cu    Cu3+1 0.500010 0.500020 0.359330 0.994845
O5    O     O_R   0.499990 0.680320 0.618770 -0.590089
O6    O     O_R   0.500000 0.680360 0.381190 -0.565638
O7    O     O_R   0.680340 0.499990 0.618770 -0.536608
O8    O     O_R   0.680350 0.500030 0.381190 -0.591446
C3    C     C_R   0.495930 0.737380 0.500793 0.843582
C4    C     C_R   0.737501 0.499216 0.499935 0.818489
C5    C     C_R   0.063730 0.448406 0.608671 0.136843
C6    C     C_R   0.129489 0.504702 0.501267 -0.157438
C7    C     C_R   0.065487 0.570147 0.399071 -0.153520
H1    H     H_    0.114994 0.619493 0.318455 0.183232
C8    C     C_R   0.936334 0.569848 0.399218 -0.158880
H2    H     H_    0.888117 0.620005 0.319527 0.194437
C9    C     C_R   0.870962 0.502729 0.500214 -0.113165
C10   C     C_R   0.935995 0.445203 0.606182 0.191603
C11   C     C_3   0.929532 0.313361 0.650071 -0.497970
C12   C     C_3   0.070178 0.317346 0.655863 0.128192
H3    H     H_    0.884749 0.301888 0.753341 0.273461
H4    H     H_    0.892298 0.250934 0.566266 0.160207
H5    H     H_    0.116762 0.254910 0.579780 0.099042
C13   C     C_R   0.492669 0.065782 0.622530 0.076041
C14   C     C_R   0.484345 0.128453 0.496587 -0.205169
C15   C     C_R   0.454424 0.059382 0.373472 0.401986
C16   C     C_R   0.449261 0.930703 0.378379 -0.130236
H6    H     H_    0.429166 0.878962 0.283187 0.217659
C17   C     C_R   0.479928 0.869803 0.501849 -0.177552
C18   C     C_R   0.491267 0.938909 0.625012 0.111260
C19   C     C_3   0.586738 0.935726 0.737492 -0.411366
C20   C     C_3   0.588334 0.075782 0.735299 -0.376517
H7    H     H_    0.547611 0.897921 0.835174 0.239551
H8    H     H_    0.674951 0.894321 0.701537 0.201986
H9    H     H_    0.551306 0.118550 0.832558 0.221416
H10   H     H_    0.677514 0.115949 0.698231 0.198166
C21   C     C_R   0.545864 0.599380 0.076167 0.161637
N1    N     N_R   0.500790 0.500930 0.147930 -0.213727
C22   C     C_R   0.441430 0.409247 0.072514 -0.011148
H11   H     H_    0.395187 0.334911 0.126429 0.185812
C23   C     C_R   0.441369 0.409251 0.923901 0.053584
H12   H     H_    0.395777 0.334406 0.867178 0.166041
N2    N     N_R   0.500790 0.500890 0.852020 -0.178076
C24   C     C_R   0.549998 0.597259 0.928983 0.121245
C25   C     C_3   0.681533 0.646048 0.931201 0.043416
C26   C     C_3   0.672963 0.653179 0.089819 0.072240
H13   H     H_    0.693590 0.736226 0.879343 0.132403
H14   H     H_    0.738128 0.592531 0.145517 0.157100
N3    N     N_R   0.773944 0.556081 0.888033 0.141891
O9    O     O_R   0.883511 0.596433 0.853843 -0.329534
O10   O     O_R   0.759246 0.439853 0.917580 -0.371850
N4    N     N_R   0.672764 0.779860 0.145160 0.129683
O11   O     O_R   0.601281 0.862754 0.091867 -0.398747
O12   O     O_R   0.744330 0.810319 0.249953 -0.361845
N5    N     N_R   0.117230 0.306256 0.798686 0.155471
O13   O     O_R   0.127165 0.197356 0.852637 -0.331730
O14   O     O_R   0.146017 0.403471 0.874234 -0.321489
O15   O     O_3   0.435235 0.113645 0.246696 -0.698352
H15   H     H_    0.516687 0.148505 0.218678 0.345717

loop_
_geom_bond_atom_site_label_1
_geom_bond_atom_site_label_2
_geom_bond_distance
_ccdc_geom_bond_type
C8    C9    1.404347 A    
C11   H4    1.112246 S    
O4    Cu2   1.959606 S    
C26   H14   1.110071 S    
C11   C12   1.519740 S    
C16   C17   1.403050 A    
C3    C17   1.447324 S    
C14   C15   1.420664 A    
Cu2   N1    2.023870 S    
C21   N1    1.362108 A    
C19   C20   1.517639 S    
C12   H5    1.112901 S    
C20   H10   1.112490 S    
Cu2   O8    1.958162 S    
C19   H8    1.112139 S    
C8    H2    1.079832 S    
N3    O10   1.302226 A    
C7    H1    1.083407 S    
C13   C18   1.374942 A    
N5    O13   1.300481 A    
C5    C12   1.498782 S    
C9    C10   1.391815 A    
Cu1   O7    1.959606 S    
C22   C23   1.422623 A    
C1    C14   1.453406 S    
O15   H15   0.991660 S    
C12   N5    1.464274 S    
C25   N3    1.461180 S    
O4    C2    1.294516 A    
C4    C9    1.441275 S    
O3    C2    1.292273 A    
C24   C25   1.508634 S    
C7    C8    1.394767 A    
C21   C24   1.409646 A    
O8    C4    1.291976 A    
C17   C18   1.391473 A    
O2    C1    1.293677 A    
C15   O15   1.372623 S    
C22   H11   1.080159 S    
C15   C16   1.395897 A    
C18   C19   1.489562 S    
O7    C4    1.295937 A    
C26   N4    1.463906 S    
N5    O14   1.302284 A    
N1    C22   1.369987 A    
C2    C6    1.439187 S    
C5    C6    1.394296 A    
N2    C24   1.369154 A    
C21   C26   1.488263 S    
Cu1   Cu2   2.693178 S    
C11   H3    1.109730 S    
N4    O11   1.301263 A    
C13   C20   1.493625 S    
O3    Cu1   1.958162 S    
Cu2   O6    1.961890 S    
C25   C26   1.522400 S    
C23   N2    1.369543 A    
Cu1   O5    1.968029 S    
C25   H13   1.108540 S    
O5    C3    1.296303 A    
C10   C11   1.495489 S    
C13   C14   1.395557 A    
O1    Cu1   1.961890 S    
C19   H7    1.108800 S    
C23   H12   1.081161 S    
C20   H9    1.111903 S    
C5    C10   1.379554 A    
O2    Cu2   1.968026 S    
C16   H6    1.082608 S    
N3    O9    1.300137 A    
N4    O12   1.300316 A    
C6    C7    1.402658 A    
O1    C1    1.299407 A    
O6    C3    1.294123 A    
Cu1   N2    2.023051 S    
