data_mof_unit_16882.cif
_audit_creation_date              2012-12-10T18:59:13-0500
_audit_creation_method            fapswitch 2.2
_symmetry_space_group_name_H-M    P1
_symmetry_Int_Tables_number       1
_space_group_crystal_system       triclinic
_cell_length_a                    10.860422
_cell_length_b                    10.857419
_cell_length_c                    9.522954
_cell_angle_alpha                 90.918398
_cell_angle_beta                  90.205055
_cell_angle_gamma                 90.68277
_cell_volume                      1122.6781416

loop_
_atom_site_label
_atom_site_type_symbol
_atom_type_description
_atom_site_fract_x
_atom_site_fract_y
_atom_site_fract_z
_atom_type_partial_charge
C1    C     C_R   0.496329 0.262430 0.498909 0.798847
C2    C     C_R   0.062652 0.525367 0.632802 0.102276
C3    C     C_R   0.127719 0.513952 0.503997 -0.122087
C4    C     C_R   0.063130 0.489487 0.378883 -0.192141
C5    C     C_R   0.936403 0.476515 0.379867 -0.173665
C6    C     C_R   0.872054 0.479294 0.506748 -0.131363
C7    C     C_R   0.467200 0.066815 0.621838 0.132776
C8    C     C_R   0.481639 0.129762 0.496659 -0.098075
C9    C     C_R   0.477928 0.062417 0.369576 -0.216924
C10   C     C_R   0.478875 0.933876 0.371246 -0.205824
C11   C     C_R   0.484245 0.871479 0.499865 -0.099261
C12   C     C_R   0.262284 0.508189 0.500715 0.796074
C13   C     C_R   0.468279 0.939978 0.623954 0.122942
C14   C     C_3   0.538331 0.941520 0.759354 -0.495509
C15   C     C_3   0.536350 0.080777 0.756452 -0.449936
C16   C     C_R   0.599657 0.544906 0.075262 0.212908
C17   C     C_R   0.407541 0.444690 0.073043 -0.083971
C18   C     C_R   0.407450 0.444839 0.924104 -0.087493
C19   C     C_R   0.600193 0.542924 0.927180 0.222161
C20   C     C_3   0.651398 0.669765 0.920627 -0.545068
C21   C     C_3   0.646952 0.674861 0.079635 -0.257058
C22   C     C_R   0.497539 0.738073 0.500681 0.806402
C23   C     C_R   0.737573 0.489952 0.501228 0.809732
C24   C     C_R   0.116869 0.571293 0.759223 -0.168807
C25   C     C_R   0.059041 0.554288 0.887963 -0.148193
C26   C     C_R   0.946742 0.492174 0.892787 -0.158215
C27   C     C_R   0.886394 0.458923 0.768213 -0.171769
C28   C     C_R   0.938310 0.487376 0.635960 0.102061
Cu1   Cu    Cu3+1 0.499990 0.499980 0.640670 0.931869
Cu2   Cu    Cu3+1 0.500010 0.500020 0.359330 0.943533
H1    H     H_    0.110438 0.480742 0.279305 0.156050
H2    H     H_    0.479346 0.122449 0.841100 0.196766
H3    H     H_    0.331755 0.401589 0.127705 0.138326
H4    H     H_    0.331575 0.401862 0.867306 0.151016
H5    H     H_    0.745047 0.672300 0.873839 0.211222
H6    H     H_    0.584509 0.730888 0.871826 0.211892
H7    H     H_    0.579128 0.741499 0.121530 0.160338
H8    H     H_    0.202687 0.622602 0.760519 0.161313
H9    H     H_    0.103086 0.586262 0.984227 0.144126
H10   H     H_    0.904794 0.472275 0.992980 0.135083
H11   H     H_    0.888671 0.463643 0.280576 0.161946
H12   H     H_    0.481116 0.108321 0.269481 0.164674
H13   H     H_    0.481499 0.884405 0.271900 0.156110
H14   H     H_    0.482114 0.904804 0.846897 0.193085
N1    N     N_R   0.500790 0.500930 0.147930 -0.192582
N2    N     N_R   0.500790 0.500890 0.852020 -0.183458
O1    O     O_R   0.500000 0.319640 0.618810 -0.583866
O2    O     O_R   0.500010 0.319680 0.381230 -0.586400
O3    O     O_R   0.319640 0.499980 0.618820 -0.596901
O4    O     O_R   0.319650 0.500020 0.381230 -0.587626
O5    O     O_R   0.499990 0.680320 0.618770 -0.581080
O6    O     O_R   0.500000 0.680360 0.381190 -0.586170
O7    O     O_R   0.680350 0.499980 0.618770 -0.590825
O8    O     O_R   0.680360 0.500020 0.381180 -0.577774
H15   H     H_    0.632744 0.904177 0.747857 0.205254
H16   H     H_    0.629127 0.123415 0.743066 0.198793
C29   C     C_1   0.769531 0.688708 0.144014 0.292907
N3    N     N_1   0.866186 0.701435 0.193994 -0.306618
H17   H     H_    0.801614 0.406978 0.777939 0.158175

loop_
_geom_bond_atom_site_label_1
_geom_bond_atom_site_label_2
_ccdc_geom_bond_type
C16   N1    A    
C8    C9    A    
C12   O4    A    
C1    O2    A    
C21   C29   S    
Cu1   Cu2   S    
C1    C8    S    
C11   C13   A    
C9    C10   A    
C10   H13   S    
C11   C22   S    
C24   H8    S    
C19   C20   S    
C9    H12   S    
Cu1   N2    S    
C15   H16   S    
C20   C21   S    
C7    C15   S    
C17   C18   A    
Cu2   O4    S    
C19   N2    A    
C7    C8    A    
C27   H17   S    
C13   C14   S    
C25   H9    S    
C2    C24   A    
Cu2   O8    S    
C26   H10   S    
C29   N3    T    
C16   C21   S    
C17   H3    S    
Cu1   O1    S    
C16   C19   A    
C6    C23   S    
C18   N2    A    
C23   O7    A    
C22   O6    A    
C17   N1    A    
C14   H15   S    
C2    C3    A    
C18   H4    S    
C26   C27   A    
C5    C6    A    
C12   O3    A    
C2    C28   A    
C10   C11   A    
C5    H11   S    
C3    C4    A    
C4    H1    S    
C7    C13   A    
C21   H7    S    
C24   C25   A    
C23   O8    A    
C14   H14   S    
Cu1   O5    S    
Cu2   O2    S    
C27   C28   A    
Cu2   O6    S    
C14   C15   S    
C4    C5    A    
Cu1   O3    S    
C3    C12   S    
Cu2   N1    S    
C25   C26   A    
C15   H2    S    
C20   H5    S    
C6    C28   A    
C1    O1    A    
C22   O5    A    
Cu1   O7    S    
C20   H6    S    
