data_mof_unit_5740.cif
_audit_creation_date              2012-12-11T15:33:33-0500
_audit_creation_method            fapswitch 2.2
_symmetry_space_group_name_H-M    P1
_symmetry_Int_Tables_number       1
_space_group_crystal_system       triclinic
_cell_length_a                    27.187753
_cell_length_b                    7.197674
_cell_length_c                    22.713739
_cell_angle_alpha                 90.102976
_cell_angle_beta                  101.172772
_cell_angle_gamma                 89.773448
_cell_volume                      4360.54178637

loop_
_atom_site_label
_atom_site_type_symbol
_atom_type_description
_atom_site_fract_x
_atom_site_fract_y
_atom_site_fract_z
_atom_type_partial_charge
O1    O     O_R   0.207310 0.594030 0.676830 -0.543904
O2    O     O_R   0.792690 0.405970 0.323170 -0.537718
O3    O     O_R   0.292690 0.094030 0.823170 -0.529958
O4    O     O_R   0.707310 0.905970 0.176830 -0.536667
O5    O     O_R   0.197320 0.262370 0.795700 -0.536800
O6    O     O_R   0.802680 0.737630 0.204300 -0.538357
O7    O     O_R   0.302680 0.762370 0.704300 -0.538229
O8    O     O_R   0.697320 0.237630 0.295700 -0.539233
C1    C     C_R   0.184912 0.433418 0.812460 0.745780
C2    C     C_R   0.815966 0.566629 0.189011 0.751137
C3    C     C_R   0.316127 0.932608 0.689250 0.752363
C4    C     C_R   0.683873 0.067392 0.310750 0.751466
O9    O     O_R   0.201410 0.264250 0.675590 -0.537729
O10   O     O_R   0.798590 0.735750 0.324410 -0.534160
O11   O     O_R   0.298590 0.764250 0.824410 -0.525741
O12   O     O_R   0.701410 0.235750 0.175590 -0.532186
O13   O     O_R   0.296810 0.094940 0.702210 -0.500415
O14   O     O_R   0.703190 0.905060 0.297790 -0.501637
O15   O     O_R   0.203190 0.594940 0.797790 -0.506017
O16   O     O_R   0.796810 0.405060 0.202210 -0.500569
C5    C     C_R   0.189751 0.432681 0.653455 0.746226
C6    C     C_R   0.810266 0.567305 0.346525 0.761469
C7    C     C_R   0.310349 0.932443 0.846559 0.801868
C8    C     C_R   0.689823 0.067581 0.153370 0.766888
O17   O     O_3   0.281300 0.427390 0.758870 -0.355745
O18   O     O_3   0.718700 0.572610 0.241130 -0.361046
O19   O     O_3   0.218700 0.927390 0.741130 -0.378820
O20   O     O_3   0.781300 0.072610 0.258870 -0.361330
V1    V     V_3+5 0.244190 0.152150 0.748350 1.592380
V2    V     V_3+5 0.755810 0.847850 0.251650 1.611072
V3    V     V_3+5 0.255810 0.652150 0.751650 1.601711
V4    V     V_3+5 0.744190 0.347850 0.248350 1.614350
C9    C     C_R   0.655023 0.062993 0.094771 -0.172311
C10   C     C_R   0.345421 0.936956 0.905073 -0.185019
C11   C     C_R   0.845119 0.561428 0.405044 -0.170303
C12   C     C_R   0.154909 0.438504 0.594915 -0.166804
C13   C     C_R   0.639020 0.127474 0.988289 -0.213974
C14   C     C_R   0.361817 0.871158 0.011503 -0.225434
C15   C     C_R   0.860309 0.612437 0.512265 -0.215012
C16   C     C_R   0.139730 0.387394 0.487691 -0.218561
C17   C     C_R   0.672099 0.117843 0.043273 0.625589
C18   C     C_R   0.328677 0.880484 0.956635 0.649872
C19   C     C_R   0.827462 0.607185 0.457061 0.623842
C20   C     C_R   0.172578 0.392799 0.542899 0.627207
C21   C     C_R   0.604139 0.018113 0.090758 -0.294711
C22   C     C_R   0.396270 0.983034 0.908991 -0.300855
C23   C     C_R   0.896349 0.521335 0.408719 -0.296744
C24   C     C_R   0.103666 0.478372 0.591225 -0.311107
C25   C     C_R   0.569286 0.030057 0.035133 0.092712
C26   C     C_R   0.431272 0.970684 0.964547 0.095389
C27   C     C_R   0.930936 0.528545 0.464622 0.093212
C28   C     C_R   0.069083 0.471066 0.535319 0.097313
C29   C     C_R   0.588043 0.085697 0.983805 0.034379
C30   C     C_R   0.412656 0.914187 0.015894 0.035499
C31   C     C_R   0.911573 0.574814 0.516497 0.036325
C32   C     C_R   0.088454 0.424842 0.483449 0.035035
C33   C     C_R   0.516638 0.991411 0.028650 0.073065
C34   C     C_R   0.483930 0.009511 0.971004 0.073107
C35   C     C_R   0.983852 0.493692 0.470943 0.073085
C36   C     C_R   0.016164 0.505828 0.528997 0.075565
C37   C     C_R   0.505029 0.064917 0.921781 -0.165012
C38   C     C_R   0.495592 0.935652 0.077872 -0.165906
C39   C     C_R   0.994449 0.551830 0.578746 -0.174507
C40   C     C_R   0.005565 0.447632 0.421197 -0.168060
C41   C     C_R   0.555885 0.101599 0.928198 -0.143399
C42   C     C_R   0.444814 0.898356 0.071467 -0.142991
C43   C     C_R   0.943381 0.585150 0.572462 -0.146770
C44   C     C_R   0.056641 0.414385 0.427485 -0.147566
H1    H     H_    0.570206 0.144178 0.888970 0.145715
H2    H     H_    0.430558 0.855195 0.110685 0.144968
H3    H     H_    0.928600 0.620489 0.612112 0.142963
H4    H     H_    0.071425 0.379033 0.387838 0.142862
H5    H     H_    0.407288 0.023127 0.867760 0.147858
H6    H     H_    0.593013 0.979265 0.132032 0.147040
H7    H     H_    0.092120 0.510737 0.632842 0.124597
H8    H     H_    0.907883 0.488880 0.367096 0.141419
H9    H     H_    0.653250 0.170431 0.949051 0.163579
H10   H     H_    0.347732 0.827178 0.050738 0.162523
H11   H     H_    0.845633 0.648209 0.551936 0.163756
H12   H     H_    0.154416 0.351652 0.448024 0.162127
H13   H     H_    0.483166 0.081783 0.877238 0.145237
H14   H     H_    0.517429 0.918471 0.122404 0.144959
H15   H     H_    0.015967 0.563841 0.623632 0.128946
H16   H     H_    0.984040 0.435536 0.376315 0.140492
C45   C     C_R   0.611037 0.902505 0.344194 0.396977
C46   C     C_R   0.388961 0.097500 0.655802 0.397130
C47   C     C_R   0.885058 0.391763 0.149759 0.402135
C48   C     C_R   0.136869 0.613266 0.881341 0.417389
C49   C     C_R   0.575864 0.892957 0.381813 -0.201552
C50   C     C_R   0.424133 0.107045 0.618182 -0.201327
C51   C     C_R   0.918851 0.380864 0.110478 -0.201917
C52   C     C_R   0.099166 0.620338 0.915380 -0.212965
H17   H     H_    0.551678 0.772638 0.378451 0.214935
H18   H     H_    0.448317 0.227370 0.621540 0.215143
H19   H     H_    0.940890 0.255256 0.110159 0.218065
H20   H     H_    0.093607 0.748780 0.938219 0.231270
C53   C     C_R   0.571429 0.035362 0.422963 -0.177030
C54   C     C_R   0.428572 0.964630 0.577037 -0.176962
C55   C     C_R   0.925287 0.529850 0.072933 -0.178148
C56   C     C_R   0.069633 0.465065 0.921529 -0.178686
C57   C     C_R   0.602964 0.191576 0.424743 0.683448
C58   C     C_R   0.397040 0.808408 0.575263 0.682738
C59   C     C_R   0.897113 0.693349 0.075952 0.683350
C60   C     C_R   0.078490 0.299408 0.892041 0.680883
C61   C     C_R   0.638416 0.201507 0.387384 -0.232196
C62   C     C_R   0.361588 0.798480 0.612621 -0.232178
C63   C     C_R   0.862622 0.704304 0.114480 -0.232366
C64   C     C_R   0.115686 0.291651 0.856915 -0.253993
H21   H     H_    0.662578 0.321953 0.390777 0.203000
H22   H     H_    0.337428 0.678027 0.609232 0.203360
H23   H     H_    0.840730 0.830387 0.114437 0.210774
H24   H     H_    0.120533 0.163209 0.833851 0.206229
C65   C     C_R   0.643722 0.056808 0.347312 -0.205603
C66   C     C_R   0.356278 0.943190 0.652688 -0.205706
C67   C     C_R   0.855374 0.553886 0.151379 -0.210618
C68   C     C_R   0.145692 0.447089 0.850767 -0.226197
N1    N     N_R   0.528162 0.153983 0.502808 -0.162130
N2    N     N_R   0.471838 0.846007 0.497192 -0.162633
N3    N     N_R   0.980011 0.665500 0.008579 -0.166477
N4    N     N_R   0.012142 0.326862 0.982271 -0.167231
N5    N     N_R   0.494955 0.136644 0.538674 -0.257169
N6    N     N_R   0.505045 0.863347 0.461326 -0.257632
N7    N     N_R   0.013655 0.649528 0.973248 -0.243704
N8    N     N_R   0.978621 0.342902 0.017848 -0.242360
C69   C     C_R   0.465975 0.982208 0.536802 0.570042
C70   C     C_R   0.534026 0.017783 0.463198 0.570078
C71   C     C_R   0.030546 0.480020 0.959276 0.560337
C72   C     C_R   0.961817 0.512608 0.031886 0.560138
F1    F     F_    0.280082 0.832704 0.953828 -0.631221
F2    F     F_    0.720951 0.163503 0.046373 -0.666107
F3    F     F_    0.221804 0.352405 0.545670 -0.668066
F4    F     F_    0.778246 0.647746 0.454297 -0.667932
Cl1   Cl    Cl    0.610448 0.720237 0.292043 -0.634765
Cl2   Cl    Cl    0.389546 0.279781 0.707948 -0.633884
Cl3   Cl    Cl    0.883906 0.200120 0.197798 -0.633121
Cl4   Cl    Cl    0.172130 0.818447 0.881383 -0.546122
F5    F     F_    0.600199 0.334803 0.462913 -0.623458
F6    F     F_    0.399809 0.665169 0.537098 -0.624156
F7    F     F_    0.901754 0.841673 0.040645 -0.621229
F8    F     F_    0.050618 0.145509 0.895935 -0.636223

loop_
_geom_bond_atom_site_label_1
_geom_bond_atom_site_label_2
_ccdc_geom_bond_type
O17   V3    S    
C55   C59   A    
O1    C5    A    
C47   C51   A    
O19   V1    S    
C56   C71   S    
C9    C21   A    
O3    C7    A    
C10   C18   A    
C52   H20   S    
C11   C23   A    
N4    C71   A    
C25   C33   A    
C33   C38   A    
C5    C12   S    
C20   F3    S    
O7    C3    A    
C6    C11   S    
C35   C40   A    
C26   C30   A    
C62   C66   A    
C36   C39   A    
C40   C44   A    
C61   C65   A    
C19   F4    S    
C23   H8    S    
C14   C18   A    
N2    N6    A    
C17   F2    S    
O4    C8    A    
C25   C29   A    
C43   H3    S    
O1    V3    S    
O13   V1    S    
C31   C43   A    
O2    V4    S    
C58   F6    S    
O3    V1    S    
C3    C66   S    
N1    N5    A    
C40   H16   S    
C28   C36   A    
N5    C69   A    
N4    N8    A    
C1    O15   A    
C56   C60   A    
C15   C31   A    
C48   C52   A    
C2    O16   A    
C16   C32   A    
O2    C6    A    
C16   H12   S    
C58   C62   A    
C10   C22   A    
N2    C69   A    
C11   C19   A    
N1    C70   A    
C16   C20   A    
C47   C67   A    
C44   H4    S    
N8    C72   A    
C13   C29   A    
N3    C72   A    
C34   C37   A    
O11   C7    A    
C38   H14   S    
O15   V3    S    
C35   C36   A    
O12   C8    A    
C49   H17   S    
C24   H7    S    
O10   V2    S    
C46   Cl2   S    
C50   H18   S    
O5    V1    S    
C54   C69   S    
C57   C61   A    
C39   C43   A    
O7    V3    S    
C38   C42   A    
C26   C34   A    
C47   Cl3   S    
C49   C53   A    
C48   Cl4   S    
C46   C50   A    
C45   C49   A    
O18   V4    S    
C23   C27   A    
C14   H10   S    
C32   C44   A    
C13   H9    S    
C64   H24   S    
C39   H15   S    
C21   H6    S    
C15   H11   S    
C48   C68   A    
O5    C1    A    
C59   F7    S    
N7    C71   A    
C14   C30   A    
C21   C25   A    
O8    C4    A    
C7    C10   S    
O9    C5    A    
C63   C67   A    
O14   V2    S    
O6    V2    S    
C12   C20   A    
C60   F8    S    
C27   C35   A    
C60   C64   A    
C29   C41   A    
C52   C56   A    
C59   C63   A    
C4    C65   S    
O16   V4    S    
O9    V1    S    
C61   H21   S    
C3    O13   A    
C57   F5    S    
C1    C68   S    
C63   H23   S    
C53   C70   S    
O6    C2    A    
C15   C19   A    
O11   V3    S    
C55   C72   S    
C30   C42   A    
N3    N7    A    
O12   V4    S    
C22   C26   A    
C8    C9    S    
C46   C66   A    
C9    C17   A    
O10   C6    A    
O20   V2    S    
C54   C58   A    
C64   C68   A    
C33   C34   A    
C42   H2    S    
O8    V4    S    
C41   H1    S    
C45   C65   A    
N6    C70   A    
C12   C24   A    
C18   F1    S    
C27   C31   A    
C13   C17   A    
O4    V2    S    
C51   H19   S    
C37   C41   A    
C24   C28   A    
C62   H22   S    
C4    O14   A    
C37   H13   S    
C51   C55   A    
C50   C54   A    
C22   H5    S    
C53   C57   A    
C2    C67   S    
C28   C32   A    
C45   Cl1   S    
