data_mof_unit_48330.cif
_audit_creation_date              2012-12-11T14:44:17-0500
_audit_creation_method            fapswitch 2.2
_symmetry_space_group_name_H-M    P1
_symmetry_Int_Tables_number       1
_space_group_crystal_system       triclinic
_cell_length_a                    19.192216
_cell_length_b                    10.967038
_cell_length_c                    18.883369
_cell_angle_alpha                 89.832385
_cell_angle_beta                  90.059603
_cell_angle_gamma                 89.739851
_cell_volume                      3974.54459995

loop_
_atom_site_label
_atom_site_type_symbol
_atom_type_description
_atom_site_fract_x
_atom_site_fract_y
_atom_site_fract_z
_atom_type_partial_charge
C1    C     C_R   0.729017 0.375330 0.145333 0.552049
C2    C     C_R   0.999082 0.003437 0.018948 -0.208383
C3    C     C_R   0.007649 0.782394 0.032978 0.013869
C4    C     C_R   0.508991 0.059477 0.035423 -0.178362
C5    C     C_R   0.495938 0.056461 0.964870 -0.180487
C6    C     C_R   0.008993 0.559476 0.035423 -0.178359
C7    C     C_R   0.995938 0.556460 0.964870 -0.180485
C8    C     C_3   0.602696 0.305252 0.828705 0.021517
C9    C     C_3   0.616053 0.313659 0.749174 -0.246414
C10   C     C_3   0.674470 0.228341 0.725440 -0.478543
C11   C     C_3   0.504726 0.505788 0.172434 0.020951
C12   C     C_3   0.457376 0.550415 0.232175 -0.275274
C13   C     C_R   0.517650 0.494424 0.948398 -0.159843
C14   C     C_3   0.457830 0.465212 0.295805 -0.394588
C15   C     C_3   0.102688 0.805246 0.828698 0.021513
C16   C     C_3   0.116058 0.813706 0.749172 -0.246454
C17   C     C_3   0.174405 0.728268 0.725409 -0.478551
C18   C     C_3   0.004727 0.005786 0.172434 0.020959
C19   C     C_3   0.957376 0.050421 0.232173 -0.275270
C20   C     C_3   0.957831 0.965231 0.295810 -0.394590
C21   C     C_3   0.643938 0.774608 0.082396 -0.274535
C22   C     C_3   0.677077 0.693558 0.139694 -0.411728
C23   C     C_3   0.363433 0.791834 0.926522 -0.277518
C24   C     C_R   0.499085 0.503439 0.018946 -0.208381
C25   C     C_3   0.333654 0.692029 0.879427 -0.421034
C26   C     C_3   0.143938 0.274610 0.082393 -0.274537
C27   C     C_3   0.177078 0.193557 0.139689 -0.411730
C28   C     C_3   0.863432 0.291835 0.926524 -0.277519
C29   C     C_3   0.833648 0.192027 0.879435 -0.421035
C30   C     C_3   0.631252 0.834189 0.925311 -0.263371
C31   C     C_3   0.614685 0.939526 0.874267 -0.427751
C32   C     C_3   0.373187 0.878881 0.078406 -0.263971
C33   C     C_3   0.399643 0.760482 0.110966 -0.403463
C34   C     C_3   0.131251 0.334200 0.925309 -0.263368
C35   C     C_R   0.697838 0.850595 0.042637 0.026980
C36   C     C_3   0.114688 0.439538 0.874265 -0.427757
C37   C     C_3   0.873190 0.378881 0.078408 -0.263970
C38   C     C_3   0.899643 0.260482 0.110971 -0.403462
C39   C     C_R   0.306083 0.864513 0.963447 0.023425
C40   C     C_R   0.197837 0.350600 0.042635 0.026979
C41   C     C_R   0.806086 0.364520 0.963449 0.023428
C42   C     C_R   0.698092 0.855764 0.967401 0.022058
C43   C     C_R   0.305140 0.870267 0.038320 0.023939
C44   C     C_R   0.198091 0.355770 0.967400 0.022060
C45   C     C_R   0.273522 0.367721 0.857506 0.537361
C46   C     C_R   0.805143 0.370273 0.038322 0.023939
C47   C     C_R   0.761097 0.888670 0.932903 0.022002
C48   C     C_R   0.243344 0.906651 0.072190 0.021867
C49   C     C_R   0.261096 0.388674 0.932902 0.022004
C50   C     C_R   0.743346 0.406658 0.072192 0.021868
C51   C     C_R   0.819304 0.922434 0.973000 -0.168526
C52   C     C_R   0.187936 0.954175 0.032882 -0.164543
C53   C     C_R   0.319304 0.422438 0.972999 -0.168523
C54   C     C_R   0.687940 0.454187 0.032885 -0.164540
C55   C     C_R   0.814357 0.936502 0.044730 -0.153403
C56   C     C_R   0.229016 0.875328 0.145332 0.552048
C57   C     C_R   0.194107 0.970481 0.961972 -0.167602
C58   C     C_R   0.314356 0.436505 0.044730 -0.153402
C59   C     C_R   0.694111 0.470496 0.961976 -0.167607
C60   C     C_R   0.752704 0.909134 0.079674 0.031542
C61   C     C_R   0.252099 0.926137 0.925710 0.013885
C62   C     C_R   0.252704 0.409136 0.079673 0.031542
C63   C     C_R   0.752102 0.426148 0.925713 0.013881
C64   C     C_R   0.535978 0.060332 0.473135 -0.124943
C65   C     C_R   0.526414 0.063990 0.545384 -0.136812
C66   C     C_R   0.035984 0.560336 0.473137 -0.124942
C67   C     C_R   0.773522 0.867720 0.857507 0.537354
C68   C     C_R   0.026419 0.563994 0.545386 -0.136812
C69   C     C_R   0.498402 0.168440 0.576657 0.023704
C70   C     C_R   0.519534 0.162232 0.430880 0.036107
C71   C     C_R   0.998403 0.668442 0.576657 0.023707
C72   C     C_R   0.019535 0.662232 0.430881 0.036105
C73   C     C_R   0.533184 0.156882 0.145818 0.582608
C74   C     C_R   0.466184 0.154661 0.854193 0.561192
C75   C     C_R   0.033184 0.656882 0.145818 0.582611
C76   C     C_R   0.966181 0.654661 0.854194 0.561182
C77   C     C_R   0.486082 0.273526 0.535518 -0.137267
C78   C     C_R   0.529133 0.381754 0.917325 0.273265
C79   C     C_R   0.497024 0.270521 0.462685 -0.147402
C80   C     C_R   0.986078 0.773525 0.535518 -0.137271
C81   C     C_R   0.997020 0.770518 0.462685 -0.147403
C82   C     C_R   0.788645 0.024214 0.472936 -0.129469
C83   C     C_R   0.184272 0.934730 0.543126 -0.142019
C84   C     C_R   0.288644 0.524214 0.472936 -0.129468
C85   C     C_R   0.684272 0.434729 0.543127 -0.142012
C86   C     C_R   0.790186 0.010480 0.545392 -0.138983
C87   C     C_R   0.178562 0.923639 0.470789 -0.125366
C88   C     C_R   0.290186 0.510480 0.545392 -0.138981
C89   C     C_R   0.498140 0.400459 0.064241 0.269183
C90   C     C_R   0.678562 0.423638 0.470789 -0.125367
C91   C     C_R   0.750750 0.918961 0.577346 0.027287
C92   C     C_R   0.237481 0.895895 0.429541 0.037171
C93   C     C_R   0.250750 0.418961 0.577346 0.027287
C94   C     C_R   0.737481 0.395895 0.429541 0.037170
C95   C     C_R   0.704752 0.848416 0.536513 -0.136670
C96   C     C_R   0.301660 0.873206 0.462184 -0.146628
C97   C     C_R   0.204753 0.348416 0.536513 -0.136672
C98   C     C_R   0.801660 0.373206 0.462184 -0.146628
C99   C     C_R   0.702220 0.863903 0.463503 -0.146199
C100  C     C_R   0.029132 0.881755 0.917326 0.273270
C101  C     C_R   0.307697 0.886490 0.535089 -0.136097
C102  C     C_R   0.202221 0.363902 0.463503 -0.146201
C103  C     C_R   0.807697 0.386491 0.535088 -0.136098
C104  C     C_R   0.745923 0.949251 0.431265 0.035263
C105  C     C_R   0.249331 0.921674 0.575356 0.026283
C106  C     C_R   0.245923 0.449251 0.431265 0.035262
C107  C     C_R   0.749331 0.421674 0.575356 0.026288
C108  C     C_R   0.741664 0.966987 0.148510 0.554770
C109  C     C_R   0.259790 0.970916 0.853304 0.531091
C110  C     C_R   0.241664 0.466987 0.148510 0.554769
C111  C     C_R   0.998139 0.900457 0.064242 0.269180
C112  C     C_R   0.759791 0.470922 0.853306 0.531073
C113  C     C_R   0.726908 0.372318 0.354795 0.551398
C114  C     C_R   0.270161 0.378659 0.647907 0.541182
C115  C     C_R   0.226908 0.872318 0.354795 0.551398
C116  C     C_R   0.770161 0.878659 0.647907 0.541180
C117  C     C_R   0.536619 0.156393 0.355944 0.547044
C118  C     C_R   0.467740 0.157536 0.646683 0.533923
C119  C     C_R   0.036619 0.656393 0.355944 0.547045
C120  C     C_R   0.967741 0.657536 0.646684 0.533949
C121  C     C_R   0.739915 0.977498 0.356449 0.545422
C122  C     C_R   0.017647 0.994424 0.948399 -0.159841
C123  C     C_R   0.258902 0.971192 0.645775 0.539354
C124  C     C_R   0.239915 0.477498 0.356449 0.545421
C125  C     C_R   0.758903 0.471194 0.645774 0.539348
C126  C     C_R   0.496680 0.162718 0.924879 -0.007321
C127  C     C_R   0.510120 0.169366 0.072093 0.030485
C128  C     C_R   0.996680 0.662718 0.924880 -0.007332
C129  C     C_R   0.010121 0.669365 0.072094 0.030485
C130  C     C_R   0.513034 0.275077 0.957402 -0.026695
C131  C     C_R   0.507649 0.282395 0.032977 0.013869
C132  C     C_R   0.013034 0.775076 0.957402 -0.026696
Cr1   Cr    Cr6+3 0.772000 0.169640 0.250110 0.976029
Cr2   Cr    Cr6+3 0.383330 0.010620 0.749160 0.987934
Cr3   Cr    Cr6+3 0.116670 0.510620 0.250840 0.990629
Cr4   Cr    Cr6+3 0.883330 0.510620 0.749160 0.987924
Cr5   Cr    Cr6+3 0.228000 0.169640 0.749890 0.995796
Cr6   Cr    Cr6+3 0.272000 0.669640 0.250110 0.976029
Cr7   Cr    Cr6+3 0.728000 0.669640 0.749890 0.995808
Cr8   Cr    Cr6+3 0.614960 0.323350 0.249260 0.978899
Cr9   Cr    Cr6+3 0.385040 0.323350 0.750740 1.036533
Cr10  Cr    Cr6+3 0.114960 0.823350 0.249260 0.978901
Cr11  Cr    Cr6+3 0.885040 0.823350 0.750740 1.036525
Cr12  Cr    Cr6+3 0.616670 0.010620 0.250840 0.990628
H1    H     H_    0.516647 0.972431 0.061359 0.132093
H2    H     H_    0.127425 0.935842 0.447396 0.134809
H3    H     H_    0.149688 0.446083 0.828214 0.158663
H4    H     H_    0.062093 0.425980 0.851740 0.155421
H5    H     H_    0.133930 0.246352 0.896471 0.174141
H6    H     H_    0.085440 0.328085 0.960727 0.110468
H7    H     H_    0.957199 0.257782 0.106284 0.090385
H8    H     H_    0.888050 0.257938 0.168326 0.172455
H9    H     H_    0.876865 0.180155 0.084404 0.168938
H10   H     H_    0.912021 0.409259 0.040130 0.133777
H11   H     H_    0.870533 0.451166 0.119545 0.144465
H12   H     H_    0.325333 0.566905 0.575891 0.126763
H13   H     H_    0.627425 0.435841 0.447396 0.134808
H14   H     H_    0.673824 0.776759 0.560237 0.135841
H15   H     H_    0.346948 0.847356 0.431398 0.117955
H16   H     H_    0.173824 0.276758 0.560237 0.135842
H17   H     H_    0.846948 0.347357 0.431398 0.117955
H18   H     H_    0.667183 0.808445 0.432330 0.117670
H19   H     H_    0.358644 0.875950 0.559131 0.136030
H20   H     H_    0.167184 0.308444 0.432330 0.117671
H21   H     H_    0.485806 0.968447 0.941796 0.127077
H22   H     H_    0.858645 0.375951 0.559130 0.136032
H23   H     H_    0.021371 0.076660 0.916705 0.123226
H24   H     H_    0.983787 0.092576 0.036689 0.099826
H25   H     H_    0.521375 0.576659 0.916703 0.123224
H26   H     H_    0.483791 0.592578 0.036687 0.099823
H27   H     H_    0.868995 0.942375 0.948718 0.158698
H28   H     H_    0.139648 0.983062 0.057042 0.148611
H29   H     H_    0.368995 0.442379 0.948717 0.158697
H30   H     H_    0.639652 0.483073 0.057044 0.148612
H31   H     H_    0.858293 0.973986 0.072608 0.177905
H32   H     H_    0.016650 0.472430 0.061358 0.132091
H33   H     H_    0.152903 0.020193 0.935635 0.153846
H34   H     H_    0.358293 0.473988 0.072608 0.177906
H35   H     H_    0.652907 0.520210 0.935639 0.153833
H36   H     H_    0.556738 0.977099 0.450541 0.136754
H37   H     H_    0.537230 0.982508 0.576173 0.127080
H38   H     H_    0.056747 0.477105 0.450543 0.136756
H39   H     H_    0.037239 0.482515 0.576176 0.127075
H40   H     H_    0.464260 0.355382 0.558773 0.133512
H41   H     H_    0.486549 0.351266 0.431387 0.106093
H42   H     H_    0.964252 0.855378 0.558771 0.133512
H43   H     H_    0.985807 0.468446 0.941796 0.127078
H44   H     H_    0.986540 0.851261 0.431385 0.106095
H45   H     H_    0.593212 0.208808 0.841341 0.109935
H46   H     H_    0.649628 0.331439 0.857767 0.135115
H47   H     H_    0.567869 0.289090 0.720465 0.181687
H48   H     H_    0.629082 0.408922 0.735002 0.201512
H49   H     H_    0.724760 0.258395 0.748080 0.152174
H50   H     H_    0.678536 0.230414 0.666804 0.148352
H51   H     H_    0.663743 0.133136 0.742263 0.140842
H52   H     H_    0.519284 0.586851 0.141229 0.065475
H53   H     H_    0.553551 0.472193 0.196057 0.203326
H54   H     H_    0.820648 0.094985 0.449797 0.134581
H55   H     H_    0.475022 0.641812 0.249962 0.086300
H56   H     H_    0.403664 0.559672 0.212419 0.215074
H57   H     H_    0.442619 0.371673 0.279783 0.195373
H58   H     H_    0.420544 0.498681 0.336218 0.140456
H59   H     H_    0.510497 0.464838 0.320035 0.150063
H60   H     H_    0.093187 0.708798 0.841309 0.109988
H61   H     H_    0.149621 0.831389 0.857775 0.135062
H62   H     H_    0.067855 0.789298 0.720445 0.181740
H63   H     H_    0.129166 0.908950 0.735041 0.201544
H64   H     H_    0.224710 0.758104 0.748109 0.152093
H65   H     H_    0.138433 0.960032 0.573278 0.124026
H66   H     H_    0.178513 0.730467 0.666777 0.148365
H67   H     H_    0.163567 0.633059 0.742146 0.140877
H68   H     H_    0.019288 0.086845 0.141229 0.065471
H69   H     H_    0.053551 0.972188 0.196060 0.203328
H70   H     H_    0.975024 0.141819 0.249957 0.086299
H71   H     H_    0.903666 0.059678 0.212416 0.215072
H72   H     H_    0.942612 0.871691 0.279796 0.195361
H73   H     H_    0.920552 0.998718 0.336224 0.140450
H74   H     H_    0.010500 0.964851 0.320034 0.150060
H75   H     H_    0.723109 0.644876 0.118218 0.158430
H76   H     H_    0.320647 0.594986 0.449797 0.134581
H77   H     H_    0.694093 0.744481 0.186959 0.167117
H78   H     H_    0.638126 0.627305 0.158545 0.132357
H79   H     H_    0.603026 0.833564 0.105798 0.168094
H80   H     H_    0.617448 0.710626 0.045967 0.114656
H81   H     H_    0.291965 0.641998 0.907717 0.157569
H82   H     H_    0.311773 0.730442 0.830019 0.154627
H83   H     H_    0.375941 0.627615 0.864652 0.159764
H84   H     H_    0.398265 0.851527 0.895536 0.179001
H85   H     H_    0.397549 0.744846 0.965408 0.126545
H86   H     H_    0.223109 0.144873 0.118209 0.158430
H87   H     H_    0.638434 0.460031 0.573278 0.124025
H88   H     H_    0.194097 0.244477 0.186953 0.167115
H89   H     H_    0.138128 0.127303 0.158541 0.132361
H90   H     H_    0.103026 0.333564 0.105798 0.168094
H91   H     H_    0.117447 0.210630 0.045963 0.114658
H92   H     H_    0.791964 0.141996 0.907731 0.157570
H93   H     H_    0.811759 0.230435 0.830029 0.154626
H94   H     H_    0.875934 0.127613 0.864655 0.159768
H95   H     H_    0.898264 0.351523 0.895533 0.179002
H96   H     H_    0.897549 0.244849 0.965409 0.126544
H97   H     H_    0.617917 0.027294 0.902899 0.144275
H98   H     H_    0.825334 0.066904 0.575891 0.126762
H99   H     H_    0.649684 0.946073 0.828214 0.158663
H100  H     H_    0.562090 0.925966 0.851744 0.155421
H101  H     H_    0.633933 0.746341 0.896473 0.174142
H102  H     H_    0.585441 0.828071 0.960729 0.110467
H103  H     H_    0.457200 0.757790 0.106278 0.090385
H104  H     H_    0.388049 0.757931 0.168320 0.172458
H105  H     H_    0.376868 0.680156 0.084396 0.168932
H106  H     H_    0.412017 0.909265 0.040128 0.133780
H107  H     H_    0.370528 0.951162 0.119544 0.144465
H108  H     H_    0.117919 0.527306 0.902897 0.144278
O1    O     O_R   0.787540 0.042690 0.170470 -0.542456
O2    O     O_R   0.454130 0.051100 0.669160 -0.525106
O3    O     O_R   0.045870 0.551100 0.330840 -0.526129
O4    O     O_R   0.954130 0.551100 0.669160 -0.525101
O5    O     O_R   0.681340 0.959300 0.325510 -0.510319
O6    O     O_R   0.318660 0.959300 0.674490 -0.507873
O7    O     O_R   0.181340 0.459300 0.325510 -0.510319
O8    O     O_R   0.818660 0.459300 0.674490 -0.507890
O9    O     O_3   0.667880 0.167870 0.250070 -0.245398
O10   O     O_3   0.332120 0.167870 0.749930 -0.246696
O11   O     O_3   0.167880 0.667870 0.250070 -0.245399
O12   O     O_R   0.212460 0.042690 0.829530 -0.531427
O13   O     O_3   0.832120 0.667870 0.749930 -0.246696
O14   O     O_R   0.765660 0.292160 0.175050 -0.495796
O15   O     O_R   0.234340 0.292160 0.824950 -0.508354
O16   O     O_R   0.265660 0.792160 0.175050 -0.495795
O17   O     O_R   0.734340 0.792160 0.824950 -0.508356
O18   O     O_R   0.670190 0.408980 0.168550 -0.568956
O19   O     O_R   0.329810 0.408980 0.831450 -0.535085
O20   O     O_R   0.170190 0.908980 0.168550 -0.568959
O21   O     O_R   0.829810 0.908980 0.831450 -0.535085
O22   O     O_R   0.556580 0.251450 0.175160 -0.469720
O23   O     O_R   0.287540 0.542690 0.170470 -0.542456
O24   O     O_R   0.443420 0.251450 0.824840 -0.443190
O25   O     O_R   0.056580 0.751450 0.175160 -0.469719
O26   O     O_R   0.943420 0.751450 0.824840 -0.443194
O27   O     O_R   0.545920 0.049510 0.170320 -0.542643
O28   O     O_R   0.454080 0.049510 0.829680 -0.559107
O29   O     O_R   0.045920 0.549510 0.170320 -0.542644
O30   O     O_R   0.954080 0.549510 0.829680 -0.559107
O31   O     O_R   0.681390 0.957840 0.176710 -0.509031
O32   O     O_R   0.318610 0.957840 0.823290 -0.512534
O33   O     O_R   0.181390 0.457840 0.176710 -0.509031
O34   O     O_R   0.712460 0.542690 0.829530 -0.531407
O35   O     O_R   0.818610 0.457840 0.823290 -0.512548
O36   O     O_R   0.787500 0.044280 0.330990 -0.541498
O37   O     O_R   0.212500 0.044280 0.669010 -0.536576
O38   O     O_R   0.287500 0.544280 0.330990 -0.541500
O39   O     O_R   0.712500 0.544280 0.669010 -0.536546
O40   O     O_R   0.765610 0.293630 0.323860 -0.508963
O41   O     O_R   0.234390 0.293630 0.676140 -0.507400
O42   O     O_R   0.265610 0.793630 0.323860 -0.508963
O43   O     O_R   0.734390 0.793630 0.676140 -0.507399
O44   O     O_R   0.670140 0.410570 0.329080 -0.543789
O45   O     O_R   0.556540 0.252920 0.323970 -0.526466
O46   O     O_R   0.329860 0.410570 0.670920 -0.524410
O47   O     O_R   0.170140 0.910570 0.329080 -0.543790
O48   O     O_R   0.829860 0.910570 0.670920 -0.524413
O49   O     O_3   0.546037 0.383075 0.845579 -0.553864
O50   O     O_3   0.471815 0.411406 0.132981 -0.559064
O51   O     O_3   0.046037 0.883081 0.845580 -0.553869
O52   O     O_3   0.971815 0.911404 0.132982 -0.559059
O53   O     O_R   0.443460 0.252920 0.676030 -0.510143
O54   O     O_R   0.056540 0.752920 0.323970 -0.526461
O55   O     O_R   0.943460 0.752920 0.676030 -0.510151
O56   O     O_R   0.545870 0.051100 0.330840 -0.526129

loop_
_geom_bond_atom_site_label_1
_geom_bond_atom_site_label_2
_ccdc_geom_bond_type
C119  O54   A    
C108  O1    A    
C95   H14   S    
C19   C20   S    
Cr6   O42   S    
Cr7   O39   S    
Cr7   O17   S    
C75   O25   A    
C76   O30   A    
C82   H54   S    
C124  O38   A    
C95   C99   A    
C70   C117  S    
C14   H57   S    
C117  O45   A    
C105  C123  S    
C115  O47   A    
C38   H8    S    
C35   C42   A    
C36   H4    S    
C66   C72   A    
C8    H46   S    
C5    C126  A    
Cr4   O8    S    
Cr3   O33   S    
C7    C128  A    
Cr4   O30   S    
Cr5   O10   S    
C113  O44   A    
C66   H38   S    
C21   C22   S    
C115  O42   A    
Cr12  O9    S    
Cr10  O25   S    
C34   H5    S    
Cr11  O48   S    
C77   C79   A    
C39   C61   A    
C22   H77   S    
C2    C111  A    
C31   H100  S    
C101  H19   S    
C17   H66   S    
C10   H49   S    
Cr1   O1    S    
C83   C105  A    
C35   C60   A    
Cr11  O13   S    
C37   C38   S    
Cr11  O55   S    
C99   H18   S    
C32   H107  S    
C86   H98   S    
C83   H65   S    
C21   C35   S    
Cr10  O11   S    
C41   C63   A    
C56   O20   A    
C20   H72   S    
C122  H23   S    
C30   H102  S    
C4    C127  A    
C70   C79   A    
C3    C129  A    
C37   H10   S    
C17   H64   S    
C84   C88   A    
C4    C5    A    
C53   C58   A    
C100  C132  A    
C57   C61   A    
C6    C7    A    
C104  C121  S    
C59   C63   A    
C89   C131  A    
C54   H30   S    
C130  C131  A    
C64   C65   A    
C49   C53   A    
C25   H81   S    
C36   H108  S    
C19   H71   S    
C93   C114  S    
C127  C131  A    
Cr5   O12   S    
C45   O15   A    
C114  O41   A    
C106  C124  S    
C126  C130  A    
C103  C107  A    
C9    H47   S    
C26   H91   S    
C98   C103  A    
C22   H75   S    
C116  O43   A    
C87   H2    S    
C20   H73   S    
C28   C41   S    
C69   C77   A    
C85   H87   S    
C52   H28   S    
C120  O4    A    
C53   H29   S    
C73   O27   A    
Cr1   O9    S    
C74   O28   A    
Cr10  O54   S    
C7    H43   S    
C28   H95   S    
Cr9   O53   S    
C92   C96   A    
C91   C116  S    
C33   H104  S    
C84   H76   S    
C124  O7    A    
Cr10  O47   S    
C24   H26   S    
C9    C10   S    
C51   C55   A    
C26   H90   S    
C13   H25   S    
Cr7   O13   S    
C94   C113  S    
C54   C59   A    
C107  C125  S    
C25   H83   S    
Cr2   O32   S    
Cr7   O34   S    
C121  O36   A    
C117  O56   A    
C15   O51   S    
C73   O22   A    
Cr1   O36   S    
Cr12  O31   S    
C12   H56   S    
C58   H34   S    
C23   H85   S    
C109  O12   A    
Cr12  O5    S    
C125  O39   A    
C93   C97   A    
C29   H94   S    
Cr11  O21   S    
C13   C78   A    
C80   H42   S    
C97   C102  A    
Cr8   O45   S    
Cr3   O7    S    
Cr6   O23   S    
Cr2   O28   S    
C90   H13   S    
C78   C130  A    
C57   H33   S    
C4    H1    S    
C14   H58   S    
C120  O55   A    
Cr12  O27   S    
C34   C36   S    
C56   O16   A    
C91   C95   A    
C110  O23   A    
C27   H88   S    
C40   C44   A    
C96   H15   S    
C102  H20   S    
C38   H9    S    
C96   C101  A    
Cr4   O35   S    
C121  O5    A    
C58   C62   A    
C83   C87   A    
C2    H24   S    
C38   H7    S    
C16   H63   S    
C23   H84   S    
C34   H6    S    
C22   H78   S    
C125  O8    A    
C26   C27   S    
C50   C54   A    
C88   H12   S    
C31   H99   S    
C28   C29   S    
C30   H101  S    
C48   C52   A    
C86   C91   A    
C10   H50   S    
C30   C31   S    
C94   C98   A    
C111  O52   S    
C118  O53   A    
C69   C118  S    
C48   C56   S    
C18   C19   S    
C8    O49   S    
C1    O14   A    
C3    C111  A    
C16   C17   S    
C84   C106  A    
C112  O35   A    
C1    C50   S    
C81   H44   S    
C72   C81   A    
C60   C108  S    
C99   C104  A    
C55   C60   A    
C90   C94   A    
C2    C122  A    
C3    C132  A    
C97   H16   S    
C11   H52   S    
C11   O50   S    
C47   C51   A    
C73   C127  S    
Cr11  O26   S    
C36   H3    S    
C45   C49   S    
C8    H45   S    
C33   H105  S    
C15   H61   S    
C108  O31   A    
C76   C128  S    
C98   H17   S    
C75   O29   A    
C20   H74   S    
C31   H97   S    
C17   H67   S    
C119  O3    A    
C32   C33   S    
C100  O51   S    
C59   H35   S    
Cr6   O38   S    
C82   C86   A    
C28   H96   S    
Cr7   O43   S    
C110  O33   A    
Cr6   O16   S    
C68   C71   A    
C65   C69   A    
Cr5   O41   S    
Cr8   O18   S    
C33   H103  S    
Cr9   O19   S    
C123  O37   A    
C92   C115  S    
C52   C57   A    
C67   O17   A    
C114  O46   A    
C30   C42   S    
Cr3   O3    S    
C37   C46   S    
C47   C67   S    
Cr12  O56   S    
C44   C49   A    
C78   O49   S    
C66   C68   A    
C68   H39   S    
Cr3   O11   S    
C21   H80   S    
Cr9   O10   S    
C37   H11   S    
Cr3   O29   S    
C61   C109  S    
C24   C89   A    
C15   H60   S    
Cr1   O14   S    
C65   H37   S    
C113  O40   A    
C71   C120  S    
C16   H62   S    
C64   H36   S    
C15   C16   S    
C32   H106  S    
C25   H82   S    
C77   H40   S    
C40   C62   A    
Cr8   O22   S    
C63   C112  S    
C118  O2    A    
C32   C43   S    
C8    C9    S    
C18   O52   S    
C41   C46   A    
C64   C70   A    
C9    H48   S    
C43   C48   A    
Cr2   O6    S    
Cr2   O10   S    
C112  O34   A    
C6    C129  A    
C128  C132  A    
C29   H93   S    
C71   C80   A    
C123  O6    A    
C101  C105  A    
Cr1   O40   S    
C34   C44   S    
Cr2   O2    S    
C109  O32   A    
C39   C43   A    
C1    O18   A    
C13   C24   A    
Cr4   O13   S    
C67   O21   A    
C18   H68   S    
C11   H53   S    
C29   H92   S    
C62   C110  S    
C14   H59   S    
C55   H31   S    
C89   O50   S    
Cr9   O46   S    
C12   C14   S    
C5    H21   S    
Cr8   O9    S    
C85   C90   A    
C18   H69   S    
C87   C92   A    
C45   O19   A    
C88   C93   A    
C79   H41   S    
Cr4   O4    S    
Cr5   O37   S    
C80   C81   A    
Cr8   O44   S    
C11   C12   S    
C46   C50   A    
C76   O26   A    
C19   H70   S    
C51   H27   S    
C10   H51   S    
Cr5   O15   S    
C26   C40   S    
C74   C126  S    
C6    H32   S    
C23   C39   S    
C72   C119  S    
C74   O24   A    
C12   H55   S    
C102  C106  A    
C100  C122  A    
C42   C47   A    
C23   C25   S    
C27   H86   S    
Cr10  O20   S    
C27   H89   S    
C21   H79   S    
Cr6   O11   S    
C116  O48   A    
C103  H22   S    
C82   C104  A    
Cr9   O24   S    
C85   C107  A    
C75   C129  S    
