data_mof_unit_54615.cif
_audit_creation_date              2013-03-05T16:31:07-0500
_audit_creation_method            fapswitch 2.2
_symmetry_space_group_name_H-M    P1
_symmetry_Int_Tables_number       1
_space_group_crystal_system       triclinic
_cell_length_a                    10.87743
_cell_length_b                    10.859515
_cell_length_c                    9.579265
_cell_angle_alpha                 89.196188
_cell_angle_beta                  89.422939
_cell_angle_gamma                 90.104971
_cell_volume                      1131.36646473

loop_
_atom_site_label
_atom_site_type_symbol
_atom_site_description
_atom_site_fract_x
_atom_site_fract_y
_atom_site_fract_z
_atom_type_partial_charge
O1    O     O_R   0.500000 0.319640 0.618810 -0.584294
O2    O     O_R   0.500010 0.319680 0.381230 -0.602110
C1    C     C_R   0.501058 0.262685 0.500596 0.807603
O3    O     O_R   0.319640 0.499980 0.618820 -0.597858
O4    O     O_R   0.319650 0.500020 0.381230 -0.582119
C2    C     C_R   0.262445 0.501213 0.500652 0.803497
Cu1   Cu    Cu3+1 0.499990 0.499980 0.640670 0.967964
Cu2   Cu    Cu3+1 0.500010 0.500020 0.359330 1.017495
O5    O     O_R   0.499990 0.680320 0.618770 -0.570665
O6    O     O_R   0.500000 0.680360 0.381190 -0.483494
O7    O     O_R   0.680350 0.499980 0.618770 -0.577551
O8    O     O_R   0.680360 0.500020 0.381180 -0.564267
C3    C     C_R   0.499610 0.737737 0.498892 0.936117
C4    C     C_R   0.737490 0.499293 0.499881 0.866131
H1    H     H_    0.113642 0.335588 0.389185 0.137314
C5    C     C_R   0.123954 0.708308 0.615205 0.048745
C6    C     C_R   0.065171 0.783226 0.712907 0.475079
C7    C     C_R   0.936696 0.785452 0.711653 -0.330841
H2    H     H_    0.888170 0.861733 0.758377 0.168804
C8    C     C_R   0.873026 0.705052 0.625143 0.417796
C9    C     C_R   0.934159 0.601327 0.569239 -0.020996
C10   C     C_R   0.063908 0.601703 0.568616 -0.076171
C11   C     C_R   0.128455 0.505651 0.502086 -0.019387
C12   C     C_R   0.064467 0.410170 0.438739 -0.163031
H3    H     H_    0.888894 0.334109 0.390427 0.143718
C13   C     C_R   0.936891 0.409305 0.439537 -0.181842
C14   C     C_R   0.871261 0.505072 0.501416 -0.036325
C15   C     C_R   0.529113 0.061564 0.620422 0.107977
C16   C     C_R   0.508337 0.129854 0.499087 -0.135871
C17   C     C_R   0.500552 0.068550 0.371545 -0.344554
H4    H     H_    0.494978 0.121499 0.275475 0.173404
C18   C     C_R   0.493076 0.939412 0.367956 0.471743
C19   C     C_R   0.504884 0.871915 0.495324 -0.165977
C20   C     C_R   0.528750 0.935022 0.618358 0.099267
C21   C     C_3   0.467432 0.925661 0.758466 -0.435907
C22   C     C_3   0.466982 0.065475 0.759895 -0.454275
H5    H     H_    0.374118 0.884342 0.753903 0.251976
H6    H     H_    0.528541 0.884400 0.838663 0.202154
H7    H     H_    0.373109 0.105659 0.755138 0.219602
H8    H     H_    0.527519 0.104430 0.841064 0.188158
C23   C     C_R   0.608213 0.512094 0.070676 0.191831
N1    N     N_R   0.500790 0.500930 0.147930 -0.172705
C24   C     C_R   0.395418 0.477469 0.075678 -0.057338
H9    H     H_    0.310018 0.460141 0.130942 0.154769
C25   C     C_R   0.395420 0.477618 0.927463 -0.074766
H10   H     H_    0.310041 0.460742 0.874377 0.149667
N2    N     N_R   0.500790 0.500890 0.852020 -0.176015
C26   C     C_R   0.606835 0.511010 0.923753 0.153213
C27   C     C_3   0.695291 0.612580 0.905303 -0.518299
C28   C     C_3   0.701319 0.616960 0.063882 0.501228
H11   H     H_    0.781453 0.580534 0.854849 0.189835
H12   H     H_    0.652073 0.693618 0.853747 0.227343
I1    I     I_    0.881775 0.562513 0.133059 -0.475733
O9    O     O_3   0.653849 0.727255 0.120191 -0.500840
C29   C     C_3   0.732523 0.828240 0.088650 -0.285405
H13   H     H_    0.688179 0.913956 0.124902 0.194735
H14   H     H_    0.749715 0.840704 0.974972 0.141293
H15   H     H_    0.821118 0.820412 0.144243 0.167180
I2    I     I_    0.204408 0.813376 0.451810 -0.395521
O10   O     O_3   0.129170 0.880330 0.769326 -0.567187
C30   C     C_3   0.119126 0.873028 0.916092 -0.328456
H16   H     H_    0.157229 0.784590 0.956958 0.178399
H17   H     H_    0.022532 0.885017 0.952687 0.166057
H18   H     H_    0.173802 0.949042 0.960556 0.180135
O11   O     O_3   0.763813 0.744374 0.569028 -0.590923
C31   C     C_3   0.792348 0.826903 0.457279 -0.321773
H19   H     H_    0.879598 0.805423 0.400204 0.185925
H20   H     H_    0.796015 0.922726 0.496135 0.169354
H21   H     H_    0.719562 0.821234 0.378491 0.214326
O12   O     O_3   0.477375 0.875862 0.243831 -0.518402
C32   C     C_3   0.401869 0.937903 0.146823 -0.257663
H22   H     H_    0.456185 0.006934 0.085749 0.139193
H23   H     H_    0.320293 0.981002 0.197300 0.162477
H24   H     H_    0.367484 0.869402 0.071786 0.197056

loop_
_geom_bond_atom_site_label_1
_geom_bond_atom_site_label_2
_geom_bond_distance
_ccdc_geom_bond_type
C31   H20   1.110847 S    
C29   H13   1.107732 S    
C23   N1    1.381040 A    
C21   C22   1.518582 S    
Cu1   Cu2   2.695022 S    
C25   H10   1.079889 S    
Cu1   O7    1.970936 S    
C13   C14   1.397873 A    
C28   O9    1.416669 S    
C15   C16   1.390581 A    
C21   H5    1.110533 S    
C12   C13   1.387652 A    
C7    H2    1.082770 S    
O4    C2    1.296975 A    
O7    C4    1.292043 A    
C31   H21   1.101538 S    
C1    C16   1.445057 S    
C20   C21   1.494792 S    
C30   H17   1.112725 S    
O5    C3    1.299038 A    
C5    C6    1.399248 A    
C27   H11   1.108993 S    
C11   C12   1.396893 A    
O12   C32   1.411322 S    
C4    C14   1.456562 S    
C31   H19   1.117131 S    
C9    C14   1.417107 A    
C15   C20   1.374608 A    
C9    C10   1.411291 A    
O3    Cu1   1.974973 S    
C19   C20   1.397945 A    
C25   N2    1.370015 A    
C28   I1    2.158965 S    
C8    O11   1.375070 S    
C22   H8    1.111597 S    
C21   H6    1.111083 S    
O3    C2    1.297060 A    
C32   H23   1.113317 S    
C18   O12   1.394954 S    
H3    C13   1.083909 S    
O10   C30   1.410157 S    
O1    C1    1.297852 A    
C5    I2    2.106226 S    
Cu1   N2    2.024848 S    
C30   H18   1.108926 S    
C24   H9    1.079462 S    
C3    C19   1.458035 S    
C16   C17   1.402767 A    
C32   H24   1.108750 S    
N2    C26   1.353673 A    
Cu2   O8    1.974975 S    
C27   H12   1.110570 S    
C6    C7    1.397903 A    
C24   C25   1.419776 A    
H1    C12   1.083828 S    
O8    C4    1.301214 A    
O11   C31   1.418035 S    
C29   H14   1.109403 S    
N1    C24   1.370221 A    
C23   C28   1.522861 S    
Cu1   O5    1.966681 S    
O9    C29   1.417160 S    
C26   C27   1.469977 S    
C5    C10   1.408402 A    
O1    Cu1   1.972487 S    
C22   H7    1.112279 S    
O2    Cu2   1.966682 S    
Cu2   N1    2.024873 S    
O6    C3    1.295816 A    
O4    Cu2   1.970936 S    
C18   C19   1.421554 A    
O2    C1    1.292715 A    
C32   H22   1.110143 S    
C17   C18   1.405498 A    
C17   H4    1.080576 S    
C2    C11   1.458279 S    
C23   C26   1.407861 A    
C7    C8    1.399405 A    
C30   H16   1.114258 S    
C6    O10   1.381875 S    
C8    C9    1.417834 A    
C15   C22   1.492341 S    
Cu2   O6    1.972487 S    
C27   C28   1.522547 S    
C29   H15   1.108552 S    
C10   C11   1.414015 A    
