data_mof_unit_50836.cif
_audit_creation_date              2012-12-11T15:24:34-0500
_audit_creation_method            fapswitch 2.2
_symmetry_space_group_name_H-M    P1
_symmetry_Int_Tables_number       1
_space_group_crystal_system       triclinic
_cell_length_a                    22.992373
_cell_length_b                    6.956411
_cell_length_c                    20.709544
_cell_angle_alpha                 89.984136
_cell_angle_beta                  93.246825
_cell_angle_gamma                 89.97346
_cell_volume                      3307.05801867

loop_
_atom_site_label
_atom_site_type_symbol
_atom_type_description
_atom_site_fract_x
_atom_site_fract_y
_atom_site_fract_z
_atom_type_partial_charge
O1    O     O_R   0.188030 0.379840 0.189340 -0.541234
O2    O     O_R   0.811970 0.620160 0.810660 -0.541234
O3    O     O_R   0.311970 0.879840 0.310660 -0.541472
O4    O     O_R   0.688030 0.120160 0.689340 -0.541472
O5    O     O_R   0.307090 0.708420 0.185790 -0.532795
O6    O     O_R   0.692910 0.291580 0.814210 -0.532795
O7    O     O_R   0.192910 0.208420 0.314210 -0.532268
O8    O     O_R   0.807090 0.791580 0.685790 -0.532268
C1    C     C_R   0.326737 0.540799 0.170727 0.723077
C2    C     C_R   0.673263 0.459201 0.829272 0.723077
C3    C     C_R   0.173264 0.040822 0.329273 0.725441
C4    C     C_R   0.826736 0.959178 0.670727 0.725441
O9    O     O_R   0.188180 0.709480 0.181650 -0.543232
O10   O     O_R   0.811820 0.290520 0.818350 -0.543232
O11   O     O_R   0.311820 0.209480 0.318350 -0.543960
O12   O     O_R   0.688180 0.790520 0.681650 -0.543960
O13   O     O_R   0.192210 0.880960 0.306500 -0.536636
O14   O     O_R   0.807790 0.119040 0.693500 -0.536636
O15   O     O_R   0.307790 0.380960 0.193500 -0.536705
O16   O     O_R   0.692210 0.619040 0.806500 -0.536706
C5    C     C_R   0.167744 0.540630 0.165345 0.711735
C6    C     C_R   0.832256 0.459370 0.834655 0.711736
C7    C     C_R   0.332402 0.040504 0.334481 0.712264
C8    C     C_R   0.667598 0.959496 0.665519 0.712264
O17   O     O_3   0.251460 0.546730 0.290970 -0.368902
O18   O     O_3   0.748540 0.453270 0.709030 -0.368902
O19   O     O_3   0.248540 0.046730 0.209030 -0.369634
O20   O     O_3   0.751460 0.953270 0.790970 -0.369634
V1    V     V_3+5 0.249730 0.821120 0.242400 1.436451
V2    V     V_3+5 0.750270 0.178880 0.757600 1.436451
V3    V     V_3+5 0.250270 0.321120 0.257600 1.436508
V4    V     V_3+5 0.749730 0.678880 0.742400 1.436509
C9    C     C_R   0.582048 0.134760 0.612853 -0.207255
C10   C     C_R   0.417952 0.865240 0.387147 -0.207255
C11   C     C_R   0.921391 0.316992 0.892077 -0.212300
C12   C     C_R   0.078609 0.683008 0.107923 -0.212300
C13   C     C_R   0.618100 0.970746 0.616286 -0.082765
C14   C     C_R   0.381900 0.029254 0.383714 -0.082765
C15   C     C_R   0.881402 0.469790 0.884316 -0.080876
C16   C     C_R   0.118598 0.530210 0.115684 -0.080876
C17   C     C_R   0.606397 0.818389 0.572718 -0.216508
C18   C     C_R   0.393603 0.181611 0.427282 -0.216508
C19   C     C_R   0.889181 0.634392 0.923458 -0.212608
C20   C     C_R   0.110819 0.365608 0.076542 -0.212607
C21   C     C_R   0.559855 0.829963 0.525840 0.089866
C22   C     C_R   0.440145 0.170037 0.474160 0.089866
C23   C     C_R   0.935837 0.646380 0.970143 0.089042
C24   C     C_R   0.064163 0.353620 0.029857 0.089042
C25   C     C_R   0.523652 0.994123 0.523273 0.055573
C26   C     C_R   0.476348 0.005877 0.476726 0.055573
C27   C     C_R   0.976204 0.493818 0.976897 0.055253
C28   C     C_R   0.023796 0.506182 0.023103 0.055253
C29   C     C_R   0.534670 0.146581 0.567165 0.088367
C30   C     C_R   0.465330 0.853419 0.432835 0.088367
C31   C     C_R   0.969107 0.329043 0.937461 0.090511
C32   C     C_R   0.030893 0.670957 0.062539 0.090511
C33   C     C_R   0.548885 0.680401 0.481339 -0.176360
C34   C     C_R   0.451115 0.319599 0.518661 -0.176360
C35   C     C_R   0.942888 0.808334 0.010244 -0.184912
C36   C     C_R   0.057112 0.191666 0.989756 -0.184912
C37   C     C_R   0.502019 0.691903 0.435314 -0.184194
C38   C     C_R   0.497981 0.308097 0.564686 -0.184194
C39   C     C_R   0.989911 0.820345 0.056077 -0.176403
C40   C     C_R   0.010089 0.179655 0.943923 -0.176403
H1    H     H_    0.590341 0.252498 0.646409 0.125458
H2    H     H_    0.409659 0.747502 0.353591 0.125458
H3    H     H_    0.916039 0.190267 0.861859 0.124148
H4    H     H_    0.083961 0.809733 0.138141 0.124148
H5    H     H_    0.576347 0.553686 0.482387 0.138570
H6    H     H_    0.423652 0.446314 0.517613 0.138570
H7    H     H_    0.912203 0.926552 0.005894 0.137232
H8    H     H_    0.087797 0.073448 0.994106 0.137232
H9    H     H_    0.494264 0.573687 0.401869 0.136011
H10   H     H_    0.505735 0.426313 0.598131 0.136011
H11   H     H_    0.994430 0.947374 0.086213 0.138539
H12   H     H_    0.005570 0.052625 0.913787 0.138539
C41   C     C_3   0.036787 0.137818 0.519511 0.036859
C42   C     C_3   0.963213 0.862182 0.480489 0.036859
C43   C     C_3   0.463240 0.638086 0.980537 0.037059
C44   C     C_3   0.536760 0.361914 0.019463 0.037059
C45   C     C_3   0.022930 0.958027 0.559729 -0.175649
C46   C     C_3   0.977070 0.041973 0.440271 -0.175649
C47   C     C_3   0.477079 0.458456 0.940248 -0.175805
C48   C     C_3   0.522921 0.541544 0.059752 -0.175805
H13   H     H_    0.041926 0.924338 0.608911 0.151788
H14   H     H_    0.958074 0.075662 0.391089 0.151788
H15   H     H_    0.458090 0.425125 0.891046 0.151633
H16   H     H_    0.541910 0.574875 0.108954 0.151633
H17   H     H_    0.052081 0.691984 0.496612 0.158073
H18   H     H_    0.947919 0.308016 0.503388 0.158073
H19   H     H_    0.447864 0.192237 0.003245 0.158129
H20   H     H_    0.552136 0.807763 0.996755 0.158129
C49   C     C_1   0.872189 0.968422 0.624985 -0.155476
C50   C     C_1   0.127810 0.031578 0.375015 -0.155476
C51   C     C_1   0.627815 0.468486 0.875018 -0.155645
C52   C     C_1   0.372185 0.531513 0.124982 -0.155645
C53   C     C_3   0.971294 0.168759 0.501559 -0.185233
C54   C     C_3   0.028706 0.831241 0.498441 -0.185233
C55   C     C_3   0.528732 0.668632 0.998520 -0.185157
C56   C     C_3   0.471268 0.331368 0.001480 -0.185157
C57   C     C_3   0.957519 0.987378 0.540955 0.082122
C58   C     C_3   0.042480 0.012622 0.459045 0.082122
C59   C     C_3   0.542488 0.487408 0.959052 0.082079
C60   C     C_3   0.457512 0.512592 0.040947 0.082079
C61   C     C_1   0.910534 0.976610 0.587049 0.037760
C62   C     C_1   0.089466 0.023390 0.412951 0.037760
C63   C     C_1   0.589473 0.476669 0.912959 0.037481
C64   C     C_1   0.410527 0.523331 0.087041 0.037481
H21   H     H_    0.633952 0.691779 0.574712 0.130782
H22   H     H_    0.366048 0.308221 0.425288 0.130781
H23   H     H_    0.858487 0.752472 0.918087 0.129369
H24   H     H_    0.141513 0.247528 0.081912 0.129369
C65   C     C_2   0.077068 0.295112 0.543040 0.735905
O21   O     O_2   0.066978 0.382720 0.592312 -0.559798
O22   O     O_R   0.125668 0.341567 0.508630 -0.666913
H25   H     H_    0.149183 0.450993 0.529210 0.294407
C66   C     C_2   0.922932 0.704888 0.456960 0.735905
O23   O     O_2   0.933022 0.617280 0.407688 -0.559798
O24   O     O_R   0.874332 0.658433 0.491370 -0.666913
H26   H     H_    0.850817 0.549007 0.470790 0.294407
C67   C     C_2   0.422985 0.795672 0.957061 0.735794
O25   O     O_2   0.433111 0.883563 0.907851 -0.559983
O26   O     O_R   0.374364 0.842061 0.991446 -0.666869
H27   H     H_    0.350874 0.951741 0.970919 0.294260
C68   C     C_2   0.577015 0.204328 0.042939 0.735794
O27   O     O_2   0.566889 0.116437 0.092149 -0.559983
O28   O     O_R   0.625635 0.157939 0.008554 -0.666869
H28   H     H_    0.649126 0.048259 0.029081 0.294260

loop_
_geom_bond_atom_site_label_1
_geom_bond_atom_site_label_2
_ccdc_geom_bond_type
C34   C38   A    
C47   H15   S    
O1    C5    A    
O19   V1    S    
O13   V1    S    
O3    C7    A    
O1    V3    S    
C44   C48   S    
O4    V2    S    
O15   V3    S    
C10   H2    S    
C9    H1    S    
O26   H27   S    
C45   C57   S    
O7    C3    A    
C43   C67   S    
C21   C33   A    
O5    C1    A    
C26   C30   A    
C47   C59   S    
O9    V1    S    
C14   C18   A    
C66   O24   S    
O4    C8    A    
C45   C54   S    
C36   H8    S    
O22   H25   S    
C56   C60   S    
O2    V4    S    
C18   C22   A    
O3    V1    S    
C12   C16   A    
C49   C61   T    
C1    O15   A    
C3    O13   A    
C2    O16   A    
C42   C54   S    
C41   C53   S    
O14   V2    S    
C21   C25   A    
H19   C56   S    
H18   C53   S    
O11   C7    A    
C52   C64   T    
O12   C8    A    
C17   H21   S    
C22   C34   A    
C42   C57   S    
O17   V1    S    
C41   C58   S    
C19   H23   S    
O10   V2    S    
C41   C65   S    
C24   C36   A    
O5    V1    S    
C9    C29   A    
C44   C56   S    
C57   C61   S    
O7    V3    S    
C44   C59   S    
C11   C31   A    
C27   C28   A    
O8    V4    S    
O20   V4    S    
C42   C66   S    
C55   C59   S    
O18   V4    S    
C34   H6    S    
C15   C19   A    
C37   H9    S    
C46   H14   S    
O19   V3    S    
C9    C13   A    
C46   C58   S    
C11   C15   A    
O2    C6    A    
C12   C32   A    
C29   C38   A    
C42   C46   S    
C41   C45   S    
O8    C4    A    
C31   C40   A    
C8    C13   S    
C40   H12   S    
C32   C39   A    
O9    C5    A    
C33   C37   A    
C1    C52   S    
C67   O25   D    
C51   C63   T    
C20   H24   S    
C3    C50   S    
O6    V2    S    
C16   C20   A    
C10   C30   A    
C47   C56   S    
C68   O27   D    
C48   C60   S    
C46   C53   S    
C43   C60   S    
O28   H28   S    
C60   C64   S    
C65   O21   D    
O16   V4    S    
C43   C55   S    
C50   C62   T    
C10   C14   A    
C48   C55   S    
O17   V3    S    
C48   H16   S    
O6    C2    A    
C23   C27   A    
O24   H26   S    
C12   H4    S    
O11   V3    S    
C30   C37   A    
O12   V4    S    
C7    C14   S    
C22   C26   A    
C35   C39   A    
H17   C54   S    
C36   C40   A    
O10   C6    A    
O20   V2    S    
C18   H22   S    
C54   C58   S    
C66   O23   D    
C43   C47   S    
C5    C16   S    
C39   H11   S    
C2    C51   S    
C25   C29   A    
C6    C15   S    
C58   C62   S    
C27   C31   A    
C13   C17   A    
C4    C49   S    
C45   H13   S    
C67   O26   S    
C11   H3    S    
C23   C35   A    
C28   C32   A    
C24   C28   A    
C25   C26   A    
C44   C68   S    
C4    O14   A    
C68   O28   S    
C17   C21   A    
C38   H10   S    
C59   C63   S    
C33   H5    S    
C19   C23   A    
C53   C57   S    
C20   C24   A    
H20   C55   S    
C35   H7    S    
C65   O22   S    
O18   V2    S    
