data_mof_unit_7942.cif
_audit_creation_date              2012-12-10T20:31:03-0500
_audit_creation_method            fapswitch 2.2
_symmetry_space_group_name_H-M    P1
_symmetry_Int_Tables_number       1
_space_group_crystal_system       triclinic
_cell_length_a                    14.826344
_cell_length_b                    10.685854
_cell_length_c                    9.975213
_cell_angle_alpha                 90.820656
_cell_angle_beta                  87.865807
_cell_angle_gamma                 88.511123
_cell_volume                      1578.5800378

loop_
_atom_site_label
_atom_site_type_symbol
_atom_type_description
_atom_site_fract_x
_atom_site_fract_y
_atom_site_fract_z
_atom_type_partial_charge
C1    C     C_R   0.505383 0.260287 0.498704 0.853308
C2    C     C_R   0.903794 0.619478 0.493679 0.085809
C3    C     C_R   0.957806 0.274277 0.482483 -0.229745
C4    C     C_R   0.050986 0.273795 0.491240 -0.232483
C5    C     C_R   0.095612 0.387206 0.498169 0.135277
C6    C     C_R   0.046864 0.502761 0.495255 0.049119
C7    C     C_R   0.092116 0.617044 0.497368 0.090838
C8    C     C_R   0.044034 0.731156 0.496620 -0.275368
C9    C     C_R   0.949691 0.734446 0.495954 0.176026
C10   C     C_R   0.188542 0.387471 0.506816 -0.281557
C11   C     C_R   0.232037 0.500983 0.506189 -0.038987
C12   C     C_R   0.327372 0.500099 0.502124 0.886621
C13   C     C_R   0.185443 0.615054 0.499432 -0.283054
C14   C     C_R   0.499910 0.066561 0.618066 0.052437
C15   C     C_R   0.520132 0.127698 0.498594 -0.142262
C16   C     C_R   0.555182 0.057173 0.385500 0.147892
C17   C     C_R   0.551055 0.927407 0.390104 -0.250589
C18   C     C_R   0.512738 0.870268 0.503117 -0.142526
C19   C     C_R   0.494285 0.939975 0.619928 0.076497
C20   C     C_3   0.417351 0.944197 0.723136 -0.018042
C21   C     C_3   0.423921 0.086315 0.719619 -0.516948
C22   C     C_R   0.425088 0.536534 0.075419 0.108972
C23   C     C_R   0.500788 0.739441 0.500987 0.874495
C24   C     C_R   0.577113 0.469608 0.063564 0.045381
C25   C     C_R   0.573426 0.457844 0.921122 0.478326
C26   C     C_R   0.425605 0.538931 0.933759 0.014563
C27   C     C_3   0.334845 0.481567 0.931738 -0.558979
C28   C     C_3   0.334160 0.479904 0.084249 0.321425
C29   C     C_R   0.672630 0.499599 0.497597 0.864299
C30   C     C_R   0.809882 0.615642 0.497205 -0.272538
C31   C     C_R   0.767943 0.501104 0.491453 -0.018205
C32   C     C_R   0.815969 0.388283 0.479951 -0.276482
C33   C     C_R   0.908904 0.388128 0.483437 0.151147
C34   C     C_R   0.953238 0.503695 0.490353 0.012937
H1    H     H_    0.767976 0.700049 0.504346 0.144367
H2    H     H_    0.573601 0.871846 0.302744 0.166960
H3    H     H_    0.438649 0.906133 0.820758 0.169573
H4    H     H_    0.365521 0.137582 0.677189 0.191177
H5    H     H_    0.446280 0.126435 0.815745 0.184864
H6    H     H_    0.282343 0.546186 0.893233 0.179158
H7    H     H_    0.337543 0.387001 0.883298 0.225615
H8    H     H_    0.283189 0.544632 0.135454 0.065361
H9    H     H_    0.780801 0.300986 0.471421 0.113933
H10   H     H_    0.923804 0.185846 0.477269 0.149254
H11   H     H_    0.088133 0.185099 0.492125 0.142128
H12   H     H_    0.227395 0.300143 0.510001 0.127059
H13   H     H_    0.222079 0.701526 0.495359 0.136036
H14   H     H_    0.080305 0.818023 0.497596 0.144029
N1    N     N_R   0.499390 0.499140 0.142800 -0.109401
N2    N     N_R   0.499390 0.499180 0.857150 -0.142077
O1    O     O_R   0.500010 0.316790 0.614690 -0.612212
O2    O     O_R   0.500000 0.316760 0.385350 -0.594187
O3    O     O_R   0.367850 0.499990 0.614680 -0.626023
O4    O     O_R   0.367840 0.499950 0.385340 -0.590540
O5    O     O_R   0.500000 0.683240 0.614650 -0.616619
O6    O     O_R   0.499990 0.683210 0.385310 -0.635324
O7    O     O_R   0.632160 0.500050 0.614660 -0.540081
O8    O     O_R   0.632150 0.500010 0.385320 -0.638715
Zn1   Zn    Zn3+2 0.500010 0.500020 0.653130 0.968560
Zn2   Zn    Zn3+2 0.499990 0.499980 0.346870 0.953428
C35   C     C_3   0.325770 0.896946 0.676031 -0.356499
C36   C     C_3   0.294049 0.788259 0.761359 -0.912346
H15   H     H_    0.342327 0.707992 0.748171 0.301362
H16   H     H_    0.289018 0.816497 0.869062 0.251308
H17   H     H_    0.226367 0.759297 0.731114 0.252842
H18   H     H_    0.272703 0.972218 0.686519 0.207820
H19   H     H_    0.330038 0.867285 0.568766 0.194655
C37   C     C_3   0.670583 0.460987 0.118907 -0.312387
C38   C     C_3   0.705388 0.592041 0.148056 -0.799293
H20   H     H_    0.720353 0.640241 0.052114 0.234939
H21   H     H_    0.654874 0.650913 0.206767 0.271081
H22   H     H_    0.768656 0.584521 0.203835 0.245126
H23   H     H_    0.673433 0.393783 0.201096 0.204690
H24   H     H_    0.721372 0.418782 0.046437 0.204931
O9    O     O_3   0.645923 0.407871 0.845313 -0.583628
C39   C     C_3   0.644046 0.275778 0.850834 0.100655
H25   H     H_    0.575289 0.240347 0.835729 0.145227
H26   H     H_    0.667987 0.242650 0.948696 0.108675
C40   C     C_3   0.706650 0.218611 0.741165 -0.794822
H27   H     H_    0.775590 0.255669 0.748861 0.256319
H28   H     H_    0.710040 0.115228 0.751057 0.194943
H29   H     H_    0.680238 0.240968 0.641628 0.240638
O10   O     O_3   0.339037 0.357339 0.135270 -0.576151
C41   C     C_3   0.250966 0.311713 0.152705 0.124908
H30   H     H_    0.217083 0.306667 0.055071 0.135730
H31   H     H_    0.209505 0.372444 0.224009 0.152144
C42   C     C_3   0.256219 0.180659 0.209924 -0.863399
H32   H     H_    0.291977 0.182025 0.305800 0.253109
H33   H     H_    0.187057 0.145894 0.229059 0.210600
H34   H     H_    0.293176 0.116069 0.137610 0.251412
C43   C     C_3   0.901247 0.861450 0.498102 -0.410370
C44   C     C_3   0.867123 0.894472 0.360004 -0.886055
H35   H     H_    0.924876 0.899081 0.286180 0.263342
H36   H     H_    0.819291 0.824264 0.324358 0.259170
H37   H     H_    0.831703 0.987379 0.365606 0.240864
H38   H     H_    0.844777 0.864488 0.574447 0.198911
H39   H     H_    0.947523 0.936089 0.528700 0.196846
C45   C     C_3   0.591016 0.112725 0.256210 -0.409007
C46   C     C_3   0.516942 0.119979 0.153871 -0.788401
H40   H     H_    0.497189 0.024371 0.123480 0.232541
H41   H     H_    0.456491 0.171606 0.196348 0.314932
H42   H     H_    0.541352 0.169401 0.063575 0.211679
H43   H     H_    0.620325 0.205337 0.273617 0.201838
H44   H     H_    0.647971 0.053214 0.213415 0.185191

loop_
_geom_bond_atom_site_label_1
_geom_bond_atom_site_label_2
_ccdc_geom_bond_type
C42   H32   S    
O5    Zn1   S    
C19   C20   S    
C41   C42   S    
C9    C43   S    
O3    Zn1   S    
C7    C8    A    
O4    Zn2   S    
C26   C27   S    
N1    Zn2   S    
C30   H1    S    
O10   C41   S    
N2    Zn1   S    
C14   C21   S    
C41   H31   S    
C26   N2    A    
C30   C31   A    
O7    Zn1   S    
C3    C33   A    
C37   H24   S    
C45   H43   S    
C18   C19   A    
C20   C35   S    
C38   H21   S    
C27   H7    S    
C25   N2    A    
C36   H16   S    
O2    Zn2   S    
C43   H38   S    
C37   C38   S    
C41   H30   S    
C21   H4    S    
C31   C32   A    
C8    C9    A    
C10   H12   S    
C39   C40   S    
C1    C15   S    
C17   H2    S    
C12   O3    A    
C2    C34   A    
C22   C28   S    
C28   O10   S    
C35   C36   S    
C35   H18   S    
C17   C18   A    
C4    H11   S    
C3    H10   S    
C18   C23   S    
C23   O6    A    
C24   C25   A    
C43   C44   S    
C40   H28   S    
C16   C17   A    
C37   H23   S    
C44   H37   S    
C43   H39   S    
C6    C34   A    
C25   O9    S    
C38   H22   S    
O9    C39   S    
C8    H14   S    
C36   H15   S    
C35   H19   S    
C46   H40   S    
C21   H5    S    
C27   H6    S    
C20   C21   S    
C44   H36   S    
C33   C34   A    
C39   H25   S    
C1    O1    A    
C22   N1    A    
C46   H41   S    
C29   O7    A    
C42   H33   S    
O1    Zn1   S    
C3    C4    A    
C13   H13   S    
C24   N1    A    
C36   H17   S    
C14   C19   A    
C39   H26   S    
C4    C5    A    
C40   H29   S    
C11   C12   S    
C23   O5    A    
C6    C7    A    
C2    C30   A    
C32   C33   A    
C5    C10   A    
C29   C31   S    
C20   H3    S    
C11   C13   A    
C16   C45   S    
C5    C6    A    
C45   H44   S    
C28   H8    S    
C44   H35   S    
C32   H9    S    
C38   H20   S    
C1    O2    A    
C10   C11   A    
C24   C37   S    
C40   H27   S    
O6    Zn2   S    
C7    C13   A    
C46   H42   S    
C29   O8    A    
C45   C46   S    
C22   C26   A    
C42   H34   S    
C27   C28   S    
C14   C15   A    
C2    C9    A    
O8    Zn2   S    
C12   O4    A    
C15   C16   A    
