data_mof_unit_21032.cif
_audit_creation_date              2012-12-10T18:54:24-0500
_audit_creation_method            fapswitch 2.2
_symmetry_space_group_name_H-M    P1
_symmetry_Int_Tables_number       1
_space_group_crystal_system       triclinic
_cell_length_a                    10.630903
_cell_length_b                    9.838583
_cell_length_c                    23.421819
_cell_angle_alpha                 90.011354
_cell_angle_beta                  90.140345
_cell_angle_gamma                 88.809109
_cell_volume                      2449.22229759

loop_
_atom_site_label
_atom_site_type_symbol
_atom_type_description
_atom_site_fract_x
_atom_site_fract_y
_atom_site_fract_z
_atom_type_partial_charge
C1    C     C_R   0.260526 0.501635 0.499756 0.928372
C2    C     C_R   0.739531 0.498351 0.500183 0.924072
C3    C     C_R   0.480263 0.378185 0.237940 -0.098092
C4    C     C_R   0.510655 0.622153 0.762182 -0.084878
C5    C     C_R   0.482123 0.377870 0.297181 -0.188231
C6    C     C_R   0.512494 0.622249 0.702950 -0.144724
C7    C     C_R   0.497509 0.500081 0.327093 -0.011441
C8    C     C_R   0.497643 0.500163 0.672902 -0.033047
C9    C     C_R   0.510759 0.622447 0.297106 -0.190260
C10   C     C_R   0.480345 0.378266 0.702741 -0.239944
C11   C     C_R   0.509172 0.622327 0.237871 -0.100588
C12   C     C_R   0.478359 0.378580 0.761974 -0.094993
C13   C     C_R   0.494011 0.500284 0.208408 0.309925
C14   C     C_R   0.493750 0.500391 0.791584 0.308789
C15   C     C_R   0.065942 0.496068 0.552616 -0.087538
C16   C     C_R   0.934203 0.504054 0.447047 -0.083132
C17   C     C_R   0.935609 0.487767 0.552489 -0.092364
C18   C     C_R   0.064649 0.511753 0.447108 -0.088552
C19   C     C_R   0.872201 0.493423 0.499803 -0.178932
C20   C     C_R   0.127944 0.506582 0.499899 -0.180945
C21   C     C_R   0.573959 0.070336 0.537374 -0.046435
C22   C     C_R   0.426032 0.929665 0.462629 -0.047275
C23   C     C_R   0.426051 0.073587 0.462621 -0.050486
C24   C     C_R   0.573945 0.926415 0.537380 -0.051702
C25   C     C_R   0.499275 0.500012 0.389296 0.948669
C26   C     C_R   0.499781 0.500026 0.610702 0.931626
C27   C     C_R   0.604730 0.517067 0.880626 0.508422
C28   C     C_R   0.382634 0.483046 0.119427 0.509757
C29   C     C_R   0.382466 0.483164 0.880362 0.510680
C30   C     C_R   0.604873 0.517133 0.119609 0.511123
C31   C     C_R   0.380091 0.482568 0.939976 -0.018038
C32   C     C_R   0.607211 0.517549 0.060017 -0.018138
C33   C     C_R   0.493624 0.500038 0.970017 -0.019865
C34   C     C_R   0.493664 0.500032 0.029995 -0.020446
C35   C     C_R   0.607135 0.517519 0.940223 -0.018200
C36   C     C_R   0.380171 0.482521 0.059809 -0.017188
C37   C     C_R   0.267503 0.465307 0.970061 -0.150853
C38   C     C_R   0.719809 0.534731 0.029943 -0.151227
C39   C     C_R   0.267544 0.465273 0.029500 -0.151315
C40   C     C_R   0.719774 0.534703 0.970522 -0.150790
H1    H     H_    0.179169 0.451811 0.947830 0.196655
H2    H     H_    0.808149 0.548236 0.052169 0.196320
H3    H     H_    0.179243 0.451752 0.051556 0.196213
H4    H     H_    0.808089 0.548190 0.948472 0.196681
H5    H     H_    0.471231 0.282374 0.319446 0.167831
H6    H     H_    0.526128 0.717425 0.680803 0.163802
H7    H     H_    0.522881 0.717886 0.319302 0.170727
H8    H     H_    0.468254 0.282994 0.680415 0.176494
N1    N     N_R   0.493588 0.500227 0.852286 -0.362084
N2    N     N_R   0.493783 0.500171 0.147717 -0.360655
N3    N     N_R   0.500000 0.857200 0.500000 -0.089738
N4    N     N_R   0.500000 0.142800 0.500000 -0.088848
O1    O     O_R   0.316770 0.614620 0.500000 -0.566679
O2    O     O_R   0.683230 0.385380 0.500000 -0.560606
O3    O     O_R   0.683230 0.614620 0.500000 -0.635577
O4    O     O_R   0.316770 0.385380 0.500000 -0.634264
O5    O     O_R   0.499970 0.614690 0.416160 -0.618590
O6    O     O_R   0.500030 0.385310 0.583840 -0.621160
O7    O     O_R   0.500030 0.614690 0.583840 -0.613910
O8    O     O_R   0.499970 0.385310 0.416160 -0.618950
O9    O     O_2   0.712353 0.532478 0.851066 -0.527964
O10   O     O_2   0.275125 0.467411 0.149041 -0.537960
O11   O     O_2   0.274886 0.467687 0.850543 -0.532858
O12   O     O_2   0.712490 0.532731 0.149395 -0.535281
Zn1   Zn    Zn3+2 0.500000 0.653120 0.500000 1.011214
Zn2   Zn    Zn3+2 0.500000 0.346880 0.500000 1.009249
H9    H     H_    0.468734 0.283822 0.214883 0.147773
H10   H     H_    0.522494 0.716325 0.785341 0.144276
H11   H     H_    0.519753 0.716709 0.214760 0.147755
H12   H     H_    0.465517 0.284415 0.784966 0.149667
C41   C     C_2   0.137572 0.490399 0.607359 0.938521
O13   O     O_2   0.212968 0.578687 0.618614 -0.616713
O14   O     O_R   0.117643 0.384814 0.646025 -0.764552
H13   H     H_    0.171886 0.392174 0.681518 0.362745
C42   C     C_2   0.862457 0.510396 0.392359 0.946547
O15   O     O_2   0.785872 0.423212 0.381248 -0.617105
O16   O     O_R   0.883683 0.615342 0.353543 -0.767160
H14   H     H_    0.829235 0.608555 0.318090 0.360909
C43   C     C_2   0.865225 0.476395 0.607075 0.937493
O17   O     O_2   0.878618 0.561286 0.644632 -0.588973
O18   O     O_R   0.785528 0.367129 0.615584 -0.793097
H15   H     H_    0.746364 0.367805 0.654990 0.344830
C44   C     C_2   0.135139 0.519551 0.392308 0.929375
O19   O     O_2   0.211723 0.608894 0.385086 -0.628045
O20   O     O_R   0.112898 0.425137 0.349009 -0.769912
H16   H     H_    0.166667 0.440774 0.314013 0.362474
H17   H     H_    0.633086 0.123603 0.567239 0.165589
H18   H     H_    0.366891 0.876393 0.432771 0.162734
H19   H     H_    0.366935 0.129452 0.432742 0.140616
H20   H     H_    0.633059 0.870552 0.567260 0.142372

loop_
_geom_bond_atom_site_label_1
_geom_bond_atom_site_label_2
_ccdc_geom_bond_type
C38   C40   A    
C21   H17   S    
C30   O12   S    
C16   C42   S    
C8    C26   S    
O14   H13   S    
C29   O11   S    
O18   H15   S    
C29   N1    A    
O16   H14   S    
C1    O4    A    
C38   H2    S    
C2    O3    A    
C14   N1    S    
C17   C43   S    
C7    C9    A    
N3    Zn1   S    
C1    O1    A    
C27   O9    S    
C33   C35   A    
C28   N2    A    
C26   O6    A    
C23   H19   S    
C25   O8    A    
C32   C38   A    
O1    Zn1   S    
C26   O7    A    
C34   C36   A    
C3    C13   A    
C24   N3    A    
C30   N2    A    
O8    Zn2   S    
C37   H1    S    
C25   O5    A    
O3    Zn1   S    
O6    Zn2   S    
C33   C34   A    
C5    C7    A    
C15   C20   A    
C4    C6    A    
C2    O2    A    
C4    H10   S    
C6    C8    A    
C27   C35   A    
O20   H16   S    
C5    H5    S    
C31   C37   A    
C32   C34   A    
C42   O15   D    
C9    C11   A    
C44   O19   D    
C31   C33   A    
C18   C44   S    
C16   C18   A    
C42   O16   S    
C10   C12   A    
C8    C10   A    
C44   O20   S    
C12   C14   A    
C9    H7    S    
C22   H18   S    
C10   H8    S    
N4    Zn2   S    
C43   O18   S    
C15   C17   A    
C12   H12   S    
C1    C20   S    
C6    H6    S    
C2    C19   S    
C36   C39   A    
C3    H9    S    
O5    Zn1   S    
C3    C5    A    
C24   H20   S    
C39   H3    S    
C11   H11   S    
O2    Zn2   S    
C15   C41   S    
C7    C25   S    
C35   C40   A    
C41   O13   D    
C29   C31   A    
O7    Zn1   S    
C30   C32   A    
C11   C13   A    
C23   N4    A    
C16   C19   A    
O4    Zn2   S    
C13   N2    S    
C17   C19   A    
C18   C20   A    
C4    C14   A    
C43   O17   D    
C40   H4    S    
C28   C36   A    
C37   C39   A    
C21   C24   A    
C41   O14   S    
C22   C23   A    
C21   N4    A    
C27   N1    A    
C22   N3    A    
C28   O10   S    
