data_mof_unit_44048.cif
_audit_creation_date              2013-03-05T16:46:58-0500
_audit_creation_method            fapswitch 2.2
_symmetry_space_group_name_H-M    P1
_symmetry_Int_Tables_number       1
_space_group_crystal_system       triclinic
_cell_length_a                    15.003987
_cell_length_b                    8.945374
_cell_length_c                    8.114337
_cell_angle_alpha                 90.004056
_cell_angle_beta                  90.011215
_cell_angle_gamma                 90.00716
_cell_volume                      1089.07605581

loop_
_atom_site_label
_atom_site_type_symbol
_atom_site_description
_atom_site_fract_x
_atom_site_fract_y
_atom_site_fract_z
_atom_type_partial_charge
O1    O     O_R   0.500000 0.285350 0.636850 -0.612212
O2    O     O_R   0.500000 0.714650 0.363150 -0.612086
O3    O     O_R   0.500000 0.714650 0.636850 -0.624630
O4    O     O_R   0.500000 0.285350 0.363150 -0.624649
H1    H     H_    0.922228 0.126033 0.576611 0.152657
H2    H     H_    0.077795 0.874016 0.423711 0.152431
H3    H     H_    0.922234 0.873966 0.423604 0.152508
H4    H     H_    0.077791 0.126057 0.576458 0.152455
C1    C     C_R   0.499997 0.217994 0.500011 0.928977
C2    C     C_R   0.500004 0.782006 0.499990 0.929141
O5    O     O_R   0.367850 0.500000 0.636890 -0.626169
O6    O     O_R   0.632150 0.500000 0.363110 -0.626072
O7    O     O_R   0.632150 0.500000 0.636890 -0.626162
O8    O     O_R   0.367850 0.500000 0.363110 -0.626189
C3    C     C_R   0.327004 0.499980 0.499982 0.910862
C4    C     C_R   0.672995 0.500023 0.500018 0.910524
Zn1   Zn    Zn3+2 0.500000 0.500000 0.682780 0.970553
Zn2   Zn    Zn3+2 0.500000 0.500000 0.317220 0.970628
N1    N     N_1   0.500000 0.500000 0.073640 -0.039755
N2    N     N_1   0.500000 0.500000 0.926360 -0.039794
C5    C     C_R   0.812705 0.637526 0.485083 0.066993
C6    C     C_R   0.187292 0.362462 0.514731 0.066911
C7    C     C_R   0.812674 0.362499 0.515191 0.066726
C8    C     C_R   0.187319 0.637530 0.485083 0.066838
C9    C     C_R   0.768024 0.500011 0.500071 -0.126511
C10   C     C_R   0.231972 0.499993 0.499935 -0.126705
C11   C     C_R   0.906160 0.363643 0.522256 0.097807
C12   C     C_R   0.093840 0.636382 0.477888 0.097910
C13   C     C_R   0.906177 0.636370 0.477888 0.097928
C14   C     C_R   0.093825 0.363628 0.522044 0.097956
C15   C     C_R   0.952957 0.500003 0.500024 0.006359
C16   C     C_R   0.047042 0.500004 0.499982 0.006293
C17   C     C_R   0.954134 0.231674 0.551278 -0.217573
C18   C     C_R   0.045877 0.768360 0.448903 -0.217226
C19   C     C_R   0.954149 0.768341 0.448864 -0.217058
C20   C     C_R   0.045863 0.231671 0.551167 -0.217030
C21   C     C_1   0.500003 0.065164 0.500007 -0.201672
C22   C     C_1   0.500005 0.934836 0.499996 -0.201841
C23   C     C_3   0.759937 0.783914 0.481324 -0.418251
C24   C     C_3   0.740198 0.833721 0.304919 -0.843894
H5    H     H_    0.802769 0.856354 0.236550 0.251461
H6    H     H_    0.702055 0.746286 0.238370 0.283607
H7    H     H_    0.699538 0.937379 0.307085 0.244263
H8    H     H_    0.695962 0.774051 0.548812 0.202006
H9    H     H_    0.795418 0.872822 0.549988 0.200507
C25   C     C_3   0.240061 0.216068 0.518242 -0.418268
C26   C     C_3   0.259983 0.166209 0.694567 -0.843967
H10   H     H_    0.298181 0.253632 0.761045 0.283647
H11   H     H_    0.197475 0.143523 0.763135 0.251422
H12   H     H_    0.300667 0.062575 0.692214 0.244302
H13   H     H_    0.204511 0.127163 0.449681 0.200749
H14   H     H_    0.303963 0.225973 0.450512 0.202079
C27   C     C_3   0.759860 0.216131 0.519643 -0.417617
C28   C     C_3   0.740566 0.166721 0.696386 -0.843165
H15   H     H_    0.803394 0.146607 0.765163 0.251819
H16   H     H_    0.701379 0.253404 0.762102 0.283487
H17   H     H_    0.701067 0.061689 0.694956 0.243888
H18   H     H_    0.695695 0.225800 0.452635 0.201794
H19   H     H_    0.795189 0.127092 0.450911 0.200584
C29   C     C_3   0.240131 0.783902 0.481208 -0.417960
C30   C     C_3   0.259798 0.833587 0.304717 -0.843488
H20   H     H_    0.298106 0.746239 0.238342 0.283542
H21   H     H_    0.197159 0.855788 0.236244 0.251451
H22   H     H_    0.300295 0.937487 0.306728 0.244205
H23   H     H_    0.204699 0.872877 0.549828 0.200732
H24   H     H_    0.304149 0.774063 0.548659 0.201944

loop_
_geom_bond_atom_site_label_1
_geom_bond_atom_site_label_2
_geom_bond_distance
_ccdc_geom_bond_type
C30   H22   1.110466 S    
C27   H18   1.108953 S    
C7    C27   1.530789 S    
C23   H8    1.108699 S    
C14   C20   1.402475 A    
O2    Zn2   1.955933 S    
O8    Zn2   2.017511 S    
O1    Zn1   1.955934 S    
N1    N2    1.195079 T    
C5    C23   1.530618 S    
O7    Zn1   2.017509 S    
C2    C22   1.367123 S    
O4    Zn2   1.955985 S    
Zn1   N2    1.976490 S    
C1    C21   1.367123 S    
C27   H19   1.107514 S    
C29   H24   1.108935 S    
C13   C15   1.418853 A    
O3    C2    1.263486 A    
C15   C16   1.411653 A    
C27   C28   1.528445 S    
C11   C17   1.402626 A    
C25   H14   1.108769 S    
C14   C16   1.418864 A    
H3    C19   1.078969 S    
C21   C22   1.165836 T    
O5    C3    1.268644 A    
C25   H13   1.107339 S    
C24   H6    1.109311 S    
C24   H5    1.109186 S    
C6    C25   1.530634 S    
C8    C10   1.406159 A    
C29   H23   1.107387 S    
O3    Zn1   1.955985 S    
C26   H12   1.110191 S    
C7    C11   1.403863 A    
C7    C9    1.406122 A    
H4    C20   1.079019 S    
C30   H20   1.109567 S    
C28   H16   1.109732 S    
H2    C18   1.079052 S    
C23   C24   1.528111 S    
C11   C15   1.418912 A    
C28   H15   1.110096 S    
O2    C2    1.263270 A    
C26   H10   1.109382 S    
O6    C4    1.268639 A    
C12   C16   1.418914 A    
C17   C20   1.376298 A    
O1    C1    1.263261 A    
C26   H11   1.109292 S    
C18   C19   1.376293 A    
C6    C10   1.406139 A    
O7    C4    1.268597 A    
O6    Zn2   2.017366 S    
C4    C9    1.425809 S    
C30   H21   1.109648 S    
C13   C19   1.402524 A    
C25   C26   1.528170 S    
Zn2   N1    1.976490 S    
C3    C10   1.425851 S    
C5    C9    1.406156 A    
C8    C29   1.530692 S    
C6    C14   1.403690 A    
C12   C18   1.402555 A    
O4    C1    1.263494 A    
O8    C3    1.268604 A    
C5    C13   1.403717 A    
C23   H9    1.107284 S    
C24   H7    1.110154 S    
O5    Zn1   2.017368 S    
C8    C12   1.403797 A    
C29   C30   1.528319 S    
C28   H17   1.110846 S    
H1    C17   1.079074 S    
