data_mof_unit_5594.cif
_audit_creation_date              2012-12-11T16:36:13-0500
_audit_creation_method            fapswitch 2.2
_symmetry_space_group_name_H-M    P1
_symmetry_Int_Tables_number       1
_space_group_crystal_system       triclinic
_cell_length_a                    25.782746
_cell_length_b                    7.259527
_cell_length_c                    23.341087
_cell_angle_alpha                 89.984503
_cell_angle_beta                  104.468776
_cell_angle_gamma                 90.013044
_cell_volume                      4230.20370299

loop_
_atom_site_label
_atom_site_type_symbol
_atom_type_description
_atom_site_fract_x
_atom_site_fract_y
_atom_site_fract_z
_atom_type_partial_charge
O1    O     O_R   0.438720 0.630760 0.439780 -0.503228
O2    O     O_R   0.061280 0.869240 0.060220 -0.542276
O3    O     O_R   0.561280 0.130760 0.560220 -0.530621
O4    O     O_R   0.938720 0.369240 0.939780 -0.532294
O5    O     O_R   0.546380 0.956770 0.446270 -0.512830
O6    O     O_R   0.953620 0.543230 0.053730 -0.508917
O7    O     O_R   0.453620 0.456770 0.553730 -0.502052
O8    O     O_R   0.046380 0.043230 0.946270 -0.506972
C1    C     C_R   0.561795 0.792299 0.433394 0.724961
C2    C     C_R   0.938162 0.707720 0.066559 0.726317
C3    C     C_R   0.438244 0.292234 0.566644 0.747532
C4    C     C_R   0.061801 0.207775 0.933401 0.745376
O9    O     O_R   0.438210 0.960230 0.432810 -0.541093
O10   O     O_R   0.061790 0.539770 0.067190 -0.503441
O11   O     O_R   0.561790 0.460230 0.567190 -0.533666
O12   O     O_R   0.938210 0.039770 0.932810 -0.529270
O13   O     O_R   0.452340 0.134240 0.546660 -0.549535
O14   O     O_R   0.047660 0.365760 0.953340 -0.544845
O15   O     O_R   0.547660 0.634240 0.453340 -0.552358
O16   O     O_R   0.952340 0.865760 0.046660 -0.556571
C5    C     C_R   0.419229 0.791689 0.416215 0.739915
C6    C     C_R   0.080821 0.708174 0.083773 0.736444
C7    C     C_R   0.580984 0.291889 0.583232 0.661967
C8    C     C_R   0.918916 0.208042 0.916880 0.666206
O17   O     O_3   0.504760 0.798440 0.537370 -0.371210
O18   O     O_3   0.995240 0.701560 0.962630 -0.369968
O19   O     O_3   0.495240 0.298440 0.462630 -0.367373
O20   O     O_3   0.004760 0.201560 0.037370 -0.368158
V1    V     V_3+5 0.499120 0.071860 0.493070 1.523087
V2    V     V_3+5 0.000880 0.428140 0.006930 1.551889
V3    V     V_3+5 0.500880 0.571860 0.506930 1.552589
V4    V     V_3+5 0.999120 0.928140 0.993070 1.521375
C9    C     C_R   0.722551 0.182295 0.672224 -0.159326
C10   C     C_R   0.819749 0.334176 0.771923 -0.156031
C11   C     C_R   0.282516 0.649072 0.321975 -0.222666
C12   C     C_R   0.183337 0.868844 0.222628 -0.224833
H1    H     H_    0.757651 0.111389 0.665756 0.174849
H2    H     H_    0.818848 0.418051 0.733253 0.174703
H3    H     H_    0.250949 0.552682 0.324163 0.144070
H4    H     H_    0.187283 0.974759 0.256167 0.172520
C13   C     C_R   0.677076 0.194143 0.624845 0.333380
C14   C     C_R   0.867477 0.322332 0.816336 0.342264
C15   C     C_R   0.329121 0.657077 0.368692 0.335395
C16   C     C_R   0.135483 0.855233 0.178543 0.307293
C17   C     C_R   0.630121 0.282627 0.632769 -0.301422
C18   C     C_R   0.869164 0.216697 0.868106 -0.299728
C19   C     C_R   0.370555 0.781442 0.365754 -0.257569
C20   C     C_R   0.129760 0.717491 0.134009 -0.204609
C21   C     C_R   0.631062 0.362112 0.688852 0.335874
C22   C     C_R   0.822167 0.120480 0.872750 0.334881
C23   C     C_R   0.364384 0.896347 0.314992 0.302519
C24   C     C_R   0.171911 0.589541 0.137090 0.224254
C25   C     C_R   0.678060 0.355754 0.735186 0.408958
C26   C     C_R   0.775286 0.127369 0.826317 0.405960
C27   C     C_R   0.316732 0.891579 0.269541 0.411706
C28   C     C_R   0.220711 0.607961 0.181835 0.314646
C29   C     C_R   0.723934 0.261057 0.727293 -0.161878
C30   C     C_R   0.773558 0.239117 0.775987 -0.161808
C31   C     C_R   0.275649 0.764931 0.272764 -0.043369
C32   C     C_R   0.225638 0.746541 0.224872 -0.047891
C33   C     C_R   0.370645 0.126789 0.608538 -0.232509
C34   C     C_R   0.129413 0.373557 0.891614 -0.221085
C35   C     C_R   0.629319 0.626769 0.391449 -0.225495
C36   C     C_R   0.870555 0.873492 0.108307 -0.217441
H5    H     H_    0.374146 0.008166 0.581630 0.160351
H6    H     H_    0.125787 0.492208 0.918458 0.166077
H7    H     H_    0.625693 0.507947 0.418245 0.155599
H8    H     H_    0.874258 0.992252 0.081520 0.156070
C37   C     C_R   0.333773 0.119826 0.643282 -0.218234
C38   C     C_R   0.166339 0.380758 0.856938 -0.219941
C39   C     C_R   0.666189 0.619774 0.356705 -0.215362
C40   C     C_R   0.833627 0.880712 0.142979 -0.209776
H9    H     H_    0.310312 0.995756 0.642841 0.160363
H10   H     H_    0.189709 0.505031 0.857352 0.161784
H11   H     H_    0.689515 0.495483 0.357023 0.161234
H12   H     H_    0.810340 0.005113 0.142622 0.163331
C41   C     C_R   0.327559 0.269376 0.678967 0.026655
C42   C     C_R   0.172707 0.231191 0.821333 0.025964
C43   C     C_R   0.672555 0.769563 0.321155 0.026378
C44   C     C_R   0.827174 0.731027 0.178527 0.023544
C45   C     C_R   0.359066 0.428496 0.679740 0.276959
C46   C     C_R   0.141347 0.071746 0.820619 0.276691
C47   C     C_R   0.641246 0.929021 0.320564 0.279116
C48   C     C_R   0.858410 0.571378 0.179144 0.278232
C49   C     C_R   0.394890 0.439564 0.642189 0.277711
C50   C     C_R   0.105489 0.060423 0.858125 0.269110
C51   C     C_R   0.605434 0.940097 0.358124 0.270113
C52   C     C_R   0.894270 0.560062 0.141646 0.267647
C53   C     C_R   0.401364 0.285765 0.606961 -0.104885
C54   C     C_R   0.098793 0.214332 0.893204 -0.110156
C55   C     C_R   0.598747 0.785979 0.393154 -0.098292
C56   C     C_R   0.901101 0.714158 0.106678 -0.103821
C57   C     C_R   0.303371 0.296074 0.776664 -0.066217
C58   C     C_R   0.196884 0.204803 0.723640 -0.071258
C59   C     C_R   0.696657 0.796717 0.223424 -0.067424
C60   C     C_R   0.803079 0.704215 0.276258 -0.072625
H13   H     H_    0.344589 0.329588 0.798064 0.144527
H14   H     H_    0.155670 0.171205 0.702249 0.138077
H15   H     H_    0.655462 0.830740 0.202101 0.144231
H16   H     H_    0.844273 0.670151 0.297579 0.137599
C61   C     C_R   0.265751 0.289613 0.810702 -0.171941
C62   C     C_R   0.234500 0.211290 0.689601 -0.176439
C63   C     C_R   0.734221 0.790170 0.189321 -0.166440
C64   C     C_R   0.765518 0.710764 0.310360 -0.172429
H17   H     H_    0.278624 0.318260 0.857663 0.129669
H18   H     H_    0.221624 0.182617 0.642643 0.123400
H19   H     H_    0.721329 0.819240 0.142385 0.135726
H20   H     H_    0.778411 0.681666 0.357294 0.126964
C65   C     C_R   0.212193 0.242933 0.784616 0.138465
C66   C     C_R   0.288064 0.257919 0.715687 0.137959
C67   C     C_R   0.787746 0.742869 0.215310 0.136631
C68   C     C_R   0.711989 0.758007 0.284370 0.136629
O21   O     O_3   0.680940 0.118626 0.571706 -0.632707
H21   H     H_    0.651706 0.165554 0.539086 0.288417
O22   O     O_3   0.911314 0.415065 0.806595 -0.623666
H22   H     H_    0.944509 0.368685 0.833796 0.291578
O23   O     O_3   0.334460 0.547053 0.418185 -0.631699
H23   H     H_    0.302182 0.468466 0.413307 0.286735
O24   O     O_3   0.095026 0.976136 0.181879 -0.621046
H24   H     H_    0.060073 0.919512 0.162766 0.290031
O25   O     O_3   0.586868 0.446591 0.700910 -0.589320
H25   H     H_    0.553964 0.409421 0.671297 0.295298
O26   O     O_3   0.819753 0.018581 0.922122 -0.600365
H26   H     H_    0.848848 0.056277 0.956374 0.280917
O27   O     O_3   0.404448 0.012754 0.307133 -0.585453
H27   H     H_    0.439581 0.963079 0.328937 0.297984
O28   O     O_3   0.164676 0.450096 0.095589 -0.636895
H28   H     H_    0.184828 0.340229 0.114130 0.300297
O29   O     O_3   0.676773 0.441613 0.787712 -0.585205
H29   H     H_    0.713209 0.446557 0.814298 0.314774
O30   O     O_3   0.731875 0.024874 0.832812 -0.587683
H30   H     H_    0.703772 0.023071 0.795216 0.314109
O31   O     O_3   0.313143 0.009255 0.222059 -0.590470
H31   H     H_    0.278320 0.993512 0.192897 0.297596
O32   O     O_3   0.264676 0.497076 0.183820 -0.616811
H32   H     H_    0.263518 0.453458 0.143350 0.309173
O33   O     O_3   0.353393 0.571660 0.716681 -0.652203
H33   H     H_    0.387999 0.637552 0.729364 0.303531
O34   O     O_3   0.147193 0.928532 0.783772 -0.652940
H34   H     H_    0.112656 0.862218 0.771098 0.297616
O35   O     O_3   0.647093 0.072480 0.283780 -0.651743
H35   H     H_    0.612571 0.138890 0.271180 0.301878
O36   O     O_3   0.852449 0.427973 0.215897 -0.652239
H36   H     H_    0.886934 0.361365 0.228536 0.295744
O37   O     O_3   0.423547 0.598506 0.639168 -0.632611
H37   H     H_    0.401906 0.705959 0.645312 0.292101
O38   O     O_3   0.077030 0.901105 0.861260 -0.635342
H38   H     H_    0.098796 0.793920 0.855179 0.290508
O39   O     O_3   0.576999 0.099358 0.361343 -0.636432
H39   H     H_    0.598789 0.206599 0.355329 0.290748
O40   O     O_3   0.922601 0.400570 0.138414 -0.637822
H40   H     H_    0.900741 0.293499 0.144410 0.289462

loop_
_geom_bond_atom_site_label_1
_geom_bond_atom_site_label_2
_ccdc_geom_bond_type
O17   V3    S    
C6    C20   S    
O1    C5    A    
C7    C17   S    
C27   C31   A    
O19   V1    S    
O13   V1    S    
C37   C41   A    
O38   H38   S    
C10   C14   A    
C44   C48   A    
O15   V3    S    
C50   O38   S    
C1    C55   S    
C39   C43   A    
O37   H37   S    
O39   H39   S    
O26   H26   S    
O18   V4    S    
C26   O30   S    
O5    C1    A    
C22   C26   A    
C43   C68   S    
C36   H8    S    
C4    C54   S    
C49   O37   S    
O29   H29   S    
C51   C55   A    
C59   C68   A    
O16   V4    S    
C11   H3    S    
O4    C8    A    
C59   H15   S    
C38   C42   A    
C58   H14   S    
C61   C65   A    
O22   H22   S    
C60   H16   S    
O1    V3    S    
C34   C38   A    
O2    V4    S    
C14   C18   A    
O3    V1    S    
C42   C46   A    
O3    C7    A    
C1    O15   A    
C52   C56   A    
C59   C63   A    
C43   C47   A    
O2    C6    A    
C9    C29   A    
O40   H40   S    
C37   H9    S    
O14   V2    S    
C17   C21   A    
C11   C15   A    
C40   H12   S    
C57   C66   A    
O32   H32   S    
C2    C56   S    
C31   C32   S    
O12   C8    A    
O10   V2    S    
C24   O28   S    
C33   C53   A    
O5    V1    S    
C61   H17   S    
C60   C67   A    
C35   H7    S    
O7    V3    S    
C34   H6    S    
O8    V4    S    
C12   H4    S    
C50   C54   A    
C57   C61   A    
C64   C68   A    
C25   C29   A    
C19   C23   A    
C48   O36   S    
C46   C50   A    
C9    H1    S    
C28   C32   A    
C23   O27   S    
O7    C3    A    
C38   H10   S    
C46   O34   S    
C3    C53   S    
C41   C45   A    
O8    C4    A    
C21   O25   S    
O9    C5    A    
C10   C30   A    
O25   H25   S    
C15   O23   S    
O6    V2    S    
C35   C39   A    
C60   C64   A    
O31   H31   S    
C52   O40   S    
C12   C16   A    
C25   O29   S    
C36   C56   A    
C35   C55   A    
O28   H28   S    
C57   H13   S    
C64   H20   S    
C28   O32   S    
O34   H34   S    
C47   O35   S    
O21   H21   S    
C26   C30   A    
O9    V1    S    
C3    O13   A    
C49   C53   A    
C10   H2    S    
C22   O26   S    
C48   C52   A    
C13   O21   S    
C12   C32   A    
O30   H30   S    
C47   C51   A    
O6    C2    A    
O24   H24   S    
O11   V3    S    
C63   C67   A    
O12   V4    S    
O33   H33   S    
C18   C22   A    
C58   C65   A    
C16   O24   S    
C33   C37   A    
O10   C6    A    
O20   V2    S    
O36   H36   S    
C9    C13   A    
C40   C44   A    
C16   C20   A    
C27   O31   S    
O23   H23   S    
C39   H11   S    
C29   C30   S    
O27   H27   S    
C2    O16   A    
C21   C25   A    
C34   C54   A    
C44   C67   S    
O11   C7    A    
C62   H18   S    
C42   C65   S    
C23   C27   A    
C36   C40   A    
C41   C66   S    
O4    V2    S    
C62   C66   A    
C11   C31   A    
C33   H5    S    
C14   O22   S    
C20   C24   A    
C58   C62   A    
C51   O39   S    
C4    O14   A    
C45   O33   S    
C13   C17   A    
C63   H19   S    
O35   H35   S    
C15   C19   A    
C45   C49   A    
C24   C28   A    
C8    C18   S    
C5    C19   S    
