data_mof_unit_54820.cif
_audit_creation_date              2012-12-10T18:27:19-0500
_audit_creation_method            fapswitch 2.2
_symmetry_space_group_name_H-M    P1
_symmetry_Int_Tables_number       1
_space_group_crystal_system       triclinic
_cell_length_a                    15.003681
_cell_length_b                    13.971372
_cell_length_c                    27.703021
_cell_angle_alpha                 90.062894
_cell_angle_beta                  89.859831
_cell_angle_gamma                 90.255089
_cell_volume                      5807.08454621

loop_
_atom_site_label
_atom_site_type_symbol
_atom_type_description
_atom_site_fract_x
_atom_site_fract_y
_atom_site_fract_z
_atom_type_partial_charge
C1    C     C_R   0.326381 0.499766 0.499688 0.885877
C2    C     C_R   0.673539 0.500150 0.499655 0.891143
C3    C     C_R   0.492900 0.515761 0.101103 -0.137527
C4    C     C_R   0.503002 0.514757 0.898746 -0.136829
C5    C     C_R   0.414490 0.487074 0.125582 -0.211370
C6    C     C_R   0.585071 0.503242 0.874324 -0.212154
C7    C     C_R   0.339801 0.456005 0.098731 0.416869
C8    C     C_R   0.663817 0.489361 0.901251 0.415107
C9    C     C_R   0.568818 0.544023 0.127236 -0.050879
C10   C     C_R   0.423525 0.525453 0.872558 -0.050903
C11   C     C_R   0.494471 0.500759 0.352910 -0.277151
C12   C     C_R   0.503788 0.501220 0.646948 -0.286487
C13   C     C_R   0.417197 0.515950 0.973763 0.029196
C14   C     C_R   0.576992 0.533894 0.026053 0.028934
C15   C     C_R   0.580450 0.515043 0.975896 -0.090311
C16   C     C_R   0.417088 0.497734 0.023982 -0.090797
C17   C     C_R   0.500232 0.516045 0.949444 -0.077578
C18   C     C_R   0.495501 0.516594 0.050401 -0.077592
C19   C     C_R   0.338013 0.534297 0.947545 0.563679
C20   C     C_R   0.651292 0.569481 0.052188 0.564858
C21   C     C_R   0.342737 0.539302 0.896879 -0.307120
C22   C     C_R   0.645594 0.574561 0.102834 -0.309246
C23   C     C_R   0.498815 0.499893 0.405806 0.962333
C24   C     C_R   0.500845 0.500059 0.594134 0.969198
C25   C     C_R   0.344141 0.454770 0.048087 0.424984
C26   C     C_R   0.659691 0.488149 0.951910 0.425555
C27   C     C_R   0.815320 0.587266 0.496044 -0.216189
C28   C     C_R   0.184521 0.412040 0.497520 -0.218445
C29   C     C_R   0.769269 0.500281 0.497911 -0.089705
C30   C     C_R   0.230503 0.499267 0.498005 -0.090868
C31   C     C_R   0.814465 0.413203 0.497446 -0.227203
C32   C     C_R   0.185126 0.586154 0.496280 -0.206016
C33   C     C_R   0.906477 0.412314 0.495924 0.078062
C34   C     C_R   0.093144 0.586716 0.494613 0.068280
C35   C     C_R   0.953502 0.499793 0.494557 -0.004077
C36   C     C_R   0.046185 0.498974 0.494629 -0.010000
C37   C     C_R   0.907680 0.588098 0.494279 0.010975
C38   C     C_R   0.092017 0.410658 0.495739 0.022110
C39   C     C_R   0.951588 0.325097 0.496431 -0.331405
C40   C     C_R   0.047786 0.673888 0.493549 -0.307678
C41   C     C_R   0.044984 0.323050 0.495174 0.536942
C42   C     C_R   0.954976 0.675258 0.492602 0.517478
C43   C     C_R   0.560768 0.797996 0.472477 0.003938
C44   C     C_R   0.439602 0.202018 0.527706 -0.007476
C45   C     C_R   0.440183 0.797565 0.528074 -0.007389
C46   C     C_R   0.561300 0.202525 0.472836 -0.006359
C47   C     C_R   0.414793 0.487606 0.176316 0.630802
C48   C     C_R   0.584797 0.503178 0.823579 0.632286
C49   C     C_R   0.439140 0.898430 0.529264 -0.118996
C50   C     C_R   0.563966 0.101689 0.472625 -0.121261
C51   C     C_R   0.562937 0.898912 0.471925 -0.115589
C52   C     C_R   0.438130 0.101153 0.528629 -0.116841
C53   C     C_R   0.501004 0.949413 0.500572 -0.061635
C54   C     C_R   0.501012 0.050688 0.500590 -0.064915
C55   C     C_R   0.378273 0.949037 0.558541 0.402711
C56   C     C_R   0.628139 0.051102 0.445473 0.423410
C57   C     C_R   0.625298 0.950036 0.443568 0.408362
C58   C     C_R   0.375462 0.050025 0.556755 0.401328
C59   C     C_R   0.565690 0.542946 0.177566 0.595851
C60   C     C_R   0.426868 0.524269 0.822242 0.595456
C61   C     C_R   0.490239 0.420383 0.275144 0.331389
C62   C     C_R   0.523124 0.421795 0.724115 0.352796
C63   C     C_R   0.487290 0.415284 0.325748 0.360161
C64   C     C_R   0.524930 0.418248 0.673634 0.344673
C65   C     C_R   0.495664 0.589612 0.329218 -0.401335
C66   C     C_R   0.487121 0.587726 0.671048 -0.388297
C67   C     C_R   0.490480 0.594596 0.279216 0.549814
C68   C     C_R   0.491175 0.592693 0.721125 0.553250
C69   C     C_R   0.489768 0.509935 0.252225 0.031651
C70   C     C_R   0.507404 0.509292 0.747604 0.023086
H1    H     H_    0.500189 0.655989 0.349345 0.206434
H2    H     H_    0.470790 0.652036 0.651169 0.202998
H3    H     H_    0.778151 0.345907 0.498448 0.159429
H4    H     H_    0.221260 0.653590 0.496445 0.164593
H5    H     H_    0.913926 0.258951 0.498770 0.149390
H6    H     H_    0.084181 0.741112 0.493917 0.168081
H7    H     H_    0.607439 0.756985 0.451069 0.169828
H8    H     H_    0.392806 0.243027 0.549024 0.184985
H9    H     H_    0.393530 0.756242 0.549512 0.171773
H10   H     H_    0.608071 0.243901 0.451506 0.188673
H11   H     H_    0.283654 0.555650 0.876265 0.195371
H12   H     H_    0.700553 0.603771 0.123361 0.193931
H13   H     H_    0.779102 0.654215 0.496062 0.207624
H14   H     H_    0.221032 0.345350 0.498775 0.196628
N1    N     N_R   0.489777 0.514526 0.200781 -0.318290
N2    N     N_R   0.506485 0.512962 0.799069 -0.320574
N3    N     N_R   0.500000 0.750030 0.500000 -0.126421
N4    N     N_R   0.500000 0.249970 0.500000 -0.147544
O1    O     O_R   0.367850 0.580280 0.500010 -0.630816
O2    O     O_R   0.632150 0.419720 0.499990 -0.641168
O3    O     O_R   0.632150 0.580280 0.499990 -0.631201
O4    O     O_R   0.367850 0.419720 0.500010 -0.647634
O5    O     O_R   0.500010 0.580260 0.428760 -0.636367
O6    O     O_R   0.499990 0.419740 0.571240 -0.579533
O7    O     O_R   0.499990 0.580260 0.571240 -0.632591
O8    O     O_R   0.500010 0.419740 0.428760 -0.582984
O9    O     O_2   0.341302 0.461713 0.201339 -0.518459
O10   O     O_2   0.661578 0.493771 0.798606 -0.511153
O11   O     O_2   0.351082 0.533003 0.796453 -0.559915
O12   O     O_2   0.638293 0.568585 0.203313 -0.566827
Zn1   Zn    Zn3+2 0.500000 0.607200 0.500000 0.939691
Zn2   Zn    Zn3+2 0.500000 0.392800 0.500000 0.947844
O13   O     O_3   0.091848 0.237545 0.497864 -0.641102
C71   C     C_3   0.059286 0.169686 0.464353 -0.393205
H15   H     H_    0.042725 0.202423 0.428831 0.174031
H16   H     H_    0.000829 0.130813 0.479429 0.182377
H17   H     H_    0.112134 0.115928 0.457741 0.194238
O14   O     O_3   0.910810 0.761907 0.494045 -0.610202
C72   C     C_3   0.906767 0.798830 0.446771 -0.297062
H18   H     H_    0.870267 0.749272 0.422190 0.171761
H19   H     H_    0.974516 0.814500 0.432274 0.149847
H20   H     H_    0.869574 0.867239 0.447726 0.223149
O15   O     O_3   0.317641 0.900070 0.587071 -0.608770
C73   C     C_3   0.354501 0.889830 0.633553 -0.242839
H21   H     H_    0.365565 0.960642 0.651039 0.190104
H22   H     H_    0.417840 0.848611 0.632478 0.135731
H23   H     H_    0.306706 0.849161 0.656334 0.204138
O16   O     O_3   0.691338 0.100055 0.418597 -0.593872
C74   C     C_3   0.768143 0.112313 0.447254 -0.308210
H24   H     H_    0.797959 0.042228 0.457112 0.185806
H25   H     H_    0.753500 0.154697 0.480372 0.137173
H26   H     H_    0.818611 0.152707 0.426080 0.187207
O17   O     O_3   0.687655 0.901480 0.416182 -0.621625
C75   C     C_3   0.654369 0.891810 0.368870 -0.274349
H27   H     H_    0.645314 0.962813 0.351425 0.196759
H28   H     H_    0.590648 0.850637 0.368353 0.147489
H29   H     H_    0.703562 0.851348 0.347054 0.196097
O18   O     O_3   0.314013 0.098474 0.584770 -0.612672
C76   C     C_3   0.235269 0.108977 0.557669 -0.209700
H30   H     H_    0.186679 0.150447 0.579396 0.217199
H31   H     H_    0.204386 0.038287 0.549399 0.185345
H32   H     H_    0.247781 0.149444 0.523695 0.162047
O19   O     O_3   0.492639 0.682383 0.256344 -0.572099
C77   C     C_3   0.405336 0.719116 0.255462 -0.323940
H33   H     H_    0.379942 0.732835 0.292608 0.157592
H34   H     H_    0.359169 0.670425 0.235657 0.173881
H35   H     H_    0.406426 0.788508 0.236051 0.196255
O20   O     O_3   0.473075 0.677697 0.744649 -0.571882
C78   C     C_3   0.550622 0.734969 0.743837 -0.321601
H36   H     H_    0.568867 0.755818 0.706318 0.158459
H37   H     H_    0.607458 0.698280 0.761683 0.175176
H38   H     H_    0.537253 0.801683 0.764301 0.196741
O21   O     O_3   0.265476 0.418109 0.121531 -0.558318
C79   C     C_3   0.196518 0.486364 0.119984 -0.187250
H39   H     H_    0.173595 0.499012 0.082385 0.173810
H40   H     H_    0.217325 0.555145 0.137031 0.147477
H41   H     H_    0.138821 0.458304 0.140787 0.177954
O22   O     O_3   0.743476 0.467729 0.878533 -0.559024
C80   C     C_3   0.799123 0.549354 0.879988 -0.179796
H42   H     H_    0.819399 0.566980 0.917562 0.172823
H43   H     H_    0.766606 0.612263 0.862881 0.149201
H44   H     H_    0.860669 0.533876 0.859193 0.180079
O23   O     O_3   0.543216 0.332510 0.650730 -0.612056
C81   C     C_3   0.636320 0.325432 0.643917 0.147935
H45   H     H_    0.669559 0.312060 0.679155 0.179168
H46   H     H_    0.664619 0.391901 0.627444 0.115136
C82   C     C_3   0.655608 0.241941 0.609815 -0.319081
H47   H     H_    0.626713 0.174948 0.624937 0.228911
H48   H     H_    0.623863 0.255889 0.574369 0.244028
C83   C     C_3   0.755554 0.228698 0.602171 -0.979087
H49   H     H_    0.785920 0.295062 0.587299 0.270496
H50   H     H_    0.767068 0.169317 0.576251 0.261741
H51   H     H_    0.788393 0.210818 0.636881 0.278468
O24   O     O_3   0.485677 0.326848 0.348430 -0.616253
C84   C     C_3   0.400860 0.282833 0.343182 0.137504
H52   H     H_    0.411759 0.204732 0.338660 0.163090
H53   H     H_    0.362991 0.306851 0.310785 0.167158
C85   C     C_3   0.344347 0.298878 0.388554 -0.340556
H54   H     H_    0.380799 0.272178 0.420651 0.254020
H55   H     H_    0.331871 0.376671 0.393291 0.216464
C86   C     C_3   0.255044 0.246774 0.385230 -0.992622
H56   H     H_    0.216641 0.272791 0.353669 0.274777
H57   H     H_    0.215742 0.260696 0.418418 0.289210
H58   H     H_    0.265488 0.168395 0.381841 0.263542
O25   O     O_3   0.542528 0.340986 0.750758 -0.611498
C87   C     C_3   0.462282 0.292321 0.761624 0.105190
H59   H     H_    0.438475 0.253183 0.729052 0.177716
H60   H     H_    0.408968 0.342080 0.774068 0.147485
C88   C     C_3   0.479903 0.220649 0.802065 -0.332976
H61   H     H_    0.530420 0.167913 0.789813 0.234295
H62   H     H_    0.506771 0.259267 0.834044 0.228646
C89   C     C_3   0.394938 0.167632 0.816725 -0.956831
H63   H     H_    0.344711 0.218863 0.830776 0.270405
H64   H     H_    0.410414 0.115198 0.845567 0.267725
H65   H     H_    0.366714 0.128455 0.785331 0.273016
O26   O     O_3   0.488619 0.337672 0.247715 -0.622541
C90   C     C_3   0.577078 0.309272 0.238027 0.096086
H66   H     H_    0.605943 0.275159 0.270714 0.175494
H67   H     H_    0.620244 0.370810 0.227086 0.151200
C91   C     C_3   0.576203 0.236916 0.196640 -0.329102
H68   H     H_    0.536425 0.173095 0.207437 0.232854
H69   H     H_    0.544334 0.269765 0.164494 0.228122
C92   C     C_3   0.670348 0.205581 0.183191 -0.958889
H70   H     H_    0.710181 0.267923 0.170498 0.268664
H71   H     H_    0.667153 0.151873 0.153673 0.268509
H72   H     H_    0.703744 0.172690 0.214796 0.271830
O27   O     O_3   0.261829 0.562273 0.972749 -0.588815
C93   C     C_3   0.182497 0.528935 0.950910 -0.245928
H73   H     H_    0.189206 0.455122 0.936080 0.162815
H74   H     H_    0.160321 0.579608 0.922567 0.151487
H75   H     H_    0.129419 0.526448 0.978833 0.187558
O28   O     O_3   0.721149 0.612649 0.026869 -0.587298
C94   C     C_3   0.804800 0.597103 0.048796 -0.249532
H76   H     H_    0.811109 0.523548 0.063906 0.159735
H77   H     H_    0.817653 0.652069 0.076941 0.151441
H78   H     H_    0.857366 0.605303 0.020858 0.188470
O29   O     O_3   0.279057 0.405971 0.022466 -0.621976
C95   C     C_3   0.299370 0.307056 0.020821 0.102366
H79   H     H_    0.235290 0.267679 0.016987 0.174641
H80   H     H_    0.330702 0.280178 0.054682 0.141915
C96   C     C_3   0.358480 0.283686 0.977104 -0.403709
H81   H     H_    0.328557 0.314345 0.943899 0.233265
H82   H     H_    0.425715 0.315583 0.982175 0.214151
C97   C     C_3   0.369088 0.175941 0.970538 -0.929837
H83   H     H_    0.399616 0.143894 0.003208 0.266519
H84   H     H_    0.413177 0.161746 0.939108 0.268315
H85   H     H_    0.303295 0.141753 0.963820 0.266757
O30   O     O_3   0.732147 0.454745 0.977687 -0.622832
C98   C     C_3   0.729916 0.353406 0.979605 0.100867
H86   H     H_    0.799736 0.328694 0.983802 0.173619
H87   H     H_    0.704520 0.319781 0.945718 0.143065
C99   C     C_3   0.675493 0.318396 0.023186 -0.402729
H88   H     H_    0.698884 0.355364 0.056406 0.232891
H89   H     H_    0.603945 0.335130 0.017784 0.214214
C100  C     C_3   0.684211 0.210552 0.030024 -0.932686
H90   H     H_    0.660695 0.172112 0.997289 0.266850
H91   H     H_    0.642842 0.187544 0.061246 0.268178
H92   H     H_    0.754689 0.191308 0.037211 0.265688

loop_
_geom_bond_atom_site_label_1
_geom_bond_atom_site_label_2
_ccdc_geom_bond_type
C66   C68   A    
C94   H76   S    
C58   O18   S    
C84   H52   S    
O8    Zn2   S    
C28   H14   S    
C8    C26   A    
O14   C72   S    
C14   C18   A    
C68   O20   S    
C35   C36   A    
C86   H56   S    
C60   O11   S    
O18   C76   S    
C77   H35   S    
C71   H16   S    
C73   H21   S    
C85   C86   S    
O17   C75   S    
C39   C41   A    
C53   C54   A    
C56   C57   A    
C5    C47   A    
C33   C39   A    
C6    C48   A    
C2    C29   S    
C34   C40   A    
C47   N1    A    
C1    C30   S    
O24   C84   S    
C45   N3    A    
C76   H30   S    
C11   C63   A    
C80   H43   S    
C32   H4    S    
C12   C64   A    
C78   H38   S    
C97   H84   S    
C9    C22   A    
C31   H3    S    
C26   O30   S    
O27   C93   S    
O21   C79   S    
C100  H92   S    
C23   O8    A    
C62   C70   A    
C3    C18   A    
C61   C63   A    
C11   C23   S    
C37   C42   A    
C2    O2    A    
O16   C74   S    
O2    Zn2   S    
C90   C91   S    
C62   C64   A    
C91   C92   S    
C33   C35   A    
N3    Zn1   S    
C82   H47   S    
C66   H2    S    
O25   C87   S    
C40   H6    S    
C95   H79   S    
C92   H71   S    
C91   H69   S    
C31   C33   A    
C93   H73   S    
C51   C57   A    
C45   C49   A    
C25   O29   S    
C81   H46   S    
C76   H32   S    
O4    Zn2   S    
C88   C89   S    
O1    Zn1   S    
C44   C52   A    
C85   H55   S    
O26   C90   S    
C84   H53   S    
C88   H62   S    
C59   O12   S    
C8    O22   S    
O3    Zn1   S    
C79   H41   S    
C7    O21   S    
C71   H15   S    
C94   H78   S    
C52   C54   A    
C46   N4    A    
C74   H25   S    
C10   C21   A    
C87   H60   S    
C63   O24   S    
C86   H58   S    
C19   O27   S    
C98   C99   S    
O28   C94   S    
C13   C19   A    
O29   C95   S    
C83   H51   S    
C14   C20   A    
O22   C80   S    
C38   C41   A    
C4    C6    A    
C80   H44   S    
O5    Zn1   S    
C98   H86   S    
C5    C7    A    
C60   N2    A    
C97   H83   S    
C15   C26   A    
C77   H34   S    
N4    Zn2   S    
C55   O15   S    
C99   C100  S    
C65   C67   A    
C65   H1    S    
C12   C66   A    
C64   O23   S    
C50   C56   A    
C41   O13   S    
C67   C69   A    
C89   H65   S    
C83   H50   S    
C11   C65   A    
C10   C60   A    
C59   N1    A    
C91   H68   S    
C19   C21   A    
C3    C9    A    
C24   O6    A    
C57   O17   S    
C94   H77   S    
C40   C42   A    
C96   H81   S    
C28   C38   A    
C74   H24   S    
C92   H72   S    
C93   H75   S    
C100  H90   S    
C45   H9    S    
C16   C18   A    
C50   C54   A    
C99   H89   S    
C81   H45   S    
C88   H61   S    
C52   C58   A    
C81   C82   S    
C75   H29   S    
C4    C17   A    
C6    C8    A    
C79   H40   S    
C85   H54   S    
C96   H82   S    
C21   H11   S    
C1    O4    A    
C39   H5    S    
O19   C77   S    
C48   N2    A    
C72   H20   S    
C43   H7    S    
C4    C10   A    
C2    O3    A    
C70   N2    S    
C22   H12   S    
C69   N1    S    
C35   C37   A    
C75   H28   S    
O15   C73   S    
C74   H26   S    
C61   C69   A    
C16   C25   A    
C15   C17   A    
C46   C50   A    
C87   H59   S    
C1    O1    A    
C67   O19   S    
C56   O16   S    
C20   C22   A    
C79   H39   S    
C3    C5    A    
C97   H85   S    
C47   O9    S    
C73   H22   S    
C78   H36   S    
C77   H33   S    
C82   C83   S    
C86   H57   S    
C48   O10   S    
C12   C24   S    
O7    Zn1   S    
C84   C85   S    
C7    C25   A    
C13   C17   A    
C43   N3    A    
C83   H49   S    
C87   C88   S    
C72   H19   S    
C13   C16   A    
C20   O28   S    
C28   C30   A    
C29   C31   A    
C95   H80   S    
C49   C55   A    
C80   H42   S    
C24   O7    A    
C36   C38   A    
C30   C32   A    
C78   H37   S    
C43   C51   A    
O30   C98   S    
C27   C29   A    
C27   C37   A    
C95   C96   S    
C49   C53   A    
C62   O25   S    
C44   H8    S    
C61   O26   S    
C100  H91   S    
C34   C36   A    
C98   H87   S    
C99   H88   S    
C42   O14   S    
C89   H64   S    
C90   H67   S    
C73   H23   S    
O20   C78   S    
C27   H13   S    
C23   O5    A    
C90   H66   S    
C96   C97   S    
O6    Zn2   S    
C82   H48   S    
C92   H70   S    
C55   C58   A    
C72   H18   S    
O13   C71   S    
C68   C70   A    
C14   C15   A    
C93   H74   S    
C46   H10   S    
C51   C53   A    
O23   C81   S    
C44   N4    A    
C9    C59   A    
C71   H17   S    
C89   H63   S    
C32   C34   A    
C75   H27   S    
C76   H31   S    
