data_mof_unit_56890.cif
_audit_creation_date              2013-03-05T15:42:46-0500
_audit_creation_method            fapswitch 2.2
_symmetry_space_group_name_H-M    P1
_symmetry_Int_Tables_number       1
_space_group_crystal_system       triclinic
_cell_length_a                    9.917535
_cell_length_b                    10.988486
_cell_length_c                    13.579223
_cell_angle_alpha                 93.243601
_cell_angle_beta                  75.550193
_cell_angle_gamma                 88.108314
_cell_volume                      1429.03682984

loop_
_atom_site_label
_atom_site_type_symbol
_atom_site_description
_atom_site_fract_x
_atom_site_fract_y
_atom_site_fract_z
_atom_type_partial_charge
O1    O     O_R   0.382960 0.678040 0.499980 -0.571367
O2    O     O_R   0.617100 0.678080 0.500020 -0.536982
C1    C     C_R   0.496698 0.734274 0.502099 0.774512
O3    O     O_R   0.325800 0.499940 0.650950 -0.503223
O4    O     O_R   0.559930 0.499980 0.650990 -0.536164
C2    C     C_R   0.426353 0.507461 0.699053 0.898024
Cu1   Cu    Cu3+1 0.361370 0.499980 0.499980 1.033412
Cu2   Cu    Cu3+1 0.638630 0.500020 0.500020 1.037308
O5    O     O_R   0.382900 0.321920 0.499980 -0.586293
O6    O     O_R   0.617040 0.321960 0.500020 -0.609412
O7    O     O_R   0.440070 0.500020 0.349010 -0.579990
O8    O     O_R   0.674200 0.500060 0.349050 -0.568704
C3    C     C_R   0.503727 0.267097 0.497126 0.790685
C4    C     C_R   0.573103 0.491531 0.302013 0.792198
C5    C     C_R   0.781919 0.439354 0.030695 0.510772
H1    H     H_    0.827512 0.434102 0.177035 0.209564
H2    H     H_    0.838143 0.521061 0.842868 0.205482
C6    C     C_R   0.609431 0.476351 0.190725 -0.205243
C7    C     C_R   0.243035 0.528061 0.865269 0.405076
C8    C     C_R   0.202458 0.564510 0.969560 -0.068861
C9    C     C_R   0.302211 0.561963 0.026016 -0.175685
C10   C     C_R   0.442868 0.530832 0.977985 -0.002053
C11   C     C_R   0.486748 0.537508 0.871443 -0.084680
C12   C     C_R   0.543003 0.500927 0.032579 -0.075688
C13   C     C_R   0.685306 0.483774 0.979788 -0.089702
C14   C     C_R   0.728206 0.516075 0.879371 -0.221544
C15   C     C_R   0.629658 0.557936 0.830371 0.529033
C16   C     C_R   0.505741 0.476497 0.136400 0.457453
C17   C     C_R   0.747769 0.451696 0.137094 -0.310778
C18   C     C_R   0.386275 0.525848 0.812556 -0.214910
H3    H     H_    0.269485 0.586715 0.106845 0.237016
C19   C     C_2   0.555780 0.068285 0.550986 -0.056940
C20   C     C_2   0.522488 0.136942 0.479284 -0.105985
C21   C     C_2   0.586722 0.935885 0.528777 0.373412
C22   C     C_2   0.482186 0.867986 0.512644 0.287075
C23   C     C_2   0.055742 0.584802 0.546286 0.165438
N1    N     N_2   0.152660 0.501340 0.501130 0.015943
C24   C     C_2   0.902456 0.581240 0.549325 0.110176
N2    N     N_2   0.846520 0.501370 0.501160 0.023572
H4    H     H_    0.834169 0.650961 0.597349 0.145800
C25   C     C_2   0.537701 0.093436 0.370892 0.261009
H5    H     H_    0.484127 0.144375 0.324590 0.043522
O9    O     O_2   0.614518 0.005777 0.330694 -0.562510
O10   O     O_3   0.713738 0.880646 0.533232 -0.602615
C26   C     C_3   0.825542 0.957745 0.502065 -0.304625
H6    H     H_    0.826712 0.028682 0.563431 0.152807
H7    H     H_    0.823159 0.000382 0.430027 0.197861
H8    H     H_    0.924625 0.901956 0.486932 0.173541
O11   O     O_3   0.351907 0.925388 0.520072 -0.595650
C27   C     C_3   0.306684 0.901463 0.430112 -0.249036
H9    H     H_    0.225784 0.832912 0.442862 0.168446
H10   H     H_    0.391689 0.869997 0.361888 0.167520
H11   H     H_    0.257581 0.986824 0.412105 0.159920
C28   C     C_2   0.089956 0.696220 0.599410 0.332593
H12   H     H_    0.038697 0.782956 0.592704 0.034694
O12   O     O_2   0.164438 0.691874 0.658223 -0.478388
O13   O     O_3   0.111116 0.388135 0.485388 -0.479369
C29   C     C_3   0.184559 0.343887 0.385612 -0.006280
H13   H     H_    0.155431 0.249039 0.371859 0.058241
H14   H     H_    0.297394 0.337237 0.369211 0.179003
H15   H     H_    0.161408 0.403201 0.327919 0.199218
O14   O     O_3   0.924493 0.462879 0.407449 -0.469801
C30   C     C_3   0.891411 0.340992 0.385268 0.011353
H16   H     H_    0.797153 0.332189 0.358352 0.148472
H17   H     H_    0.889731 0.282274 0.449726 0.143415
H18   H     H_    0.969487 0.301225 0.317028 0.048464
O15   O     O_3   0.906084 0.381512 0.976159 -0.590771
C31   C     C_3   0.917346 0.262730 0.010042 -0.354029
H19   H     H_    0.815574 0.217861 0.029933 0.165285
H20   H     H_    0.964939 0.265848 0.076019 0.171669
H21   H     H_    0.986273 0.203170 0.947954 0.176265
O16   O     O_3   0.374793 0.437493 0.181157 -0.588168
C32   C     C_3   0.368052 0.314747 0.145652 -0.387060
H22   H     H_    0.438890 0.253811 0.174857 0.152832
H23   H     H_    0.392467 0.302696 0.061023 0.189611
H24   H     H_    0.260246 0.285261 0.173890 0.169332
O17   O     O_3   0.141559 0.494339 0.816506 -0.560984
C33   C     C_3   0.146216 0.365190 0.803577 -0.133524
H25   H     H_    0.046645 0.336552 0.788522 0.196639
H26   H     H_    0.161827 0.320592 0.871735 0.146195
H27   H     H_    0.230215 0.329171 0.737226 0.185950
C34   C     C_2   0.056001 0.604041 0.019105 0.445788
H28   H     H_    0.982144 0.616851 0.973173 0.116000
O18   O     O_2   0.016504 0.625156 0.111324 -0.551281
O19   O     O_3   0.674317 0.634295 0.752708 -0.592597
C35   C     C_3   0.612707 0.752757 0.782324 -0.339413
H29   H     H_    0.621469 0.785021 0.859683 0.159690
H30   H     H_    0.501936 0.756796 0.778767 0.164704
H31   H     H_    0.668753 0.816864 0.728063 0.208793
C36   C     C_2   0.552242 0.114832 0.657207 0.321714
H32   H     H_    0.590082 0.055164 0.706556 0.073316
O20   O     O_2   0.504753 0.216591 0.691937 -0.575514

loop_
_geom_bond_atom_site_label_1
_geom_bond_atom_site_label_2
_geom_bond_distance
_ccdc_geom_bond_type
C30   H17   1.113591 S    
C8    C34   1.479405 S    
C25   O9    1.220936 D    
C32   H22   1.112309 S    
C4    C6    1.461906 S    
C7    C8    1.403097 A    
C36   H32   1.085705 S    
Cu1   Cu2   2.749886 S    
O17   C33   1.417876 S    
Cu1   O7    2.003373 S    
C9    H3    1.080107 S    
C14   C15   1.392497 A    
H2    C14   1.083860 S    
C23   N1    1.313396 D    
C24   N2    1.286094 D    
O7    C4    1.312105 A    
C35   H30   1.111162 S    
C5    C13   1.404292 A    
C29   H14   1.084242 S    
C15   O19   1.379840 S    
C21   C22   1.351074 D    
C25   H5    1.085281 S    
C7    O17   1.384928 S    
O5    C3    1.314104 A    
C19   C36   1.494467 S    
C31   H19   1.116538 S    
C22   O11   1.396915 S    
C27   H10   1.115020 S    
Cu2   N2    2.066209 S    
C11   C15   1.418064 A    
C29   H15   1.108582 S    
C30   H18   1.105873 S    
O1    Cu1   1.975305 S    
C9    C10   1.406254 A    
C32   H23   1.112923 S    
C16   O16   1.382731 S    
O3    Cu1   1.991574 S    
C5    C17   1.396848 A    
C26   H7    1.113392 S    
C28   O12   1.217426 D    
C27   H11   1.109944 S    
O15   C31   1.418377 S    
C11   C18   1.429420 A    
C6    C16   1.407231 A    
C12   C13   1.415422 A    
O3    C2    1.323784 A    
C33   H25   1.109041 S    
C13   C14   1.393412 A    
O19   C35   1.412500 S    
O6    C3    1.300753 A    
O1    C1    1.309672 A    
C19   C21   1.475285 S    
C3    C20   1.435116 S    
O14   C30   1.422994 S    
C36   O20   1.220351 D    
C1    C22   1.466969 S    
Cu2   O8    1.991573 S    
C5    O15   1.381565 S    
C27   H9    1.107453 S    
Cu1   N1    2.065600 S    
C21   O10   1.396652 S    
C6    C17   1.393040 A    
Cu2   O6    1.975305 S    
C2    C18   1.492674 S    
O8    C4    1.319488 A    
C34   H28   1.084665 S    
C34   O18   1.221373 D    
C32   H24   1.107913 S    
C10   C12   1.420295 A    
O10   C26   1.412362 S    
C26   H8    1.108538 S    
Cu1   O5    1.961208 S    
N2    O14   1.350038 S    
C28   H12   1.084461 S    
C35   H29   1.114532 S    
O2    Cu2   1.961206 S    
C12   C16   1.409104 A    
O16   C32   1.415841 S    
C35   H31   1.108283 S    
O4    Cu2   2.003371 S    
C20   C25   1.490817 S    
C19   C20   1.361362 D    
C23   C24   1.512315 S    
O2    C1    1.319271 A    
C29   H13   1.108757 S    
C24   H4    1.076884 S    
C33   H27   1.107122 S    
O13   C29   1.418523 S    
O4    C2    1.320205 A    
C31   H21   1.107628 S    
C33   H26   1.112919 S    
C23   C28   1.477880 S    
C30   H16   1.090549 S    
C26   H6    1.110879 S    
C8    C9    1.395114 A    
H1    C17   1.082969 S    
C31   H20   1.111414 S    
O11   C27   1.416826 S    
C10   C11   1.409886 A    
C7    C18   1.421023 A    
N1    O13   1.345575 S    
