data_mof_unit_50600.cif
_audit_creation_date              2012-10-26T19:15:57-0400
_audit_creation_method            fapswitch 2.2
_symmetry_space_group_name_H-M    P1
_symmetry_Int_Tables_number       1
_space_group_crystal_system       triclinic
_cell_length_a                    7.775956
_cell_length_b                    9.097975
_cell_length_c                    17.085658
_cell_angle_alpha                 89.591125
_cell_angle_beta                  94.381583
_cell_angle_gamma                 90.015462
_cell_volume                      1205.16919738

loop_
_atom_site_label
_atom_site_type_symbol
_atom_type_description
_atom_site_fract_x
_atom_site_fract_y
_atom_site_fract_z
_atom_type_partial_charge
C1    C     C_R   0.499969 0.219982 0.500009 0.552409
C2    C     C_R   0.604947 0.436986 0.143210 0.012678
C3    C     C_R   0.548308 0.526806 0.902550 0.202737
C4    C     C_R   0.451692 0.473194 0.097450 0.202737
C5    C     C_R   0.694943 0.485565 0.865847 -0.099491
C6    C     C_R   0.305057 0.514435 0.134153 -0.099491
C7    C     C_R   0.690295 0.473382 0.784330 -0.044737
C8    C     C_R   0.309704 0.526618 0.215670 -0.044737
C9    C     C_1   0.499977 0.065355 0.500003 -0.033653
C10   C     C_1   0.500023 0.934645 0.499997 -0.033653
C11   C     C_1   0.756153 0.383047 0.108432 0.247955
C12   C     C_R   0.500031 0.780018 0.499990 0.552409
C13   C     C_1   0.243847 0.616953 0.891568 0.247955
C14   C     C_1   0.844789 0.423418 0.750777 0.233507
C15   C     C_1   0.155211 0.576582 0.249223 0.233507
C16   C     C_R   0.522150 0.498689 0.651634 0.544156
C17   C     C_R   0.477850 0.501311 0.348366 0.544156
C18   C     C_R   0.535717 0.506062 0.738131 -0.019998
C19   C     C_R   0.464283 0.493938 0.261869 -0.019998
C20   C     C_R   0.389943 0.551458 0.775386 -0.155131
C21   C     C_R   0.610056 0.448542 0.224614 -0.155131
C22   C     C_R   0.395053 0.563014 0.856790 0.012678
Cu1   Cu    Cu3+1 0.669080 0.500010 0.500000 1.062930
Cu2   Cu    Cu3+1 0.330920 0.499990 0.500000 1.062930
H1    H     H_    0.728120 0.419423 0.259143 0.159533
H2    H     H_    0.271880 0.580577 0.740857 0.159533
H3    H     H_    0.812434 0.459309 0.901556 0.163230
H4    H     H_    0.187566 0.540691 0.098444 0.163230
N1    N     N_1   0.076820 0.499970 0.500010 -0.065359
N2    N     N_1   0.923180 0.500030 0.499990 -0.065359
N3    N     N_2   0.560791 0.532102 0.985405 -0.218303
N4    N     N_2   0.439209 0.467898 0.014595 -0.218303
N5    N     N_1   0.877343 0.339832 0.080633 -0.283762
N6    N     N_1   0.122657 0.660168 0.919367 -0.283762
N7    N     N_1   0.968695 0.383256 0.724073 -0.275281
N8    N     N_1   0.031305 0.616744 0.275927 -0.275281
O1    O     O_R   0.642760 0.288400 0.500000 -0.495898
O2    O     O_R   0.357240 0.711600 0.500000 -0.495897
O3    O     O_R   0.357190 0.288380 0.500000 -0.494429
O4    O     O_R   0.642810 0.711620 0.500000 -0.494429
O5    O     O_R   0.658410 0.498660 0.613920 -0.492286
O6    O     O_R   0.341590 0.501340 0.386080 -0.492286
O7    O     O_R   0.372840 0.498650 0.613930 -0.500805
O8    O     O_R   0.627160 0.501350 0.386070 -0.500806

loop_
_geom_bond_atom_site_label_1
_geom_bond_atom_site_label_2
_ccdc_geom_bond_type
C12   O4    A    
C2    C4    A    
Cu1   Cu2   S    
N1    N2    T    
Cu2   O6    S    
C9    C10   T    
Cu2   O2    S    
N3    N4    D    
Cu1   O5    S    
C1    O1    A    
C3    C5    A    
C7    C18   A    
C2    C21   A    
C17   O8    A    
C13   N6    T    
Cu1   O1    S    
C3    N3    S    
C16   O7    A    
C4    N4    S    
C10   C12   S    
C2    C11   S    
C4    C6    A    
C17   C19   S    
C20   C22   A    
C13   C22   S    
C8    C15   S    
C18   C20   A    
C12   O2    A    
C8    C19   A    
C1    O3    A    
Cu1   O4    S    
Cu1   N2    S    
Cu2   N1    S    
C15   N8    T    
C11   N5    T    
Cu2   O3    S    
C1    C9    S    
C16   C18   S    
C14   N7    T    
C5    C7    A    
Cu2   O7    S    
C21   H1    S    
C17   O6    A    
C3    C22   A    
C6    C8    A    
C19   C21   A    
C5    H3    S    
C16   O5    A    
C7    C14   S    
C6    H4    S    
Cu1   O8    S    
C20   H2    S    
