data_mof_unit_32908.cif
_audit_creation_date              2012-12-10T20:42:36-0500
_audit_creation_method            fapswitch 2.2
_symmetry_space_group_name_H-M    P1
_symmetry_Int_Tables_number       1
_space_group_crystal_system       triclinic
_cell_length_a                    8.930667
_cell_length_b                    10.712832
_cell_length_c                    9.948919
_cell_angle_alpha                 91.014386
_cell_angle_beta                  90.064201
_cell_angle_gamma                 91.006471
_cell_volume                      951.543317717

loop_
_atom_site_label
_atom_site_type_symbol
_atom_type_description
_atom_site_fract_x
_atom_site_fract_y
_atom_site_fract_z
_atom_type_partial_charge
C1    C     C_R   0.499143 0.260216 0.499350 0.876495
C2    C     C_R   0.432473 0.931344 0.389192 -0.220159
C3    C     C_R   0.483059 0.870466 0.503680 -0.076925
C4    C     C_R   0.511997 0.938290 0.621251 0.072030
C5    C     C_3   0.633863 0.931601 0.724029 -0.488576
C6    C     C_3   0.639181 0.074334 0.721653 -0.039064
C7    C     C_R   0.367789 0.495251 0.068932 0.065861
C8    C     C_R   0.628611 0.519054 0.072161 -0.129632
C9    C     C_R   0.628991 0.517252 0.928913 -0.136613
C10   C     C_R   0.368931 0.498089 0.927392 0.075490
C11   C     C_3   0.241308 0.409174 0.907742 0.278576
C12   C     C_R   0.218925 0.499201 0.499996 0.925120
C13   C     C_3   0.243352 0.395809 0.062391 0.155409
C14   C     C_R   0.498360 0.739403 0.501041 0.870041
C15   C     C_R   0.781064 0.499637 0.500094 0.926031
C16   C     C_1   0.065385 0.498808 0.500244 -0.233582
C17   C     C_1   0.934576 0.498963 0.500291 -0.218385
C18   C     C_R   0.517537 0.065099 0.618355 0.147395
C19   C     C_R   0.487780 0.127888 0.500393 -0.100556
C20   C     C_R   0.434321 0.060319 0.388226 -0.275613
H1    H     H_    0.399621 0.105320 0.298799 0.179454
H2    H     H_    0.397997 0.880168 0.299122 0.170152
H3    H     H_    0.591032 0.894919 0.820771 0.179218
H4    H     H_    0.734385 0.883332 0.685543 0.206893
H5    H     H_    0.597158 0.116317 0.816913 0.144963
H6    H     H_    0.732611 0.535103 0.125439 0.151793
H7    H     H_    0.733997 0.529140 0.876325 0.144336
H8    H     H_    0.145124 0.459560 0.863648 0.042757
N1    N     N_R   0.499010 0.499140 0.142800 -0.091748
N2    N     N_R   0.499010 0.499180 0.857150 -0.081027
O1    O     O_R   0.500020 0.316790 0.614690 -0.575787
O2    O     O_R   0.500000 0.316760 0.385350 -0.638976
O3    O     O_R   0.285350 0.500020 0.614650 -0.601973
O4    O     O_R   0.285340 0.499980 0.385310 -0.633206
O5    O     O_R   0.500000 0.683240 0.614650 -0.617915
O6    O     O_R   0.499980 0.683210 0.385310 -0.621214
O7    O     O_R   0.714660 0.500020 0.614690 -0.638779
O8    O     O_R   0.714650 0.499980 0.385350 -0.626253
Zn1   Zn    Zn3+2 0.500010 0.500020 0.653130 0.963431
Zn2   Zn    Zn3+2 0.499990 0.499980 0.346870 0.924207
O9    O     O_3   0.281457 0.301260 0.833307 -0.565792
C21   C     C_3   0.150743 0.231623 0.799241 0.129885
H9    H     H_    0.092656 0.275833 0.713794 0.144577
H10   H     H_    0.071691 0.225360 0.885055 0.111361
C22   C     C_3   0.192435 0.098990 0.758920 -0.846209
H11   H     H_    0.285997 0.066409 0.822246 0.263903
H12   H     H_    0.096005 0.033822 0.772400 0.208937
H13   H     H_    0.224283 0.095758 0.651395 0.244340
C23   C     C_3   0.092837 0.442744 0.124734 -0.466373
C24   C     C_3   0.982451 0.338962 0.165806 -0.891745
H14   H     H_    0.951314 0.278525 0.078339 0.241282
H15   H     H_    0.029549 0.281693 0.246984 0.253371
H16   H     H_    0.878912 0.380508 0.206046 0.273348
H17   H     H_    0.114152 0.503727 0.212891 0.254428
H18   H     H_    0.033270 0.504360 0.054486 0.172234
C25   C     C_3   0.294628 0.266629 0.113702 -0.243139
C26   C     C_3   0.452512 0.224121 0.071286 -0.845222
H19   H     H_    0.487856 0.258640 0.972247 0.289118
H20   H     H_    0.538077 0.256636 0.145084 0.267818
H21   H     H_    0.455311 0.120552 0.066480 0.215347
H22   H     H_    0.288923 0.270643 0.224708 0.208253
H23   H     H_    0.213148 0.193225 0.079909 0.193127
C27   C     C_3   0.787916 0.136220 0.677051 -0.370497
C28   C     C_3   0.858856 0.084115 0.547776 -0.853337
H24   H     H_    0.901822 0.988897 0.562648 0.251472
H25   H     H_    0.778763 0.082534 0.462662 0.267103
H26   H     H_    0.955526 0.144870 0.519862 0.234766
H27   H     H_    0.770353 0.237696 0.664948 0.212839
H28   H     H_    0.867724 0.126933 0.760991 0.191138

loop_
_geom_bond_atom_site_label_1
_geom_bond_atom_site_label_2
_ccdc_geom_bond_type
C6    C27   S    
C2    H2    S    
C7    C10   A    
O5    Zn1   S    
C15   O8    A    
C7    N1    A    
C8    H6    S    
O9    C21   S    
C10   N2    A    
C24   H15   S    
C19   C20   A    
C5    H3    S    
C7    C13   S    
C13   C25   S    
C4    C18   A    
C28   H24   S    
C22   H12   S    
C2    C3    A    
O7    Zn1   S    
C22   H11   S    
C20   H1    S    
O8    Zn2   S    
C6    H5    S    
C3    C14   S    
C26   H19   S    
O3    Zn1   S    
C5    H4    S    
C21   H10   S    
C11   H8    S    
C13   C23   S    
C8    N1    A    
C9    N2    A    
N1    Zn2   S    
O1    Zn1   S    
N2    Zn1   S    
C11   O9    S    
C25   H23   S    
O2    Zn2   S    
C14   O6    A    
C5    C6    S    
C6    C18   S    
O4    Zn2   S    
C26   H20   S    
C11   C13   S    
C1    C19   S    
C21   H9    S    
C2    C20   A    
C27   C28   S    
C24   H16   S    
C28   H26   S    
C27   H28   S    
C1    O1    A    
C25   C26   S    
C9    H7    S    
C15   C17   S    
C18   C19   A    
C10   C11   S    
C22   H13   S    
C14   O5    A    
C23   C24   S    
C27   H27   S    
C16   C17   T    
O6    Zn2   S    
C12   C16   S    
C24   H14   S    
C12   O3    A    
C23   H18   S    
C4    C5    S    
C12   O4    A    
C25   H22   S    
C1    O2    A    
C15   O7    A    
C3    C4    A    
C23   H17   S    
C8    C9    A    
C26   H21   S    
C21   C22   S    
C28   H25   S    
