data_mof_unit_10918.cif
_audit_creation_date              2012-12-10T17:44:30-0500
_audit_creation_method            fapswitch 2.2
_symmetry_space_group_name_H-M    P1
_symmetry_Int_Tables_number       1
_space_group_crystal_system       triclinic
_cell_length_a                    10.021557
_cell_length_b                    10.659207
_cell_length_c                    15.574856
_cell_angle_alpha                 92.930516
_cell_angle_beta                  66.916175
_cell_angle_gamma                 88.658576
_cell_volume                      1526.81110183

loop_
_atom_site_label
_atom_site_type_symbol
_atom_type_description
_atom_site_fract_x
_atom_site_fract_y
_atom_site_fract_z
_atom_type_partial_charge
C1    C     C_R   0.502500 0.738568 0.490126 0.925296
C2    C     C_R   0.408545 0.515699 0.916589 0.001075
C3    C     C_R   0.272682 0.468374 0.970323 -0.014526
C4    C     C_R   0.513749 0.530206 0.956440 -0.073375
C5    C     C_R   0.472327 0.515872 0.053336 0.021200
C6    C     C_R   0.323225 0.498525 0.109611 0.432451
C7    C     C_R   0.229441 0.463748 0.066453 -0.303258
C8    C     C_R   0.660237 0.553675 0.901640 -0.250685
C9    C     C_R   0.759334 0.580540 0.941522 0.416040
C10   C     C_R   0.721602 0.563016 0.037012 0.035189
C11   C     C_R   0.581123 0.521406 0.090611 0.055013
C12   C     C_R   0.407068 0.500779 0.676423 0.944692
C13   C     C_R   0.822509 0.578052 0.079392 -0.203965
C14   C     C_R   0.783775 0.554995 0.173186 -0.175865
C15   C     C_R   0.555808 0.479893 0.178833 -0.149516
C16   C     C_R   0.232391 0.903099 0.514925 -0.141816
C17   C     C_R   0.105686 0.978519 0.559833 -0.279529
C18   C     C_R   0.107307 0.089638 0.610865 0.130336
C19   C     C_R   0.240591 0.129384 0.609223 0.435839
C20   C     C_R   0.371397 0.066392 0.545636 -0.087391
C21   C     C_R   0.366712 0.943624 0.512962 -0.016299
C22   C     C_R   0.499354 0.870942 0.473553 -0.157371
C23   C     C_R   0.500713 0.260328 0.502107 0.887073
C24   C     C_R   0.629862 0.929887 0.429813 0.453823
C25   C     C_R   0.630552 0.059482 0.445068 -0.366754
C26   C     C_R   0.503058 0.126414 0.504573 -0.141915
C27   C     C_R   0.819379 0.711357 0.574702 0.471661
C28   C     C_R   0.807234 0.774113 0.659530 -0.141394
C29   C     C_R   0.922471 0.751282 0.687993 0.301468
C30   C     C_R   0.043534 0.672288 0.629597 0.403818
C31   C     C_R   0.032655 0.587912 0.558099 -0.067753
C32   C     C_R   0.897664 0.595669 0.547571 0.052460
C33   C     C_R   0.956600 0.407186 0.454957 -0.139658
C34   C     C_R   0.591930 0.498680 0.324280 0.843115
C35   C     C_R   0.102202 0.408476 0.450188 0.179911
C36   C     C_R   0.346482 0.500598 0.779728 -0.246339
C37   C     C_R   0.648778 0.507062 0.223252 -0.082499
C38   C     C_R   0.176596 0.435034 0.928720 -0.209707
C39   C     C_R   0.211982 0.449232 0.834007 0.413431
C40   C     C_R   0.433069 0.547814 0.824926 0.332891
H1    H     H_    0.119279 0.440123 0.108833 0.135491
H2    H     H_    0.930854 0.608761 0.041998 0.150793
H3    H     H_    0.224854 0.819083 0.475624 0.197780
H4    H     H_    0.006065 0.949323 0.555809 0.152496
H5    H     H_    0.728685 0.108323 0.408805 0.156190
H6    H     H_    0.922118 0.332509 0.420260 0.159506
H7    H     H_    0.463096 0.425565 0.214812 0.189319
H8    H     H_    0.858595 0.574916 0.206331 0.173696
H9    H     H_    0.072537 0.398114 0.970110 0.180229
H10   H     H_    0.701589 0.552545 0.826384 0.221764
N1    N     N_R   0.856800 0.501200 0.500850 -0.104007
N2    N     N_R   0.142390 0.501280 0.500880 -0.089212
O1    O     O_R   0.385310 0.683220 0.500000 -0.590476
O2    O     O_R   0.614640 0.683250 0.500010 -0.530593
O3    O     O_R   0.319840 0.499980 0.632240 -0.534210
O4    O     O_R   0.549160 0.500000 0.632250 -0.582019
O5    O     O_R   0.385360 0.316750 0.499990 -0.619736
O6    O     O_R   0.614690 0.316780 0.500000 -0.640172
O7    O     O_R   0.450840 0.500000 0.367750 -0.621270
O8    O     O_R   0.680160 0.500020 0.367760 -0.604707
Zn1   Zn    Zn3+2 0.346880 0.499980 0.499990 0.994764
Zn2   Zn    Zn3+2 0.653120 0.500020 0.500010 0.996621
O9    O     O_3   0.751102 0.860445 0.368778 -0.717151
H11   H     H_    0.832665 0.917128 0.343296 0.334703
C41   C     C_3   0.970024 0.171125 0.659127 -0.376912
C42   C     C_3   0.906527 0.159084 0.765125 -0.287329
C43   C     C_3   0.761947 0.233872 0.811844 -0.866467
H12   H     H_    0.776118 0.333141 0.793502 0.281893
H13   H     H_    0.679679 0.193750 0.788344 0.248838
H14   H     H_    0.722157 0.230737 0.888996 0.255263
H15   H     H_    0.889063 0.059061 0.780703 0.235179
H16   H     H_    0.983055 0.194395 0.795444 0.293350
H17   H     H_    0.993789 0.270877 0.643706 0.230251
H18   H     H_    0.888114 0.145271 0.630406 0.169190
O10   O     O_3   0.240710 0.230257 0.667992 -0.734990
H19   H     H_    0.333433 0.225993 0.676812 0.310667
O11   O     O_3   0.829529 0.781977 0.500953 -0.715433
H20   H     H_    0.824278 0.872750 0.519492 0.315684
C44   C     C_3   0.695768 0.883125 0.706882 -0.396099
C45   C     C_3   0.565469 0.891244 0.678178 -0.300671
C46   C     C_3   0.438545 0.971262 0.750019 -0.890718
H21   H     H_    0.400181 0.929709 0.819090 0.268828
H22   H     H_    0.471807 0.068618 0.757205 0.254704
H23   H     H_    0.346963 0.974797 0.726922 0.259885
H24   H     H_    0.598017 0.936145 0.611194 0.214974
H25   H     H_    0.527177 0.796483 0.669911 0.273820
H26   H     H_    0.650534 0.875335 0.783478 0.209316
H27   H     H_    0.751667 0.972734 0.693083 0.195125
O12   O     O_3   0.930471 0.815816 0.764945 -0.774168
H28   H     H_    0.831869 0.832405 0.813612 0.342209
O13   O     O_3   0.168421 0.676623 0.644698 -0.705572
H29   H     H_    0.169036 0.752821 0.683657 0.369381
C47   C     C_3   0.206159 0.297906 0.397696 -0.351775
C48   C     C_3   0.180423 0.231251 0.315282 -0.404341
C49   C     C_3   0.098755 0.110297 0.342765 -0.867367
H30   H     H_    0.168159 0.038899 0.357502 0.275779
H31   H     H_    0.996736 0.127252 0.405935 0.246965
H32   H     H_    0.071822 0.071844 0.284210 0.250912
H33   H     H_    0.123521 0.295000 0.285104 0.224103
H34   H     H_    0.287377 0.204393 0.257885 0.221759
H35   H     H_    0.316975 0.330260 0.367120 0.222681
H36   H     H_    0.203884 0.228353 0.448668 0.217282
O14   O     O_3   0.894268 0.616236 0.883078 -0.743486
H37   H     H_    0.928518 0.679081 0.917750 0.339593
O15   O     O_3   0.110751 0.414136 0.799191 -0.699542
H38   H     H_    0.105759 0.477514 0.756426 0.404649
O16   O     O_3   0.527947 0.638178 0.782005 -0.792296
H39   H     H_    0.525045 0.701403 0.831686 0.332185
O17   O     O_3   0.268187 0.524872 0.205409 -0.785989
H40   H     H_    0.161952 0.513865 0.232433 0.331719

loop_
_geom_bond_atom_site_label_1
_geom_bond_atom_site_label_2
_ccdc_geom_bond_type
O6    Zn2   S    
C23   O6    A    
C16   C21   A    
C8    H10   S    
C34   C37   S    
C19   C20   A    
C15   H7    S    
C31   N2    A    
C4    C8    A    
C44   H26   S    
C46   H21   S    
C49   H32   S    
C38   H9    S    
O11   H20   S    
C18   C41   S    
C47   C48   S    
C28   C29   A    
C5    C11   A    
C3    C7    A    
N2    Zn1   S    
C30   C31   A    
C41   H17   S    
O8    Zn2   S    
C18   C19   A    
C23   C26   S    
C28   C44   S    
C1    O1    A    
C44   H27   S    
C45   H25   S    
O1    Zn1   S    
C42   H16   S    
C42   H15   S    
C3    C38   A    
C8    C9    A    
O16   H39   S    
C30   O13   S    
C12   C36   S    
C29   C30   A    
C9    C10   A    
C42   C43   S    
C1    C22   S    
C21   C22   A    
C34   O8    A    
C33   H6    S    
N1    Zn2   S    
C11   C15   A    
C29   O12   S    
C13   H2    S    
C46   H22   S    
C35   C47   S    
C38   C39   A    
O7    Zn1   S    
C43   H12   S    
C36   C40   A    
C24   C25   A    
C47   H35   S    
O13   H29   S    
C16   C17   A    
C14   H8    S    
O2    Zn2   S    
C25   C26   A    
C41   H18   S    
O9    H11   S    
C43   H13   S    
C2    C4    A    
O10   H19   S    
C32   N1    A    
C45   H24   S    
C31   C32   A    
C48   H34   S    
C9    O14   S    
C17   C18   A    
C16   H3    S    
C12   O4    A    
C40   O16   S    
C23   O5    A    
C24   O9    S    
C34   O7    A    
C6    O17   S    
C22   C24   A    
C25   H5    S    
O14   H37   S    
C46   H23   S    
C39   O15   S    
C27   C32   A    
C36   C39   A    
C45   C46   S    
C27   O11   S    
C10   C13   A    
C47   H36   S    
C49   H31   S    
O5    Zn1   S    
C6    C7    A    
C33   N1    A    
O15   H38   S    
C43   H14   S    
C19   O10   S    
C2    C3    A    
C49   H30   S    
C17   H4    S    
C15   C37   A    
O17   H40   S    
C14   C37   A    
C5    C6    A    
C20   C26   A    
C48   H33   S    
O3    Zn1   S    
C33   C35   A    
O4    Zn2   S    
C7    H1    S    
C48   C49   S    
C12   O3    A    
C10   C11   A    
C44   C45   S    
C2    C40   A    
C4    C5    A    
C20   C21   A    
C41   C42   S    
C35   N2    A    
O12   H28   S    
C13   C14   A    
C1    O2    A    
C27   C28   A    
