data_mof_unit_58392.cif
_audit_creation_date              2012-12-11T14:30:49-0500
_audit_creation_method            fapswitch 2.2
_symmetry_space_group_name_H-M    P1
_symmetry_Int_Tables_number       1
_space_group_crystal_system       triclinic
_cell_length_a                    17.411384
_cell_length_b                    24.372595
_cell_length_c                    14.930365
_cell_angle_alpha                 89.958813
_cell_angle_beta                  124.886812
_cell_angle_gamma                 89.643601
_cell_volume                      5197.0295572

loop_
_atom_site_label
_atom_site_type_symbol
_atom_type_description
_atom_site_fract_x
_atom_site_fract_y
_atom_site_fract_z
_atom_type_partial_charge
C1    C     C_R   0.834331 0.646869 0.907677 -0.150715
C2    C     C_R   0.927998 0.504399 0.630221 0.054354
C3    C     C_3   0.338953 0.881023 0.632796 -0.934845
C4    C     C_R   0.501558 0.002844 0.325689 0.039977
C5    C     C_R   0.427992 0.004399 0.630217 0.054338
C6    C     C_R   0.675819 0.503175 0.697493 0.060898
C7    C     C_R   0.315689 0.500524 0.340712 0.056987
C8    C     C_R   0.175836 0.003198 0.697318 0.061135
C9    C     C_R   0.815541 0.000499 0.340979 0.056986
C10   C     C_3   0.501686 0.469018 0.602242 -0.156569
C11   C     C_3   0.472925 0.449788 0.488004 -0.163644
C12   C     C_3   0.001619 0.969354 0.602745 -0.156253
C13   C     C_R   0.173174 0.641786 0.091310 -0.142391
C14   C     C_3   0.972617 0.949690 0.488649 -0.163745
C15   C     C_3   0.434078 0.519237 0.550227 -0.221402
C16   C     C_3   0.551508 0.484434 0.497786 -0.216041
C17   C     C_3   0.934172 0.019622 0.550286 -0.221714
C18   C     C_3   0.051253 0.984025 0.497885 -0.216293
C19   C     C_3   0.407981 0.500160 0.437974 0.071045
C20   C     C_3   0.578635 0.503939 0.610582 0.061830
C21   C     C_3   0.907845 0.000112 0.438184 0.071171
C22   C     C_3   0.078618 0.003967 0.610529 0.061855
C23   C     C_3   0.485769 0.534154 0.448483 0.193108
C24   C     C_R   0.334320 0.146863 0.907676 -0.150723
C25   C     C_3   0.512360 0.553210 0.559492 0.186773
C26   C     C_3   0.985684 0.033797 0.448151 0.193392
C27   C     C_3   0.012495 0.053284 0.559001 0.186726
C28   C     C_2   0.138326 0.758288 0.937295 -0.282713
C29   C     C_2   0.872388 0.767586 0.060506 -0.278394
C30   C     C_2   0.638410 0.258216 0.937310 -0.282794
C31   C     C_2   0.372372 0.267580 0.060467 -0.278398
C32   C     C_2   0.197304 0.715766 0.991914 0.478232
C33   C     C_2   0.813968 0.725908 0.002173 0.476402
C34   C     C_2   0.697398 0.215702 0.991931 0.478304
C35   C     C_R   0.673234 0.141745 0.091319 -0.142321
C36   C     C_2   0.313952 0.225896 0.002176 0.476382
C37   C     C_2   0.671805 0.310751 0.924123 0.287021
C38   C     C_2   0.337899 0.320308 0.074553 0.285693
C39   C     C_2   0.171740 0.810834 0.924156 0.287003
C40   C     C_2   0.837911 0.820314 0.074588 0.285671
C41   C     C_R   0.907739 0.373546 0.093670 -0.128575
C42   C     C_R   0.095968 0.378713 0.906035 -0.097194
C43   C     C_R   0.407732 0.873556 0.093672 -0.128561
C44   C     C_R   0.595978 0.878718 0.906042 -0.097186
C45   C     C_2   0.752555 0.329457 0.011470 -0.246113
C46   C     C_R   0.821335 0.358610 0.004135 0.136978
C47   C     C_2   0.256947 0.340396 0.987866 -0.247803
C48   C     C_2   0.252528 0.829504 0.011497 -0.246159
C49   C     C_2   0.756973 0.840412 0.987893 -0.247821
C50   C     C_2   0.897339 0.472495 0.372501 -0.124746
C51   C     C_2   0.868401 0.470096 0.447053 -0.142736
C52   C     C_2   0.397311 0.972501 0.372483 -0.124759
C53   C     C_2   0.368383 0.970099 0.447044 -0.142770
C54   C     C_2   0.970057 0.503674 0.395971 -0.207989
C55   C     C_2   0.889053 0.511692 0.514893 -0.176806
C56   C     C_2   0.470026 0.003682 0.395947 -0.207970
C57   C     C_R   0.184751 0.365971 0.995665 0.130129
C58   C     C_2   0.389038 0.011693 0.514887 -0.176677
C59   C     C_R   0.010411 0.548093 0.277385 -0.156942
C60   C     C_R   0.949205 0.548281 0.697726 -0.188675
C61   C     C_R   0.510398 0.048095 0.277372 -0.156937
C62   C     C_R   0.449200 0.048280 0.697724 -0.188654
C63   C     C_R   0.730827 0.456642 0.730654 -0.152419
C64   C     C_R   0.263103 0.454978 0.289942 -0.159958
C65   C     C_R   0.230825 0.956653 0.730563 -0.152552
C66   C     C_R   0.763014 0.954965 0.290069 -0.160116
C67   C     C_R   0.019703 0.456873 0.286610 0.181121
C68   C     C_R   0.321315 0.858640 0.004144 0.136911
C69   C     C_R   0.945883 0.457665 0.693276 0.190015
C70   C     C_R   0.519688 0.956876 0.286603 0.181168
C71   C     C_R   0.445881 0.957665 0.693275 0.190038
C72   C     C_R   0.731490 0.548437 0.733799 -0.136020
C73   C     C_R   0.263885 0.546914 0.290300 -0.145471
C74   C     C_R   0.231512 0.048451 0.733701 -0.135993
C75   C     C_R   0.763815 0.046900 0.290463 -0.145362
C76   C     C_R   0.818860 0.371082 0.912219 -0.113480
C77   C     C_R   0.186260 0.376561 0.087931 -0.115387
C78   C     C_R   0.318835 0.871107 0.912223 -0.113479
C79   C     C_R   0.684766 0.865984 0.995677 0.130135
C80   C     C_R   0.686271 0.876578 0.087940 -0.115432
C81   C     C_R   0.927207 0.646664 0.090414 -0.124238
C82   C     C_R   0.080218 0.640792 0.907453 -0.128890
C83   C     C_R   0.427198 0.146659 0.090414 -0.124232
C84   C     C_R   0.580280 0.140752 0.907457 -0.128964
C85   C     C_R   0.853841 0.673651 0.000108 -0.043750
C86   C     C_R   0.157494 0.665012 0.997188 -0.045674
C87   C     C_R   0.353824 0.173641 0.000108 -0.043737
C88   C     C_R   0.657589 0.164948 0.997199 -0.045663
C89   C     C_3   0.559122 0.594745 0.388379 -0.922549
C90   C     C_R   0.001585 0.502840 0.325710 0.039970
C91   C     C_3   0.459659 0.648356 0.538890 -0.937926
C92   C     C_3   0.059087 0.093699 0.387124 -0.922390
C93   C     C_3   0.960078 0.148554 0.537209 -0.938190
C94   C     C_3   0.535784 0.317203 0.730446 -0.962024
C95   C     C_3   0.476143 0.326805 0.266760 -0.959157
C96   C     C_3   0.035485 0.817498 0.730649 -0.962070
C97   C     C_3   0.976071 0.826765 0.266864 -0.959110
C98   C     C_3   0.132002 0.381107 0.355527 -0.940593
C99   C     C_3   0.838920 0.381040 0.632760 -0.934794
C100  C     C_3   0.631960 0.881093 0.355548 -0.940673
H1    H     H_    0.790425 0.662052 0.824745 0.101425
H2    H     H_    0.947512 0.761415 0.104093 0.110533
H3    H     H_    0.620849 0.874937 0.275312 0.261373
H4    H     H_    0.444035 0.890599 0.605058 0.153172
H5    H     H_    0.327983 0.839095 0.598624 0.248844
H6    H     H_    0.279093 0.907607 0.572314 0.246660
H7    H     H_    0.342339 0.877986 0.709048 0.259560
H8    H     H_    0.563586 0.253456 0.897888 0.112671
H9    H     H_    0.447493 0.261414 0.104014 0.110541
H10   H     H_    0.777991 0.313418 0.092089 0.158599
H11   H     H_    0.232822 0.326271 0.906690 0.163321
H12   H     H_    0.277982 0.813446 0.092108 0.158655
H13   H     H_    0.732863 0.826295 0.906717 0.163349
H14   H     H_    0.865036 0.444498 0.303712 0.126249
H15   H     H_    0.843198 0.431381 0.455299 0.140256
H16   H     H_    0.365010 0.944502 0.303696 0.126250
H17   H     H_    0.220928 0.655850 0.174251 0.103295
H18   H     H_    0.343189 0.931382 0.455296 0.140248
H19   H     H_    0.005663 0.531319 0.465029 0.143576
H20   H     H_    0.897479 0.552476 0.492203 0.139998
H21   H     H_    0.505631 0.031329 0.465002 0.143570
H22   H     H_    0.397456 0.052478 0.492194 0.140000
H23   H     H_    0.933031 0.364724 0.176460 0.134863
H24   H     H_    0.072282 0.374418 0.822318 0.114831
H25   H     H_    0.433026 0.864728 0.176458 0.134874
H26   H     H_    0.572296 0.874422 0.822327 0.114847
H27   H     H_    0.006661 0.590637 0.294708 0.111261
H28   H     H_    0.290411 0.162047 0.824746 0.101385
H29   H     H_    0.932249 0.590762 0.672276 0.110967
H30   H     H_    0.506648 0.090640 0.294693 0.111256
H31   H     H_    0.432241 0.090762 0.672273 0.110974
H32   H     H_    0.707031 0.415751 0.700282 0.109870
H33   H     H_    0.280108 0.413160 0.319426 0.106402
H34   H     H_    0.207026 0.915758 0.700217 0.109892
H35   H     H_    0.779980 0.913136 0.319494 0.106376
H36   H     H_    0.711564 0.590792 0.711583 0.101691
H37   H     H_    0.281449 0.588900 0.317628 0.106679
H38   H     H_    0.211645 0.090811 0.711513 0.101559
H39   H     H_    0.721011 0.155797 0.174264 0.103316
H40   H     H_    0.781371 0.088887 0.317793 0.106660
H41   H     H_    0.767699 0.358267 0.829999 0.111481
H42   H     H_    0.242358 0.368318 0.171401 0.112371
H43   H     H_    0.267641 0.858310 0.830000 0.111428
H44   H     H_    0.742378 0.868359 0.171418 0.112419
H45   H     H_    0.967022 0.661011 0.173745 0.090001
H46   H     H_    0.043761 0.653223 0.822855 0.097445
H47   H     H_    0.467012 0.161008 0.173743 0.089997
H48   H     H_    0.543843 0.153179 0.822859 0.097473
H49   H     H_    0.383440 0.533251 0.568169 0.132675
H50   H     H_    0.511220 0.442831 0.668718 0.130109
H51   H     H_    0.601252 0.470561 0.478298 0.132862
H52   H     H_    0.883675 0.033962 0.568213 0.132686
H53   H     H_    0.100847 0.969830 0.478394 0.132782
H54   H     H_    0.439003 0.549180 0.287650 0.170979
H55   H     H_    0.541990 0.623281 0.321223 0.255394
H56   H     H_    0.610187 0.563557 0.397960 0.247941
H57   H     H_    0.591292 0.618781 0.464784 0.269281
H58   H     H_    0.562577 0.610325 0.683535 0.165555
H59   H     H_    0.484857 0.689753 0.574511 0.255208
H60   H     H_    0.398772 0.637958 0.541204 0.244266
H61   H     H_    0.454483 0.407221 0.456625 0.123163
H62   H     H_    0.437337 0.649717 0.452862 0.270354
H63   H     H_    0.938717 0.048226 0.287083 0.170996
H64   H     H_    0.041978 0.121973 0.319619 0.255360
H65   H     H_    0.109949 0.062299 0.396901 0.247944
H66   H     H_    0.091481 0.117962 0.463286 0.269372
H67   H     H_    0.062767 0.110812 0.682317 0.165487
H68   H     H_    0.985383 0.190018 0.572366 0.255154
H69   H     H_    0.899122 0.138433 0.539568 0.244191
H70   H     H_    0.937829 0.149579 0.451200 0.270526
H71   H     H_    0.321752 0.683302 0.072244 0.316853
H72   H     H_    0.011170 0.943442 0.669548 0.130067
H73   H     H_    0.688640 0.695583 0.914820 0.315951
H74   H     H_    0.821852 0.183248 0.072270 0.316869
H75   H     H_    0.188630 0.195559 0.914895 0.315937
H76   H     H_    0.627290 0.380799 0.825333 0.156732
H77   H     H_    0.512766 0.340513 0.654988 0.250738
H78   H     H_    0.481517 0.321611 0.747107 0.248823
H79   H     H_    0.543649 0.273440 0.716129 0.263876
H80   H     H_    0.378772 0.389211 0.174615 0.162891
H81   H     H_    0.500281 0.350269 0.342146 0.249560
H82   H     H_    0.527684 0.332282 0.246193 0.249186
H83   H     H_    0.954002 0.907052 0.457736 0.123136
H84   H     H_    0.472154 0.282861 0.283405 0.261632
H85   H     H_    0.127387 0.880936 0.825526 0.156835
H86   H     H_    0.012368 0.840880 0.655233 0.250788
H87   H     H_    0.981419 0.821965 0.747621 0.248835
H88   H     H_    0.043087 0.773734 0.716077 0.263843
H89   H     H_    0.878819 0.889214 0.174664 0.162859
H90   H     H_    0.000160 0.850222 0.342246 0.249643
H91   H     H_    0.027688 0.832216 0.246407 0.249165
H92   H     H_    0.971998 0.782824 0.283452 0.261635
H93   H     H_    0.049698 0.402562 0.410485 0.174363
H94   H     H_    0.063503 0.753528 0.897875 0.112667
H95   H     H_    0.146265 0.340353 0.395624 0.250960
H96   H     H_    0.193561 0.407757 0.408097 0.253408
H97   H     H_    0.120856 0.374936 0.275277 0.261375
H98   H     H_    0.944032 0.390595 0.605066 0.153160
H99   H     H_    0.827932 0.339115 0.598568 0.248833
H100  H     H_    0.779079 0.407636 0.572284 0.246682
H101  H     H_    0.842290 0.377998 0.709000 0.259542
H102  H     H_    0.549621 0.902562 0.410450 0.174379
H103  H     H_    0.646174 0.840331 0.395602 0.250965
H104  H     H_    0.693531 0.907724 0.408174 0.253441
N1    N     N_R   0.892320 0.603520 0.941090 -0.033489
N2    N     N_R   0.973240 0.529450 0.794410 -0.052036
N3    N     N_R   0.526760 0.029450 0.205590 -0.053330
N4    N     N_R   0.473240 0.029450 0.794410 -0.052035
N5    N     N_R   0.819350 0.473090 0.793940 -0.037809
N6    N     N_R   0.180650 0.473090 0.206060 -0.037566
N7    N     N_R   0.319350 0.973090 0.793940 -0.037808
N8    N     N_R   0.680650 0.973090 0.206060 -0.037561
N9    N     N_R   0.027860 0.473090 0.206590 -0.054617
N10   N     N_R   0.972140 0.473090 0.793410 -0.063007
N11   N     N_R   0.527860 0.973090 0.206590 -0.054610
N12   N     N_R   0.107680 0.603520 0.058910 -0.035365
N13   N     N_R   0.472140 0.973090 0.793410 -0.063007
N14   N     N_R   0.818250 0.529450 0.792940 -0.035587
N15   N     N_R   0.181750 0.529450 0.207060 -0.036398
N16   N     N_R   0.318250 0.029450 0.792940 -0.035580
N17   N     N_R   0.681750 0.029450 0.207060 -0.036422
N18   N     N_R   0.896320 0.399020 0.944720 -0.047660
N19   N     N_R   0.103680 0.399020 0.055280 -0.050006
N20   N     N_R   0.396320 0.899020 0.944720 -0.047653
N21   N     N_R   0.603680 0.899020 0.055280 -0.050006
N22   N     N_R   0.949790 0.603520 0.054810 -0.033950
N23   N     N_R   0.392320 0.103520 0.941090 -0.033487
N24   N     N_R   0.050210 0.603520 0.945190 -0.034625
N25   N     N_R   0.449790 0.103520 0.054810 -0.033958
N26   N     N_R   0.550210 0.103520 0.945190 -0.034631
N27   N     N_2   0.474513 0.568441 0.362382 -0.118864
N28   N     N_2   0.534326 0.608677 0.601211 -0.119738
N29   N     N_2   0.974411 0.067698 0.361601 -0.118859
N30   N     N_2   0.034621 0.108868 0.600046 -0.119699
N31   N     N_2   0.624147 0.338547 0.820824 -0.111456
N32   N     N_2   0.385020 0.346990 0.178476 -0.111816
N33   N     N_2   0.124050 0.838689 0.820914 -0.111425
N34   N     N_R   0.607680 0.103520 0.058910 -0.035387
N35   N     N_2   0.885011 0.846990 0.178515 -0.111813
N36   N     N_2   0.049800 0.405244 0.341631 -0.130064
N37   N     N_2   0.925774 0.402557 0.656647 -0.125751
N38   N     N_2   0.549755 0.905245 0.341617 -0.130070
N39   N     N_2   0.425786 0.902556 0.656651 -0.125752
N40   N     N_R   0.953790 0.399020 0.058440 -0.044787
N41   N     N_R   0.046210 0.399020 0.941560 -0.043191
N42   N     N_R   0.453790 0.899020 0.058440 -0.044785
N43   N     N_R   0.546210 0.899020 0.941560 -0.043195
N44   N     N_R   0.026760 0.529450 0.205590 -0.053336
Ni1   Ni    Ni4+2 0.934100 0.565890 0.869590 0.208249
Ni2   Ni    Ni4+2 0.065900 0.565890 0.130410 0.207234
Ni3   Ni    Ni4+2 0.434100 0.065890 0.869590 0.208265
Ni4   Ni    Ni4+2 0.565900 0.065890 0.130410 0.207210
Ni5   Ni    Ni4+2 0.068420 0.436630 0.132700 0.213724
Ni6   Ni    Ni4+2 0.931580 0.436630 0.867300 0.220051
Ni7   Ni    Ni4+2 0.568420 0.936630 0.132700 0.213718
Ni8   Ni    Ni4+2 0.431580 0.936630 0.867300 0.220050
O1    O     O_3   0.292264 0.719195 0.037920 -0.752181
O2    O     O_3   0.718182 0.730999 0.950211 -0.754905
O3    O     O_3   0.792359 0.219141 0.037950 -0.752144
O4    O     O_3   0.218171 0.230979 0.950264 -0.754892

loop_
_geom_bond_atom_site_label_1
_geom_bond_atom_site_label_2
_ccdc_geom_bond_type
N21   N43   A    
H67   N30   S    
C49   H13   S    
C21   C26   S    
C25   N28   S    
C99   N37   S    
N3    N11   A    
C5    C71   A    
C12   C22   S    
H54   N27   S    
N10   Ni6   S    
C99   H99   S    
C96   N33   S    
C96   H88   S    
N9    Ni5   S    
C14   C18   S    
C18   C26   S    
C15   H49   S    
N7    Ni8   S    
C60   N2    A    
C43   H25   S    
C46   C76   A    
C14   H83   S    
H93   N36   S    
C42   H24   S    
C12   H72   S    
C45   C46   S    
C3    H5    S    
C15   C19   S    
N7    N16   A    
C74   H38   S    
C11   C19   S    
C26   C27   S    
N12   N24   A    
C5    C58   S    
C70   N11   A    
C13   N12   A    
C32   O1    S    
C100  N38   S    
N11   Ni7   S    
C54   C90   S    
C40   N35   S    
C2    C55   S    
C38   N32   S    
C100  H103  S    
C2    C60   A    
C95   H84   S    
C89   H55   S    
H76   N31   S    
C98   N36   S    
N42   Ni7   S    
C43   N42   A    
C59   H27   S    
C40   C49   D    
H102  N38   S    
C29   C33   D    
C92   N29   S    
C11   H61   S    
C73   N15   A    
C51   H15   S    
C94   H78   S    
C62   N4    A    
C69   N37   S    
N2    Ni1   S    
C33   C85   S    
C77   H42   S    
C27   N30   S    
C35   H39   S    
C9    C66   A    
C92   H65   S    
C77   N19   A    
C97   H92   S    
H85   N33   S    
C93   H68   S    
C10   C20   S    
C43   C68   A    
C80   H44   S    
N15   Ni2   S    
C33   O2    S    
C34   O3    S    
C8    C22   S    
C41   C46   A    
C91   H62   S    
C59   N44   A    
C80   N21   A    
C24   N23   A    
C84   N26   A    
N3    Ni4   S    
C91   H59   S    
C65   H34   S    
C44   N43   A    
C16   C20   S    
H75   O4    S    
C55   H20   S    
C30   H8    S    
N43   Ni8   S    
N2    N10   A    
N18   Ni6   S    
C32   C86   S    
C8    C65   A    
C3    H6    S    
C54   H19   S    
C4    C56   S    
C1    C85   A    
C96   H87   S    
C64   N6    A    
C35   N34   A    
C63   N5    A    
C42   C57   A    
C4    C70   A    
C82   H46   S    
N44   Ni2   S    
C75   H40   S    
C37   N31   S    
N8    N17   A    
C84   H48   S    
C36   C87   S    
C68   C78   A    
C97   N35   S    
C93   H70   S    
C58   H22   S    
C81   N22   A    
C30   C34   D    
C41   N40   A    
C17   C27   S    
N24   Ni1   S    
C96   H86   S    
H71   O1    S    
N1    Ni1   S    
C7    C73   A    
C60   H29   S    
H58   N28   S    
H74   O3    S    
N18   N40   A    
C45   H10   S    
C95   H81   S    
C89   H56   S    
C3    N39   S    
C83   N25   A    
C28   C39   S    
C3    H7    S    
C82   C86   A    
C76   H41   S    
C82   N24   A    
C4    C61   A    
C67   C90   A    
C17   C21   S    
N6    N15   A    
C49   C79   S    
C30   C37   S    
C50   H14   S    
N4    Ni3   S    
C6    C63   A    
C99   H100  S    
N9    N44   A    
C19   C23   S    
C52   H16   S    
N6    Ni5   S    
H63   N29   S    
C57   C77   A    
N5    Ni6   S    
C47   C57   S    
C35   C88   A    
N19   Ni5   S    
C28   H94   S    
C42   N41   A    
N17   Ni4   S    
C28   C32   D    
C66   H35   S    
N21   Ni7   S    
C44   H26   S    
C89   N27   S    
C8    C74   A    
C50   C51   S    
C91   H60   S    
C98   H96   S    
N1    N22   A    
C6    C72   A    
C34   C88   S    
C63   H32   S    
C48   C68   S    
C59   C90   A    
H80   N32   S    
C38   C47   D    
C94   H77   S    
C18   H53   S    
C61   H30   S    
C61   N3    A    
C83   H47   S    
C26   N29   S    
N20   N42   A    
C97   H90   S    
C48   H12   S    
C12   C14   S    
C16   C23   S    
C7    C19   S    
N40   Ni5   S    
C22   C27   S    
N14   Ni1   S    
N26   N34   A    
C17   H52   S    
C95   N32   S    
N5    N14   A    
C37   C45   D    
N26   Ni3   S    
C2    C69   A    
C1    H1    S    
C39   N33   S    
C1    N1    A    
C52   C53   S    
N20   Ni8   S    
N23   Ni3   S    
H98   N37   S    
N4    N13   A    
N22   Ni2   S    
C5    C62   A    
C64   H33   S    
C93   H69   S    
C98   H97   S    
N34   Ni4   S    
C18   C22   S    
C31   H9    S    
C62   H31   S    
C44   C79   A    
C69   N10   A    
C84   C88   A    
C13   C86   A    
C67   N36   S    
C83   C87   A    
C10   H50   S    
C67   N9    A    
C13   H17   S    
C53   C58   D    
C95   H82   S    
C89   H57   S    
C93   N30   S    
H4    N39   S    
C72   N14   A    
N41   Ni6   S    
C81   H45   S    
C29   H2    S    
C71   N13   A    
C31   C38   S    
C91   N28   S    
C10   C15   S    
C76   N18   A    
C56   H21   S    
C41   H23   S    
N8    Ni7   S    
C92   H64   S    
C71   N39   S    
H73   O2    S    
C50   C54   D    
N23   N25   A    
C78   H43   S    
C70   N38   S    
C12   C17   S    
C100  H104  S    
C9    C21   S    
C73   H37   S    
C6    C20   S    
N19   N41   A    
C47   H11   S    
C29   C40   S    
C53   H18   S    
C98   H95   S    
C16   H51   S    
C51   C55   D    
C94   H79   S    
C100  H3    S    
C94   N31   S    
C24   C87   A    
C23   N27   S    
C7    C64   A    
C65   N7    A    
C11   C16   S    
C72   H36   S    
C10   C11   S    
C14   C21   S    
C79   C80   A    
C92   H66   S    
C97   H91   S    
C23   C25   S    
C81   C85   A    
C75   N17   A    
C15   C25   S    
N12   Ni2   S    
C20   C25   S    
N16   Ni3   S    
C74   N16   A    
N25   Ni4   S    
C24   H28   S    
C31   C36   D    
C9    C75   A    
C66   N8    A    
N13   Ni8   S    
C99   H101  S    
C52   C56   D    
C36   O4    S    
C78   N20   A    
C39   C48   D    
H89   N35   S    
