data_mof_unit_18147.cif
_audit_creation_date              2012-12-10T18:05:52-0500
_audit_creation_method            fapswitch 2.2
_symmetry_space_group_name_H-M    P1
_symmetry_Int_Tables_number       1
_space_group_crystal_system       triclinic
_cell_length_a                    12.626635
_cell_length_b                    13.112166
_cell_length_c                    14.874704
_cell_angle_alpha                 90.472658
_cell_angle_beta                  103.376
_cell_angle_gamma                 82.05989
_cell_volume                      2372.2001311

loop_
_atom_site_label
_atom_site_type_symbol
_atom_type_description
_atom_site_fract_x
_atom_site_fract_y
_atom_site_fract_z
_atom_type_partial_charge
C1    C     C_R   0.438519 0.691312 0.487107 0.841743
C2    C     C_R   0.476543 0.413351 0.088281 0.082460
C3    C     C_R   0.516436 0.686887 0.051292 0.369784
C4    C     C_R   0.522270 0.685217 0.958274 0.384513
C5    C     C_R   0.513306 0.592950 0.909364 -0.047810
C6    C     C_R   0.494198 0.503299 0.952024 -0.063068
C7    C     C_R   0.480309 0.411713 0.901948 0.034921
C8    C     C_R   0.465883 0.321439 0.945788 0.515454
C9    C     C_R   0.462058 0.323603 0.038459 -0.301235
C10   C     C_R   0.522335 0.588401 0.818002 -0.180619
C11   C     C_R   0.504009 0.499645 0.768783 -0.080600
C12   C     C_R   0.501473 0.499869 0.672840 0.863615
C13   C     C_R   0.481726 0.412344 0.809033 -0.190684
C14   C     C_R   0.692817 0.065755 0.426286 -0.177526
C15   C     C_R   0.597387 0.200176 0.501523 -0.056191
C16   C     C_R   0.305542 0.837559 0.513258 -0.181976
C17   C     C_R   0.280650 0.941833 0.527916 -0.142062
C18   C     C_R   0.352517 0.009311 0.516074 -0.168499
C19   C     C_R   0.448871 0.973550 0.484899 0.090618
C20   C     C_R   0.464774 0.870681 0.457320 0.081302
C21   C     C_R   0.529893 0.036324 0.479927 0.102521
C22   C     C_R   0.615638 0.001289 0.435085 0.153064
C23   C     C_R   0.561319 0.308779 0.509383 0.860630
C24   C     C_R   0.621536 0.903544 0.397870 -0.251617
C25   C     C_R   0.546957 0.838967 0.408628 -0.196680
C26   C     C_R   0.528308 0.133133 0.518891 -0.190057
C27   C     C_R   0.682306 0.166103 0.457820 -0.193175
C28   C     C_R   0.399282 0.801242 0.480846 -0.121508
C29   C     C_R   0.085293 0.345973 0.374873 -0.297155
C30   C     C_R   0.799490 0.627344 0.611255 -0.034128
C31   C     C_R   0.907292 0.646019 0.647004 -0.149934
C32   C     C_R   0.993566 0.588583 0.614006 -0.065900
C33   C     C_R   0.966929 0.522309 0.537335 -0.066599
C34   C     C_R   0.498694 0.500007 0.327178 0.854199
C35   C     C_R   0.856287 0.502469 0.509789 0.170530
C36   C     C_R   0.044173 0.472194 0.488308 -0.051812
C37   C     C_R   0.011048 0.396581 0.422215 0.062664
C38   C     C_R   0.902966 0.374743 0.401237 0.406176
C39   C     C_R   0.828099 0.426781 0.445938 -0.296936
C40   C     C_R   0.151312 0.497650 0.497602 -0.005441
C41   C     C_R   0.191029 0.370405 0.391001 0.102673
C42   C     C_R   0.478193 0.413088 0.181533 -0.196158
C43   C     C_R   0.495447 0.501640 0.231127 -0.049538
C44   C     C_R   0.511809 0.591317 0.190124 -0.220431
C45   C     C_R   0.506194 0.595109 0.095678 -0.057648
C46   C     C_R   0.491530 0.504257 0.045053 -0.000603
H1    H     H_    0.470459 0.343297 0.216621 0.137889
H2    H     H_    0.684389 0.876584 0.361060 0.167127
H3    H     H_    0.757732 0.040265 0.391231 0.158333
H4    H     H_    0.469640 0.161108 0.558967 0.138933
H5    H     H_    0.253918 0.784881 0.530645 0.184710
H6    H     H_    0.329140 0.089133 0.529705 0.157960
H7    H     H_    0.207852 0.969903 0.552399 0.167194
H8    H     H_    0.553550 0.764183 0.377534 0.166597
H9    H     H_    0.061036 0.288706 0.324004 0.194045
H10   H     H_    0.528384 0.657527 0.232438 0.162512
H11   H     H_    0.179554 0.561594 0.536974 0.153269
H12   H     H_    0.732803 0.667442 0.637956 0.175488
H13   H     H_    0.747631 0.405587 0.429345 0.218447
H14   H     H_    0.539298 0.654456 0.783303 0.179520
H15   H     H_    0.467565 0.344854 0.767721 0.165378
H16   H     H_    0.449390 0.254525 0.071769 0.168186
H17   H     H_    0.736019 0.218226 0.443434 0.186634
N1    N     N_R   0.222190 0.444670 0.452360 -0.149349
N2    N     N_R   0.776970 0.554790 0.547140 -0.122531
O1    O     O_R   0.366740 0.627160 0.477250 -0.615772
O2    O     O_R   0.544830 0.662520 0.507680 -0.619335
O3    O     O_R   0.410940 0.482340 0.616930 -0.604091
O4    O     O_R   0.589030 0.517700 0.647360 -0.607089
O5    O     O_R   0.455170 0.337480 0.492320 -0.587898
O6    O     O_R   0.633260 0.372840 0.522750 -0.636362
O7    O     O_R   0.410970 0.482300 0.352640 -0.584711
O8    O     O_R   0.589060 0.517660 0.383070 -0.653692
Zn1   Zn    Zn3+2 0.381090 0.476390 0.479680 0.986004
Zn2   Zn    Zn3+2 0.618910 0.523610 0.520320 0.936616
C47   C     C_2   0.262968 0.320222 0.334283 0.946275
O9    O     O_2   0.323630 0.240307 0.361747 -0.645204
O10   O     O_R   0.251158 0.357700 0.244390 -0.796007
H18   H     H_    0.293618 0.309661 0.207324 0.331386
O11   O     O_3   0.870962 0.298740 0.339582 -0.623161
C48   C     C_3   0.807031 0.345754 0.255653 0.088456
H19   H     H_    0.857730 0.389771 0.222404 0.160248
H20   H     H_    0.734178 0.398514 0.266349 0.151803
C49   C     C_3   0.765097 0.262875 0.190130 -0.812095
H21   H     H_    0.711620 0.219661 0.220626 0.249697
H22   H     H_    0.716565 0.298931 0.123278 0.212944
H23   H     H_    0.835351 0.208535 0.177234 0.264428
C50   C     C_2   0.106560 0.579222 0.673529 0.907050
O12   O     O_2   0.149116 0.496540 0.711763 -0.604682
O13   O     O_R   0.165715 0.662844 0.683295 -0.778359
H24   H     H_    0.242372 0.645608 0.724297 0.335511
C51   C     C_2   0.926473 0.720973 0.722524 0.925645
O14   O     O_2   0.871373 0.726464 0.780543 -0.619136
O15   O     O_R   0.003669 0.788380 0.725409 -0.752628
H25   H     H_    0.007969 0.836251 0.779619 0.343350
O16   O     O_3   0.527726 0.777291 0.099207 -0.578637
C52   C     C_3   0.422635 0.825124 0.106746 0.085847
H26   H     H_    0.390388 0.781731 0.155967 0.143644
H27   H     H_    0.361749 0.831217 0.038963 0.118318
C53   C     C_3   0.431460 0.933188 0.142920 -0.779587
H28   H     H_    0.460023 0.980067 0.093902 0.251630
H29   H     H_    0.349847 0.970735 0.150825 0.215176
H30   H     H_    0.490658 0.929682 0.211125 0.263074
O17   O     O_3   0.546211 0.771547 0.917897 -0.564267
C54   C     C_3   0.447969 0.829051 0.866461 0.087503
H31   H     H_    0.413994 0.885623 0.911956 0.163004
H32   H     H_    0.383568 0.780512 0.835012 0.124488
C55   C     C_3   0.473485 0.888730 0.788431 -0.783491
H33   H     H_    0.502543 0.834831 0.738461 0.244351
H34   H     H_    0.398211 0.939042 0.751303 0.218193
H35   H     H_    0.538171 0.937413 0.816666 0.264265
O18   O     O_3   0.451332 0.231580 0.897836 -0.608988
C56   C     C_3   0.555062 0.175354 0.896138 0.053642
H36   H     H_    0.622400 0.223852 0.902256 0.128004
H37   H     H_    0.547378 0.137758 0.828197 0.169446
C57   C     C_3   0.587915 0.091315 0.971513 -0.811922
H38   H     H_    0.521889 0.042079 0.964740 0.268834
H39   H     H_    0.664739 0.042608 0.964653 0.237744
H40   H     H_    0.602439 0.125917 0.040871 0.238925

loop_
_geom_bond_atom_site_label_1
_geom_bond_atom_site_label_2
_ccdc_geom_bond_type
C16   C28   A    
C12   O4    A    
C34   O7    A    
C55   H33   S    
C10   H14   S    
C19   C20   A    
C16   H5    S    
C21   C26   A    
C48   C49   S    
C52   H26   S    
C18   H6    S    
C7    C8    A    
C45   C46   A    
C2    C46   A    
C12   O3    A    
C5    C6    A    
C36   C37   A    
C19   C21   A    
C49   H22   S    
C26   H4    S    
C30   C31   A    
C14   H3    S    
C20   C25   A    
C35   N2    A    
O3    Zn1   S    
C32   C50   S    
C30   H12   S    
C33   C36   A    
C57   H38   S    
C18   C19   A    
O18   C56   S    
C52   H27   S    
C49   H21   S    
C57   H39   S    
C8    C9    A    
O5    Zn1   S    
C1    C28   S    
C49   H23   S    
C3    O16   S    
C14   C27   A    
C56   C57   S    
C15   C23   S    
C21   C22   A    
O8    Zn2   S    
C23   O5    A    
C53   H29   S    
O17   C54   S    
C48   H20   S    
C1    O1    A    
C47   O9    D    
C54   C55   S    
C9    H16   S    
C24   H2    S    
C23   O6    A    
C36   C40   A    
C24   C25   A    
O7    Zn1   S    
O10   H18   S    
C16   C17   A    
C15   C26   A    
C29   H9    S    
C3    C45   A    
C53   H30   S    
C48   H19   S    
C35   C39   A    
C43   C44   A    
C37   C38   A    
C54   H32   S    
C44   H10   S    
C15   C27   A    
C31   C32   A    
C7    C13   A    
C39   H13   S    
O16   C52   S    
C51   O15   S    
C17   C18   A    
C25   H8    S    
C27   H17   S    
C50   O13   S    
C22   C24   A    
O2    Zn2   S    
C42   C43   A    
C3    C4    A    
C17   H7    S    
C52   C53   S    
C44   C45   A    
C56   H36   S    
C40   H11   S    
C6    C46   A    
C29   C41   A    
C34   C43   S    
C47   O10   S    
O11   C48   S    
N2    Zn2   S    
C11   C12   S    
C55   H35   S    
C6    C7    A    
C1    O2    A    
C20   C28   A    
C54   H31   S    
C40   N1    A    
C57   H40   S    
C32   C33   A    
C14   C22   A    
C8    O18   S    
C5    C10   A    
C41   C47   S    
O6    Zn2   S    
C11   C13   A    
O13   H24   S    
C38   C39   A    
C38   O11   S    
C2    C42   A    
C4    O17   S    
C51   O14   D    
C33   C35   A    
C55   H34   S    
O4    Zn2   S    
C42   H1    S    
O15   H25   S    
C30   N2    A    
C10   C11   A    
C34   O8    A    
C4    C5    A    
C13   H15   S    
C50   O12   D    
C31   C51   S    
C29   C37   A    
N1    Zn1   S    
C53   H28   S    
C41   N1    A    
C2    C9    A    
C56   H37   S    
O1    Zn1   S    
