data_mof_unit_43791.cif
_audit_creation_date              2012-12-11T15:42:39-0500
_audit_creation_method            fapswitch 2.2
_symmetry_space_group_name_H-M    P1
_symmetry_Int_Tables_number       1
_space_group_crystal_system       triclinic
_cell_length_a                    6.930747
_cell_length_b                    14.562287
_cell_length_c                    16.205243
_cell_angle_alpha                 90.490679
_cell_angle_beta                  90.014153
_cell_angle_gamma                 90.005746
_cell_volume                      1635.4950643

loop_
_atom_site_label
_atom_site_type_symbol
_atom_type_description
_atom_site_fract_x
_atom_site_fract_y
_atom_site_fract_z
_atom_type_partial_charge
O1    O     O_R   0.505810 0.583360 0.413880 -0.540193
O2    O     O_R   0.175870 0.595480 0.585520 -0.543725
O3    O     O_R   0.005540 0.416640 0.586120 -0.538662
C1    C     C_R   0.344938 0.617602 0.614697 0.686734
O4    O     O_R   0.176100 0.594390 0.414490 -0.543117
O5    O     O_R   0.005770 0.415540 0.413870 -0.540310
C2    C     C_R   0.345189 0.616486 0.385715 0.687238
O6    O     O_R   0.505580 0.584460 0.586130 -0.540165
O7    O     O_3   0.339190 0.441320 0.500000 -0.368946
V1    V     V_3+5 0.064350 0.510890 0.500000 1.397222
O8    O     O_R   0.676050 0.404520 0.414480 -0.543683
C3    C     C_R   0.845110 0.382071 0.385730 0.687161
O9    O     O_R   0.675830 0.405610 0.585510 -0.547096
C4    C     C_R   0.844979 0.386058 0.615411 0.685516
V2    V     V_3+5 0.564340 0.489110 0.500000 1.398027
O10   O     O_3   0.839370 0.558680 0.500000 -0.370195
C5    C     C_2   0.723989 0.210418 0.786690 -0.104651
C6    C     C_2   0.887199 0.173186 0.816824 -0.276989
H1    H     H_    0.586236 0.192615 0.814195 0.130284
H2    H     H_    0.024157 0.184467 0.786395 0.165866
C7    C     C_2   0.718530 0.270466 0.712636 -0.125500
C8    C     C_2   0.860971 0.328597 0.690217 0.047727
H3    H     H_    0.586794 0.268141 0.676348 0.096686
C9    C     C_R   0.047441 0.222960 0.219436 -0.155386
H4    H     H_    0.188290 0.204366 0.195728 0.117025
C10   C     C_R   0.036154 0.286945 0.284240 -0.151270
H5    H     H_    0.168894 0.315842 0.308295 0.118954
C11   C     C_R   0.856394 0.313302 0.317350 -0.047239
C12   C     C_R   0.688236 0.273917 0.283792 -0.157077
H6    H     H_    0.547389 0.292511 0.307501 0.116542
C13   C     C_R   0.699524 0.209931 0.218988 -0.150004
H7    H     H_    0.566785 0.181033 0.194932 0.118900
C14   C     C_R   0.879285 0.183575 0.185877 -0.045926
C15   C     C_R   0.188249 0.723401 0.719105 -0.157796
H8    H     H_    0.047350 0.705203 0.695173 0.115707
C16   C     C_R   0.199607 0.785625 0.785431 -0.150531
H9    H     H_    0.066854 0.813689 0.810211 0.117728
C17   C     C_R   0.379361 0.811418 0.819074 -0.047517
C18   C     C_R   0.547413 0.773126 0.784374 -0.155751
H10   H     H_    0.688313 0.791313 0.808311 0.115780
C19   C     C_R   0.536056 0.710903 0.718048 -0.149248
H11   H     H_    0.668809 0.682833 0.693271 0.117769
C20   C     C_R   0.356309 0.685157 0.684372 -0.048233
C21   C     C_R   0.188455 0.723302 0.283761 -0.155480
H12   H     H_    0.047601 0.705038 0.307389 0.116492
C22   C     C_R   0.199740 0.786381 0.219058 -0.149993
H13   H     H_    0.066986 0.814861 0.195073 0.118493
C23   C     C_R   0.379418 0.812396 0.185939 -0.047094
C24   C     C_R   0.547482 0.773474 0.219515 -0.155373
H14   H     H_    0.688332 0.791741 0.195883 0.116456
C25   C     C_R   0.536197 0.710391 0.284221 -0.149907
H15   H     H_    0.668944 0.681909 0.308210 0.118767
C26   C     C_R   0.356515 0.684380 0.317340 -0.047744
O11   O     O_R   0.230120 0.912300 0.917180 -0.541707
O12   O     O_R   0.559740 0.902430 0.088770 -0.543636
O13   O     O_R   0.729930 0.081310 0.089370 -0.540908
C27   C     C_R   0.390686 0.880298 0.117568 0.685556
O14   O     O_R   0.559840 0.901330 0.917750 -0.543835
O15   O     O_R   0.730030 0.080210 0.917120 -0.537256
C28   C     C_R   0.390752 0.879098 0.888656 0.685066
O16   O     O_R   0.230020 0.913400 0.089430 -0.541044
O17   O     O_3   0.396460 0.055470 0.003290 -0.368009
V3    V     V_3+5 0.671360 0.985960 0.003250 1.402872
O18   O     O_R   0.059740 0.091300 0.917690 -0.542501
C29   C     C_R   0.891207 0.111429 0.888374 0.730711
O19   O     O_R   0.059640 0.092400 0.088720 -0.543512
C30   C     C_R   0.890579 0.114807 0.117497 0.688704
V4    V     V_3+5 0.171350 0.007820 0.003190 1.405691
O20   O     O_3   0.896380 0.938200 0.003220 -0.372370
N1    N     N_3   0.027545 0.341138 0.741920 -0.662470
H16   H     H_    0.150490 0.324770 0.707420 0.225570
H17   H     H_    0.035847 0.410551 0.758593 0.226806

loop_
_geom_bond_atom_site_label_1
_geom_bond_atom_site_label_2
_ccdc_geom_bond_type
O19   V4    S    
C19   H11   S    
C1    O6    A    
C23   C27   S    
C18   C19   A    
O11   C28   A    
C6    C29   S    
C10   H5    S    
O17   V3    S    
C3    C11   S    
O18   V4    S    
C11   C12   A    
C9    C10   A    
O5    C3    A    
C17   C18   A    
O11   V4    S    
O14   C28   A    
V2    O10   S    
C15   H8    S    
O8    V2    S    
C21   C26   A    
V3    O20   S    
V4    O20   S    
C24   C25   A    
O12   V3    S    
C13   C14   A    
N1    H16   S    
O1    V2    S    
O7    V1    S    
C15   C16   A    
O19   C30   A    
O9    C4    A    
C19   C20   A    
C21   C22   A    
C7    H3    S    
C22   C23   A    
C25   H15   S    
C9    H4    S    
C18   H10   S    
O4    C2    A    
C5    C7    S    
C25   C26   A    
O2    C1    A    
C12   H6    S    
C13   H7    S    
C5    C6    D    
O13   V3    S    
O3    C4    A    
C17   C28   S    
C23   C24   A    
O6    V2    S    
O9    V2    S    
C2    C26   S    
O2    V1    S    
C21   H12   S    
C14   C30   S    
O14   V3    S    
C22   H13   S    
C16   H9    S    
O1    C2    A    
O15   V3    S    
C15   C20   A    
O5    V1    S    
O8    C3    A    
C27   O16   A    
C1    C20   S    
O13   C30   A    
C10   C11   A    
C9    C14   A    
O17   V4    S    
O18   C29   A    
C4    C8    S    
O12   C27   A    
O7    V2    S    
O4    V1    S    
C12   C13   A    
O3    V1    S    
V1    O10   S    
O15   C29   A    
O16   V4    S    
C16   C17   A    
C5    H1    S    
C6    H2    S    
C24   H14   S    
N1    H17   S    
C7    C8    D    
C8    N1    S    
