data_mof_unit_65899.cif
_audit_creation_date              2012-12-10T17:56:48-0500
_audit_creation_method            fapswitch 2.2
_symmetry_space_group_name_H-M    P1
_symmetry_Int_Tables_number       1
_space_group_crystal_system       triclinic
_cell_length_a                    18.344699
_cell_length_b                    18.313458
_cell_length_c                    25.986614
_cell_angle_alpha                 90.006693
_cell_angle_beta                  89.986484
_cell_angle_gamma                 89.999895
_cell_volume                      8730.32934669

loop_
_atom_site_label
_atom_site_type_symbol
_atom_type_description
_atom_site_fract_x
_atom_site_fract_y
_atom_site_fract_z
_atom_type_partial_charge
C1    C     C_R   0.859859 0.140139 0.249977 0.787870
C2    C     C_R   0.743909 0.809642 0.783314 -0.183642
C3    C     C_R   0.491466 0.502677 0.053531 -0.080970
C4    C     C_R   0.003029 0.936846 0.473457 -0.209024
C5    C     C_R   0.997996 0.936784 0.526557 -0.208667
C6    C     C_R   0.502653 0.436820 0.973448 -0.208868
C7    C     C_R   0.497617 0.436802 0.026548 -0.208819
C8    C     C_2   0.041232 0.273190 0.451820 0.366336
C9    C     C_2   0.952263 0.272090 0.548433 0.366782
C10   C     C_2   0.543644 0.772795 0.951756 0.366515
C11   C     C_2   0.454641 0.772503 0.048359 0.366655
C12   C     C_R   0.743847 0.809726 0.216786 -0.189405
C13   C     C_R   0.256145 0.809730 0.783221 -0.189369
C14   C     C_R   0.756207 0.309747 0.716804 -0.183391
C15   C     C_R   0.243978 0.309573 0.283384 -0.183796
C16   C     C_R   0.243842 0.309732 0.716791 -0.189423
C17   C     C_R   0.756140 0.309724 0.283227 -0.189350
C18   C     C_R   0.809676 0.256285 0.716814 -0.172454
C19   C     C_R   0.190512 0.256106 0.283386 -0.173949
C20   C     C_R   0.190369 0.256270 0.716787 -0.184142
C21   C     C_R   0.140141 0.140138 0.750025 0.787735
C22   C     C_R   0.809613 0.256264 0.283233 -0.183792
C23   C     C_R   0.309614 0.756222 0.216748 -0.172995
C24   C     C_R   0.690442 0.756177 0.783313 -0.173427
C25   C     C_R   0.690375 0.756264 0.216781 -0.184007
C26   C     C_R   0.309618 0.756269 0.783227 -0.183939
C27   C     C_R   0.803704 0.196241 0.749980 -0.004601
C28   C     C_R   0.196300 0.196236 0.250035 -0.003840
C29   C     C_R   0.196272 0.196266 0.749997 0.005477
C30   C     C_R   0.803728 0.196266 0.250007 0.005230
C31   C     C_R   0.303702 0.696239 0.249975 -0.004335
C32   C     C_R   0.140154 0.140129 0.249985 0.786281
C33   C     C_R   0.696298 0.696239 0.750030 -0.004113
C34   C     C_R   0.696273 0.696265 0.249996 0.005381
C35   C     C_R   0.303728 0.696267 0.750006 0.005334
C36   C     C_R   0.743719 0.190174 0.783127 -0.187204
C37   C     C_R   0.256108 0.190334 0.216712 -0.187234
C38   C     C_R   0.256187 0.190244 0.783194 -0.189279
C39   C     C_R   0.743829 0.190248 0.216793 -0.189235
C40   C     C_R   0.243775 0.690230 0.283179 -0.187194
C41   C     C_R   0.756172 0.690270 0.716773 -0.187239
C42   C     C_R   0.756183 0.690248 0.283198 -0.189240
C43   C     C_R   0.859848 0.140129 0.750019 0.786439
C44   C     C_R   0.243825 0.690243 0.716797 -0.189271
C45   C     C_R   0.190312 0.743697 0.283180 -0.189750
C46   C     C_R   0.809637 0.743735 0.716770 -0.189790
C47   C     C_R   0.809655 0.743707 0.283199 -0.189526
C48   C     C_R   0.190351 0.743701 0.716794 -0.189654
C49   C     C_R   0.690256 0.243641 0.783128 -0.189727
C50   C     C_R   0.309573 0.243799 0.216709 -0.189814
C51   C     C_R   0.309659 0.243703 0.783195 -0.189574
C52   C     C_R   0.690356 0.243705 0.216790 -0.189604
C53   C     C_R   0.196238 0.803702 0.249974 0.002557
C54   C     C_R   0.359859 0.640140 0.749977 0.787829
C55   C     C_R   0.803764 0.803698 0.750027 0.002677
C56   C     C_R   0.803751 0.803718 0.249999 0.007330
C57   C     C_R   0.196248 0.803716 0.749999 0.007321
C58   C     C_R   0.696238 0.303703 0.749976 0.002405
C59   C     C_R   0.303765 0.303697 0.250030 0.002832
C60   C     C_R   0.303750 0.303718 0.750000 0.007371
C61   C     C_R   0.696248 0.303715 0.250000 0.007277
C62   C     C_R   0.066173 0.999928 0.026685 -0.188017
C63   C     C_R   0.933827 0.999932 0.973315 -0.188036
C64   C     C_R   0.933833 0.999933 0.026710 -0.188847
C65   C     C_R   0.640141 0.640137 0.250024 0.787775
C66   C     C_R   0.066167 0.999928 0.973290 -0.188849
C67   C     C_R   0.566173 0.499923 0.526685 -0.187988
C68   C     C_R   0.433827 0.499937 0.473315 -0.188070
C69   C     C_R   0.433833 0.499938 0.526710 -0.188857
C70   C     C_R   0.566167 0.499924 0.473290 -0.188842
C71   C     C_R   0.999994 0.999938 0.946298 0.007028
C72   C     C_R   0.000006 0.999938 0.053702 0.007030
C73   C     C_R   0.499994 0.499938 0.446298 0.007034
C74   C     C_R   0.500006 0.499938 0.553702 0.007027
C75   C     C_R   0.140131 0.859861 0.249988 0.788416
C76   C     C_R   0.640153 0.640130 0.749984 0.786341
C77   C     C_R   0.859870 0.859859 0.750011 0.788454
C78   C     C_R   0.859871 0.859865 0.249996 0.789656
C79   C     C_R   0.140128 0.859862 0.750003 0.789697
C80   C     C_R   0.640131 0.359862 0.749989 0.788466
C81   C     C_R   0.359870 0.359858 0.250011 0.788402
C82   C     C_R   0.359871 0.359865 0.749996 0.789641
C83   C     C_R   0.640128 0.359862 0.250003 0.789714
C84   C     C_R   0.000005 0.999959 0.109825 0.787900
C85   C     C_R   0.999995 0.999959 0.890175 0.787879
C86   C     C_R   0.500005 0.499959 0.609825 0.787911
C87   C     C_R   0.359847 0.640128 0.250018 0.786378
C88   C     C_R   0.499995 0.499959 0.390175 0.787867
C89   C     C_R   0.003769 0.000559 0.390117 0.791768
C90   C     C_R   0.996148 0.000513 0.609898 0.791475
C91   C     C_R   0.503801 0.500543 0.890112 0.791656
C92   C     C_R   0.496175 0.500528 0.109892 0.791588
C93   C     C_R   0.030727 0.137358 0.451979 -0.129870
C94   C     C_R   0.966021 0.136549 0.548207 -0.129610
C95   C     C_R   0.531929 0.637064 0.951923 -0.129772
C96   C     C_R   0.467195 0.636846 0.048145 -0.129670
C97   C     C_R   0.016265 0.204225 0.476382 -0.057150
C98   C     C_R   0.256148 0.809687 0.216743 -0.183542
C99   C     C_R   0.978842 0.203760 0.523829 -0.056112
C100  C     C_R   0.518069 0.704060 0.976323 -0.056779
C101  C     C_R   0.480631 0.703936 0.023766 -0.056506
C102  C     C_R   0.988784 0.069773 0.526036 0.047037
C103  C     C_R   0.009431 0.070025 0.474046 0.047250
C104  C     C_R   0.489430 0.569864 0.026009 0.047124
C105  C     C_R   0.510085 0.569934 0.974021 0.047163
C106  C     C_R   0.008339 0.002802 0.446492 -0.081044
C107  C     C_R   0.991363 0.002610 0.553543 -0.080914
C108  C     C_R   0.508449 0.502732 0.946479 -0.081009
H1    H     H_    0.003616 0.884883 0.453541 0.172604
H2    H     H_    0.738308 0.855502 0.809342 0.170805
H3    H     H_    0.738217 0.855631 0.190810 0.163475
H4    H     H_    0.261768 0.855638 0.809201 0.163513
H5    H     H_    0.761902 0.355688 0.690866 0.171015
H6    H     H_    0.238432 0.355378 0.309465 0.170681
H7    H     H_    0.238208 0.355640 0.690820 0.163427
H8    H     H_    0.761758 0.355629 0.309211 0.163568
H9    H     H_    0.117938 0.999926 0.046723 0.162498
H10   H     H_    0.882062 0.999933 0.953277 0.162497
H11   H     H_    0.882070 0.999934 0.046766 0.161659
H12   H     H_    0.998550 0.884816 0.546458 0.172646
H13   H     H_    0.117930 0.999926 0.953234 0.161659
H14   H     H_    0.617938 0.499917 0.546723 0.162511
H15   H     H_    0.382062 0.499942 0.453277 0.162482
H16   H     H_    0.382070 0.499943 0.546766 0.161657
H17   H     H_    0.617930 0.499918 0.453234 0.161660
H18   H     H_    0.042817 0.323857 0.473284 0.049401
H19   H     H_    0.949432 0.322713 0.526990 0.049336
H20   H     H_    0.545684 0.823447 0.973216 0.049363
H21   H     H_    0.452310 0.823155 0.026922 0.049349
H22   H     H_    0.855569 0.262041 0.690912 0.206353
H23   H     H_    0.502823 0.384854 0.953533 0.172630
H24   H     H_    0.144778 0.261711 0.309452 0.204273
H25   H     H_    0.144546 0.261981 0.690816 0.171823
H26   H     H_    0.855423 0.261970 0.309217 0.172632
H27   H     H_    0.355455 0.761926 0.190791 0.205627
H28   H     H_    0.644649 0.761841 0.809319 0.205037
H29   H     H_    0.644555 0.761971 0.190807 0.172105
H30   H     H_    0.355432 0.761980 0.809207 0.172316
H31   H     H_    0.738031 0.144228 0.809062 0.163317
H32   H     H_    0.261651 0.144525 0.190635 0.163256
H33   H     H_    0.261820 0.144333 0.809164 0.162141
H34   H     H_    0.497756 0.384834 0.046451 0.172626
H35   H     H_    0.738210 0.144341 0.190810 0.162143
H36   H     H_    0.238134 0.644331 0.309160 0.163312
H37   H     H_    0.761769 0.644407 0.690748 0.163262
H38   H     H_    0.761813 0.644341 0.309171 0.162166
H39   H     H_    0.238201 0.644333 0.690818 0.162119
H40   H     H_    0.144481 0.737996 0.309157 0.162068
H41   H     H_    0.855423 0.738069 0.690750 0.162044
H42   H     H_    0.855478 0.737993 0.309166 0.161864
H43   H     H_    0.144534 0.737983 0.690821 0.161789
H44   H     H_    0.644378 0.237895 0.809059 0.162077
H45   H     H_    0.062297 0.138567 0.416930 0.205226
H46   H     H_    0.355306 0.238186 0.190636 0.162033
H47   H     H_    0.355485 0.237985 0.809159 0.161835
H48   H     H_    0.644543 0.237992 0.190813 0.161816
H49   H     H_    0.934670 0.136921 0.583373 0.204239
H50   H     H_    0.563424 0.637963 0.916833 0.204857
H51   H     H_    0.435754 0.637520 0.083265 0.204602
H52   H     H_    0.261795 0.855582 0.190758 0.170903
O1    O     O_3   1.000000 0.000000 0.249960 -0.477117
O2    O     O_R   0.585480 0.646190 0.219690 -0.638338
O3    O     O_R   0.585480 0.646190 0.780310 -0.637800
O4    O     O_R   0.414520 0.646190 0.219690 -0.637741
O5    O     O_R   0.085470 0.853840 0.280350 -0.650536
O6    O     O_R   0.914530 0.853840 0.719650 -0.650520
O7    O     O_R   0.914530 0.853840 0.280350 -0.648156
O8    O     O_R   0.085470 0.853840 0.719650 -0.648217
O9    O     O_R   0.585470 0.353840 0.780350 -0.650526
O10   O     O_R   0.414530 0.353840 0.219650 -0.650531
O11   O     O_R   0.414530 0.353840 0.780350 -0.648177
O12   O     O_3   1.000000 0.000000 0.750040 -0.477111
O13   O     O_R   0.585470 0.353840 0.219650 -0.648195
O14   O     O_R   0.853820 0.914550 0.219610 -0.648649
O15   O     O_R   0.146180 0.914550 0.780390 -0.648620
O16   O     O_R   0.146180 0.914550 0.219610 -0.648034
O17   O     O_R   0.853820 0.914550 0.780390 -0.648035
O18   O     O_R   0.353820 0.414550 0.719610 -0.648649
O19   O     O_R   0.646180 0.414550 0.280390 -0.648619
O20   O     O_R   0.646180 0.414550 0.719610 -0.648030
O21   O     O_R   0.353820 0.414550 0.280390 -0.648042
O22   O     O_R   0.146180 0.085440 0.219600 -0.650032
O23   O     O_3   0.500000 0.500000 0.749960 -0.477115
O24   O     O_R   0.853820 0.085440 0.780400 -0.650039
O25   O     O_R   0.853820 0.085440 0.219600 -0.650261
O26   O     O_R   0.146180 0.085440 0.780400 -0.650201
O27   O     O_R   0.646180 0.585440 0.719600 -0.650049
O28   O     O_R   0.353820 0.585440 0.280400 -0.650021
O29   O     O_R   0.353820 0.585440 0.719600 -0.650249
O30   O     O_R   0.646180 0.585440 0.280400 -0.650211
O31   O     O_R   0.939280 0.999970 0.134160 -0.648997
O32   O     O_R   0.060720 0.999970 0.865840 -0.648991
O33   O     O_R   0.060720 0.999970 0.134160 -0.647987
O34   O     O_3   0.500000 0.500000 0.250040 -0.477112
O35   O     O_R   0.939280 0.999970 0.865840 -0.647996
O36   O     O_R   0.439280 0.499970 0.634160 -0.649001
O37   O     O_R   0.560720 0.499970 0.365840 -0.648987
O38   O     O_R   0.560720 0.499970 0.634160 -0.647963
O39   O     O_R   0.439280 0.499970 0.365840 -0.648022
O40   O     O_R   0.000000 0.060760 0.365770 -0.649728
O41   O     O_R   0.000000 0.060760 0.634230 -0.649063
O42   O     O_R   0.500000 0.560760 0.865770 -0.649487
O43   O     O_R   0.500000 0.560760 0.134230 -0.649293
O44   O     O_R   0.000000 0.939310 0.365780 -0.643996
O45   O     O_R   0.914520 0.146190 0.280310 -0.638010
O46   O     O_R   0.000000 0.939310 0.634220 -0.644214
O47   O     O_R   0.500000 0.439310 0.865780 -0.644070
O48   O     O_R   0.500000 0.439310 0.134220 -0.644145
O49   O     O_2   0.061504 0.274123 0.407049 -0.582074
O50   O     O_2   0.932033 0.272514 0.593215 -0.583682
O51   O     O_2   0.563918 0.773541 0.906984 -0.582659
O52   O     O_2   0.434346 0.773102 0.093127 -0.583109
O53   O     O_R   0.085480 0.146190 0.719690 -0.638518
O54   O     O_R   0.085480 0.146190 0.280310 -0.637873
O55   O     O_R   0.914520 0.146190 0.719690 -0.637672
O56   O     O_R   0.414520 0.646190 0.780310 -0.638204
Zn1   Zn    Zn3+2 0.000000 0.913250 0.293350 0.965208
Zn2   Zn    Zn3+2 0.586770 0.499990 0.293420 0.966620
Zn3   Zn    Zn3+2 0.586770 0.499990 0.706580 0.965554
Zn4   Zn    Zn3+2 0.413230 0.499990 0.293420 0.965488
Zn5   Zn    Zn3+2 0.000000 0.086780 0.293330 0.988406
Zn6   Zn    Zn3+2 0.000000 0.086780 0.706670 0.988115
Zn7   Zn    Zn3+2 0.500000 0.586780 0.793330 0.988297
Zn8   Zn    Zn3+2 0.500000 0.586780 0.206670 0.988221
Zn9   Zn    Zn3+2 0.000000 0.913250 0.706650 0.965123
Zn10  Zn    Zn3+2 0.500000 0.413250 0.793350 0.965170
Zn11  Zn    Zn3+2 0.500000 0.413250 0.206650 0.965159
Zn12  Zn    Zn3+2 0.913230 0.999990 0.206580 0.966614
Zn13  Zn    Zn3+2 0.086770 0.999990 0.793420 0.966591
Zn14  Zn    Zn3+2 0.086770 0.999990 0.206580 0.965546
Zn15  Zn    Zn3+2 0.913230 0.999990 0.793420 0.965501
Zn16  Zn    Zn3+2 0.413230 0.499990 0.706580 0.966587

loop_
_geom_bond_atom_site_label_1
_geom_bond_atom_site_label_2
_ccdc_geom_bond_type
C3    C104  A    
C88   O37   A    
C4    H1    S    
O55   Zn6   S    
C65   O30   A    
O31   Zn12  S    
O15   Zn13  S    
C54   O29   A    
O1    Zn1   S    
C45   H40   S    
C57   C79   S    
C25   H29   S    
O38   Zn3   S    
C34   C42   A    
C81   O21   A    
C94   C99   A    
C43   O55   A    
C93   C103  A    
C59   C81   S    
C29   C38   A    
C21   O26   A    
O34   Zn2   S    
O26   Zn13  S    
O27   Zn3   S    
C8    O49   D    
C85   O32   A    
C54   O56   A    
O39   Zn4   S    
C51   H47   S    
C78   O7    A    
C9    H19   S    
C64   H11   S    
C22   H26   S    
C50   C59   A    
C80   O20   A    
C88   O39   A    
C32   O22   A    
C90   C107  S    
C13   H4    S    
C3    C7    A    
C52   C61   A    
O48   Zn11  S    
C55   C77   S    
C13   C57   A    
C95   H50   S    
C11   H21   S    
C43   O24   A    
C44   H39   S    
C56   C78   S    
C31   C40   A    
C34   C65   S    
C84   O31   A    
C16   C60   A    
O45   Zn5   S    
C14   C18   A    
C1    C30   S    
C62   H9    S    
O14   Zn12  S    
C95   C105  A    
C17   C61   A    
C90   O46   A    
C60   C82   S    
O22   Zn14  S    
O36   Zn16  S    
C68   C69   A    
C37   H32   S    
O1    Zn5   S    
C46   C55   A    
C30   C39   A    
C41   C46   A    
C47   H42   S    
C91   C108  S    
C20   H25   S    
C10   O51   D    
C1    O45   A    
C84   O33   A    
C49   H44   S    
O5    Zn1   S    
C25   C34   A    
C90   O41   A    
C32   O54   A    
C24   H28   S    
C87   O4    A    
C45   C53   A    
C9    C99   S    
C71   C85   S    
C96   C101  A    
C35   C54   S    
C23   C98   A    
C53   C75   S    
O33   Zn14  S    
O21   Zn4   S    
C10   H20   S    
O30   Zn2   S    
O23   Zn10  S    
C104  C105  A    
C97   C99   A    
O12   Zn15  S    
C6    C7    A    
C80   O9    A    
C20   C29   A    
O28   Zn4   S    
O32   Zn13  S    
C14   C58   A    
C105  C108  A    
C15   H6    S    
C31   C87   S    
C62   C66   A    
C5    H12   S    
C62   C72   A    
C79   O15   A    
C48   C57   A    
O29   Zn16  S    
C86   O36   A    
C11   C101  S    
C61   C83   S    
O8    Zn9   S    
C63   H10   S    
C95   C100  A    
C85   O35   A    
O34   Zn4   S    
C38   C51   A    
C69   H16   S    
C68   C73   A    
O25   Zn12  S    
C4    C106  A    
C16   H7    S    
C77   O17   A    
C49   C58   A    
C63   C64   A    
C3    C92   S    
C23   C31   A    
O34   Zn11  S    
C65   O2    A    
C15   C19   A    
C8    C97   S    
C73   C88   S    
O18   Zn16  S    
C92   O48   A    
O54   Zn5   S    
C11   O52   D    
O12   Zn9   S    
O4    Zn8   S    
O47   Zn10  S    
O41   Zn6   S    
C66   C71   A    
O11   Zn10  S    
C28   C32   S    
C9    O50   D    
C16   C20   A    
O16   Zn14  S    
C82   O18   A    
O46   Zn9   S    
C7    H34   S    
C66   H13   S    
O35   Zn15  S    
C69   C74   A    
C75   O5    A    
C67   C74   A    
C12   C56   A    
C81   O10   A    
C74   C86   S    
C10   C100  S    
C19   C28   A    
C76   O27   A    
C35   C44   A    
C89   O44   A    
C72   C84   S    
C92   O43   A    
C86   O38   A    
C70   H17   S    
C8    H18   S    
C63   C71   A    
C23   H27   S    
C94   H49   S    
O3    Zn7   S    
C83   O13   A    
O19   Zn2   S    
O13   Zn11  S    
C79   O8    A    
C89   C106  S    
C21   O53   A    
C13   C26   A    
C18   H22   S    
C70   C73   A    
O40   Zn5   S    
O37   Zn2   S    
C42   H38   S    
C67   H14   S    
C102  C107  A    
C96   C104  A    
O34   Zn8   S    
C5    C107  A    
C19   H24   S    
C89   O40   A    
C82   O11   A    
C2    H2    S    
O23   Zn3   S    
C22   C30   A    
O53   Zn6   S    
C75   O16   A    
C15   C59   A    
O42   Zn7   S    
O1    Zn12  S    
C18   C27   A    
C24   C33   A    
O24   Zn15  S    
C98   H52   S    
C4    C5    A    
C26   H30   S    
O17   Zn15  S    
C91   O47   A    
O12   Zn13  S    
C87   O28   A    
C1    O25   A    
C53   C98   A    
C52   H48   S    
C14   H5    S    
C12   C25   A    
C17   C22   A    
C6    H23   S    
C39   H35   S    
C83   O19   A    
O44   Zn1   S    
C2    C55   A    
C27   C36   A    
C33   C41   A    
C58   C80   S    
C67   C70   A    
C40   H36   S    
C77   O6    A    
O56   Zn7   S    
C68   H15   S    
C2    C24   A    
C37   C50   A    
C96   H51   S    
C21   C29   S    
C28   C37   A    
C50   H46   S    
O6    Zn9   S    
C93   H45   S    
C100  C101  A    
C38   H33   S    
C93   C97   A    
O43   Zn8   S    
C39   C52   A    
C103  C106  A    
C42   C47   A    
C64   C72   A    
C102  C103  A    
C36   H31   S    
C76   O3    A    
C91   O42   A    
O12   Zn6   S    
O1    Zn14  S    
C27   C43   S    
C26   C35   A    
C33   C76   S    
C41   H37   S    
C40   C45   A    
C94   C102  A    
O23   Zn7   S    
C48   H43   S    
C78   O14   A    
C6    C108  A    
O9    Zn10  S    
O20   Zn3   S    
O2    Zn8   S    
C51   C60   A    
C46   H41   S    
O10   Zn11  S    
O23   Zn16  S    
O7    Zn1   S    
C12   H3    S    
C36   C49   A    
C44   C48   A    
C17   H8    S    
C47   C56   A    
