data_mof_unit_55111.cif
_audit_creation_date              2012-12-11T14:03:55-0500
_audit_creation_method            fapswitch 2.2
_symmetry_space_group_name_H-M    P1
_symmetry_Int_Tables_number       1
_space_group_crystal_system       triclinic
_cell_length_a                    18.994167
_cell_length_b                    11.010891
_cell_length_c                    18.813
_cell_angle_alpha                 90.172063
_cell_angle_beta                  89.762935
_cell_angle_gamma                 89.909466
_cell_volume                      3934.54525131

loop_
_atom_site_label
_atom_site_type_symbol
_atom_type_description
_atom_site_fract_x
_atom_site_fract_y
_atom_site_fract_z
_atom_type_partial_charge
C1    C     C_R   0.239625 0.467669 0.646459 0.552991
C2    C     C_R   0.772648 0.512296 0.362273 0.560137
C3    C     C_R   0.739625 0.967669 0.646459 0.552990
C4    C     C_R   0.272645 0.012285 0.362274 0.560128
C5    C     C_2   0.307046 0.892306 0.547390 -0.163405
C6    C     C_2   0.712613 0.839625 0.464040 -0.163641
C7    C     C_2   0.807044 0.392298 0.547388 -0.163402
C8    C     C_2   0.212613 0.339626 0.464039 -0.163639
C9    C     C_R   0.009681 0.665580 0.423448 -0.003659
C10   C     C_R   0.995707 0.658792 0.573017 -0.001678
C11   C     C_R   0.509681 0.165581 0.423447 -0.003659
C12   C     C_R   0.495707 0.158792 0.573017 -0.001678
C13   C     C_R   0.013080 0.888399 0.428777 0.299171
C14   C     C_R   0.966956 0.878499 0.571941 0.278148
C15   C     C_R   0.513077 0.388401 0.428778 0.299175
C16   C     C_R   0.466954 0.378498 0.571942 0.278148
C17   C     C_R   0.991201 0.994317 0.464583 -0.156940
C18   C     C_R   0.964203 0.987691 0.533151 -0.167777
C19   C     C_R   0.491198 0.494318 0.464584 -0.156940
C20   C     C_R   0.464201 0.487691 0.533153 -0.167777
C21   C     C_R   0.989724 0.771285 0.536821 -0.016874
C22   C     C_R   0.004141 0.775280 0.462666 -0.009882
C23   C     C_R   0.489723 0.271285 0.536822 -0.016874
C24   C     C_R   0.504139 0.275281 0.462666 -0.009877
C25   C     C_R   0.999577 0.549978 0.532071 0.003421
C26   C     C_R   0.019705 0.556357 0.460381 -0.001819
C27   C     C_R   0.499579 0.049978 0.532071 0.003415
C28   C     C_R   0.519707 0.056358 0.460380 -0.001824
C29   C     C_R   0.986914 0.433591 0.561212 -0.082708
C30   C     C_R   0.044344 0.450536 0.425654 -0.066645
C31   C     C_R   0.486916 0.933591 0.561211 -0.082715
C32   C     C_R   0.544345 0.950537 0.425653 -0.066642
C33   C     C_R   0.007559 0.328921 0.524925 -0.147098
C34   C     C_R   0.038479 0.337728 0.458056 -0.127771
C35   C     C_R   0.507561 0.828920 0.524923 -0.147096
C36   C     C_R   0.538481 0.837729 0.458054 -0.127765
C37   C     C_2   0.239750 0.903565 0.926648 -0.071374
C38   C     C_2   0.759991 0.902867 0.073375 -0.072379
C39   C     C_2   0.739750 0.403564 0.926648 -0.071374
C40   C     C_2   0.259990 0.402868 0.073376 -0.072380
C41   C     C_2   0.248725 0.892914 0.085371 0.251659
C42   C     C_2   0.751276 0.893107 0.914403 0.253970
C43   C     C_2   0.748725 0.392914 0.085371 0.251659
C44   C     C_2   0.251274 0.393111 0.914404 0.253972
C45   C     C_R   0.228538 0.878305 0.649780 0.557458
C46   C     C_R   0.772846 0.873994 0.352589 0.547431
C47   C     C_R   0.728539 0.378306 0.649781 0.557458
C48   C     C_R   0.272846 0.373994 0.352589 0.547434
C49   C     C_2   0.191249 0.919387 0.047644 -0.131699
C50   C     C_2   0.808397 0.920119 0.952545 -0.132509
C51   C     C_2   0.691248 0.419386 0.047644 -0.131695
C52   C     C_2   0.308396 0.420116 0.952545 -0.132514
C53   C     C_2   0.185669 0.890928 0.972567 -0.131939
C54   C     C_2   0.814048 0.890543 0.027355 -0.133254
C55   C     C_2   0.685669 0.390928 0.972567 -0.131936
C56   C     C_2   0.314046 0.390540 0.027356 -0.133257
C57   C     C_2   0.003148 0.663040 0.922535 -0.062077
C58   C     C_2   0.997190 0.662499 0.077692 -0.061429
C59   C     C_2   0.503147 0.163040 0.922534 -0.062078
C60   C     C_2   0.497188 0.162499 0.077691 -0.061428
C61   C     C_2   0.008247 0.562464 0.038330 0.210355
C62   C     C_2   0.991635 0.562927 0.961366 0.210521
C63   C     C_2   0.508245 0.062464 0.038329 0.210355
C64   C     C_2   0.491632 0.062929 0.961365 0.210514
C65   C     C_R   0.027504 0.654335 0.645603 0.575979
C66   C     C_R   0.973457 0.655530 0.353386 0.550560
C67   C     C_R   0.527504 0.154335 0.645603 0.575982
C68   C     C_R   0.473457 0.155530 0.353386 0.550554
C69   C     C_R   0.239154 0.462966 0.849584 0.540643
C70   C     C_R   0.760822 0.462671 0.150422 0.547543
C71   C     C_R   0.739154 0.962965 0.849584 0.540634
C72   C     C_R   0.260822 0.962671 0.150422 0.547536
C73   C     C_R   0.226459 0.872298 0.853573 0.536721
C74   C     C_R   0.773534 0.871946 0.146402 0.540326
C75   C     C_R   0.726459 0.372298 0.853573 0.536717
C76   C     C_R   0.273534 0.371946 0.146402 0.540324
C77   C     C_R   0.028678 0.652659 0.850409 0.572551
C78   C     C_R   0.971456 0.652396 0.149709 0.572883
C79   C     C_R   0.528678 0.152659 0.850409 0.572550
C80   C     C_R   0.471456 0.152396 0.149709 0.572879
C81   C     C_2   0.255907 0.940699 0.587715 -0.111522
C82   C     C_2   0.751271 0.914158 0.423004 -0.109396
C83   C     C_2   0.755909 0.440701 0.587716 -0.111518
C84   C     C_2   0.251271 0.414158 0.423004 -0.109397
C85   C     C_2   0.263273 0.970453 0.434702 -0.106444
C86   C     C_2   0.754541 0.909014 0.578922 -0.103820
C87   C     C_2   0.763277 0.470482 0.434705 -0.106438
C88   C     C_2   0.254541 0.409015 0.578922 -0.103818
C89   C     C_2   0.317990 0.933752 0.474175 -0.165649
C90   C     C_2   0.702391 0.863356 0.539705 -0.167160
C91   C     C_2   0.817989 0.433741 0.474173 -0.165640
C92   C     C_2   0.202390 0.363357 0.539704 -0.167159
Cr1   Cr    Cr6+3 0.113970 0.508630 0.747920 1.012177
Cr2   Cr    Cr6+3 0.886030 0.508630 0.252080 1.012093
Cr3   Cr    Cr6+3 0.613970 0.008630 0.747920 1.012180
Cr4   Cr    Cr6+3 0.386030 0.008630 0.252080 1.012096
Cr5   Cr    Cr6+3 0.269200 0.666740 0.749850 0.998562
Cr6   Cr    Cr6+3 0.730800 0.666740 0.250150 0.992083
Cr7   Cr    Cr6+3 0.769200 0.166740 0.749850 0.998563
Cr8   Cr    Cr6+3 0.230800 0.166740 0.250150 0.992082
Cr9   Cr    Cr6+3 0.112300 0.820070 0.749800 0.984918
Cr10  Cr    Cr6+3 0.887700 0.820070 0.250200 0.984012
Cr11  Cr    Cr6+3 0.612300 0.320070 0.749800 0.984922
Cr12  Cr    Cr6+3 0.387700 0.320070 0.250200 0.984011
H1    H     H_    0.370384 0.926569 0.451206 0.170104
H2    H     H_    0.650737 0.847097 0.562498 0.168435
H3    H     H_    0.870378 0.426513 0.451196 0.170103
H4    H     H_    0.150736 0.347098 0.562498 0.168435
H5    H     H_    0.133542 0.865888 0.953956 0.130711
H6    H     H_    0.866234 0.865378 0.045771 0.130188
H7    H     H_    0.633542 0.365888 0.953956 0.130711
H8    H     H_    0.366233 0.365371 0.045771 0.130189
H9    H     H_    0.292123 0.931437 0.942592 0.163597
H10   H     H_    0.707509 0.930408 0.057496 0.163306
H11   H     H_    0.792123 0.431435 0.942592 0.163598
H12   H     H_    0.207509 0.430414 0.057497 0.163308
H13   H     H_    0.986088 0.749631 0.053688 0.019102
H14   H     H_    0.014691 0.749847 0.946943 0.018678
H15   H     H_    0.486087 0.249631 0.053687 0.019102
H16   H     H_    0.514691 0.249847 0.946943 0.018679
H17   H     H_    0.337765 0.815348 0.565790 0.144409
H18   H     H_    0.688450 0.758301 0.442359 0.146665
H19   H     H_    0.837756 0.315329 0.565785 0.144408
H20   H     H_    0.188449 0.258302 0.442359 0.146668
H21   H     H_    0.210133 0.972035 0.456343 0.123956
H22   H     H_    0.806962 0.919775 0.556426 0.135960
H23   H     H_    0.710140 0.472106 0.456352 0.123941
H24   H     H_    0.306962 0.419775 0.556426 0.135959
H25   H     H_    0.227432 0.020812 0.570150 0.106584
H26   H     H_    0.774883 0.995974 0.444781 0.110799
H27   H     H_    0.727441 0.520823 0.570157 0.106577
H28   H     H_    0.274883 0.495974 0.444781 0.110799
H29   H     H_    0.993334 0.082264 0.439745 0.089508
H30   H     H_    0.941284 0.068704 0.555739 0.091754
H31   H     H_    0.493331 0.582265 0.439747 0.089512
H32   H     H_    0.441283 0.568703 0.555741 0.091754
H33   H     H_    0.067000 0.455013 0.372770 0.130386
H34   H     H_    0.961711 0.422875 0.612524 0.133887
H35   H     H_    0.567002 0.955016 0.372769 0.130387
H36   H     H_    0.461713 0.922873 0.612523 0.133887
H37   H     H_    0.001914 0.241691 0.550008 0.096168
H38   H     H_    0.057203 0.257476 0.430694 0.091452
H39   H     H_    0.501915 0.741690 0.550006 0.096169
H40   H     H_    0.557204 0.757478 0.430692 0.091454
H41   H     H_    0.147042 0.967823 0.071262 0.103801
H42   H     H_    0.852308 0.969592 0.929447 0.104409
H43   H     H_    0.647041 0.467822 0.071263 0.103802
H44   H     H_    0.352309 0.469583 0.929446 0.104406
O1    O     O_R   0.043230 0.549300 0.667990 -0.538529
O2    O     O_R   0.956770 0.549300 0.332010 -0.542569
O3    O     O_R   0.543230 0.049300 0.667990 -0.538528
O4    O     O_R   0.456770 0.049300 0.332010 -0.542568
O5    O     O_R   0.262920 0.788600 0.824420 -0.477257
O6    O     O_R   0.737080 0.788600 0.175580 -0.475328
O7    O     O_R   0.762920 0.288600 0.824420 -0.477257
O8    O     O_R   0.237080 0.288600 0.175580 -0.475327
O9    O     O_R   0.167530 0.905110 0.830340 -0.545705
O10   O     O_R   0.832470 0.905110 0.169660 -0.542209
O11   O     O_R   0.667530 0.405110 0.830340 -0.545705
O12   O     O_R   0.332470 0.405110 0.169660 -0.542208
O13   O     O_R   0.054010 0.748440 0.822860 -0.539623
O14   O     O_R   0.945990 0.748440 0.177140 -0.536076
O15   O     O_R   0.554010 0.248440 0.822860 -0.539624
O16   O     O_R   0.445990 0.248440 0.177140 -0.536072
O17   O     O_3   0.165160 0.665150 0.749190 -0.242830
O18   O     O_3   0.834840 0.665150 0.250810 -0.259305
O19   O     O_3   0.665160 0.165150 0.749190 -0.242830
O20   O     O_3   0.334840 0.165150 0.250810 -0.259298
O21   O     O_R   0.178620 0.457600 0.674100 -0.504199
O22   O     O_R   0.821380 0.457600 0.325900 -0.501044
O23   O     O_R   0.678620 0.957600 0.674100 -0.504198
O24   O     O_R   0.321380 0.957600 0.325900 -0.501039
O25   O     O_R   0.284680 0.542100 0.669460 -0.529297
O26   O     O_R   0.715320 0.542100 0.330540 -0.531625
O27   O     O_R   0.784680 0.042100 0.669460 -0.529296
O28   O     O_R   0.215320 0.042100 0.330540 -0.531636
O29   O     O_R   0.262860 0.790390 0.676650 -0.499565
O30   O     O_R   0.737140 0.790390 0.323350 -0.515531
O31   O     O_R   0.762860 0.290390 0.676650 -0.499567
O32   O     O_R   0.237140 0.290390 0.323350 -0.515527
O33   O     O_R   0.167460 0.907030 0.670940 -0.524098
O34   O     O_R   0.832540 0.907030 0.329060 -0.518339
O35   O     O_R   0.667460 0.407030 0.670940 -0.524094
O36   O     O_R   0.332540 0.407030 0.329060 -0.518343
O37   O     O_R   0.053950 0.750220 0.675100 -0.461478
O38   O     O_R   0.946050 0.750220 0.324900 -0.463300
O39   O     O_R   0.553950 0.250220 0.675100 -0.461477
O40   O     O_R   0.446050 0.250220 0.324900 -0.463304
O41   O     O_R   0.043300 0.547370 0.827390 -0.456842
O42   O     O_R   0.956700 0.547370 0.172610 -0.455597
O43   O     O_R   0.543300 0.047370 0.827390 -0.456842
O44   O     O_R   0.456700 0.047370 0.172610 -0.455596
O45   O     O_R   0.178690 0.455820 0.821860 -0.497233
O46   O     O_R   0.821310 0.455820 0.178140 -0.490468
O47   O     O_R   0.678690 0.955820 0.821860 -0.497235
O48   O     O_R   0.321310 0.955820 0.178140 -0.490468
O49   O     O_R   0.284750 0.540170 0.828860 -0.549519
O50   O     O_R   0.715250 0.540170 0.171140 -0.546695
O51   O     O_R   0.784750 0.040170 0.828860 -0.549517
O52   O     O_R   0.215250 0.040170 0.171140 -0.546697
O53   O     O_3   0.303385 0.828137 0.053597 -0.587168
C93   C     C_3   0.327127 0.731075 0.096225 0.021142
H45   H     H_    0.309506 0.645144 0.071146 0.155732
H46   H     H_    0.306600 0.731588 0.151877 0.119932
C94   C     C_3   0.407563 0.733877 0.096752 -0.240341
H47   H     H_    0.427632 0.732221 0.041198 0.160011
H48   H     H_    0.425422 0.819179 0.122450 0.235869
C95   C     C_3   0.438900 0.626654 0.136353 -0.479612
H49   H     H_    0.418137 0.622836 0.191593 0.148466
H50   H     H_    0.496941 0.637289 0.138184 0.130472
H51   H     H_    0.426867 0.540758 0.108003 0.166033
O54   O     O_3   0.697009 0.826687 0.945408 -0.585675
C96   C     C_3   0.673540 0.730732 0.901432 0.022055
H52   H     H_    0.689989 0.644125 0.926303 0.156361
H53   H     H_    0.695560 0.731131 0.846355 0.114760
C97   C     C_3   0.593089 0.735098 0.898857 -0.239289
H54   H     H_    0.571607 0.733217 0.953865 0.160085
H55   H     H_    0.576170 0.821022 0.873461 0.235741
C98   C     C_3   0.562223 0.628918 0.857539 -0.479636
H56   H     H_    0.585419 0.623670 0.803308 0.148449
H57   H     H_    0.504492 0.641946 0.852842 0.128358
H58   H     H_    0.571827 0.542763 0.886354 0.166648
O55   O     O_3   0.803385 0.328136 0.053597 -0.587168
C99   C     C_3   0.827127 0.231075 0.096225 0.021142
H59   H     H_    0.809507 0.145143 0.071146 0.155732
H60   H     H_    0.806599 0.231588 0.151877 0.119932
C100  C     C_3   0.907563 0.233878 0.096754 -0.240340
H61   H     H_    0.927633 0.232224 0.041200 0.160011
H62   H     H_    0.925421 0.319179 0.122453 0.235868
C101  C     C_3   0.938900 0.126655 0.136355 -0.479613
H63   H     H_    0.918135 0.122835 0.191595 0.148468
H64   H     H_    0.996941 0.137292 0.138188 0.130471
H65   H     H_    0.926868 0.040760 0.108004 0.166029
O56   O     O_3   0.197003 0.326699 0.945409 -0.585670
C102  C     C_3   0.173540 0.230733 0.901438 0.022054
H66   H     H_    0.189985 0.144132 0.926320 0.156362
H67   H     H_    0.195568 0.231117 0.846364 0.114748
C103  C     C_3   0.093089 0.235101 0.898849 -0.239274
H68   H     H_    0.071597 0.233244 0.953855 0.160094
H69   H     H_    0.076174 0.321016 0.873437 0.235731
C104  C     C_3   0.062230 0.128901 0.857541 -0.479635
H70   H     H_    0.085436 0.123629 0.803316 0.148469
H71   H     H_    0.004501 0.141928 0.852827 0.128343
H72   H     H_    0.071826 0.042758 0.886370 0.166639
O57   O     O_3   0.030727 0.456980 0.071098 -0.704831
H73   H     H_    0.047417 0.399747 0.033982 0.329594
O58   O     O_3   0.968677 0.458075 0.928002 -0.704554
H74   H     H_    0.951598 0.401046 0.964785 0.329509
O59   O     O_3   0.530725 0.956979 0.071096 -0.704832
H75   H     H_    0.547414 0.899747 0.033980 0.329591
O60   O     O_3   0.468672 0.958078 0.928000 -0.704559
H76   H     H_    0.451594 0.901048 0.964784 0.329511
O61   O     O_3   0.050230 0.888470 0.364703 -0.556632
C105  C     C_3   0.038772 0.991266 0.321596 0.035563
H77   H     H_    0.073202 0.066540 0.340003 0.128575
H78   H     H_    0.982788 0.021836 0.323325 0.105676
C106  C     C_3   0.056460 0.961445 0.243516 -0.218747
H79   H     H_    0.006919 0.942550 0.214655 0.149397
H80   H     H_    0.080967 0.042238 0.218412 0.120738
C107  C     C_3   0.105296 0.851769 0.233456 -0.319373
H81   H     H_    0.079776 0.767687 0.253189 0.178146
H82   H     H_    0.155598 0.865431 0.262033 0.195723
H83   H     H_    0.116597 0.838619 0.176086 0.087364
O62   O     O_3   0.937469 0.868585 0.639525 -0.564244
C108  C     C_3   0.950377 0.971961 0.682544 0.032660
H84   H     H_    0.913621 0.046135 0.668360 0.137434
H85   H     H_    0.005292 0.005987 0.675688 0.105208
C109  C     C_3   0.939064 0.942715 0.761567 -0.223139
H86   H     H_    0.990778 0.927159 0.786678 0.156755
H87   H     H_    0.915705 0.023135 0.788513 0.119359
C110  C     C_3   0.891906 0.832354 0.774851 -0.327232
H88   H     H_    0.839630 0.845569 0.749907 0.169808
H89   H     H_    0.884734 0.819236 0.832835 0.090464
H90   H     H_    0.916521 0.748681 0.752922 0.183033
O63   O     O_3   0.550229 0.388476 0.364705 -0.556632
C111  C     C_3   0.538765 0.491261 0.321594 0.035552
H91   H     H_    0.573185 0.566540 0.340000 0.128563
H92   H     H_    0.482783 0.521814 0.323321 0.105703
C112  C     C_3   0.556462 0.461446 0.243518 -0.218759
H93   H     H_    0.506925 0.442562 0.214650 0.149378
H94   H     H_    0.580974 0.542238 0.218422 0.120754
C113  C     C_3   0.605292 0.351764 0.233459 -0.319371
H95   H     H_    0.579766 0.267684 0.253182 0.178140
H96   H     H_    0.655589 0.365413 0.262043 0.195729
H97   H     H_    0.616601 0.338620 0.176091 0.087364
O64   O     O_3   0.437469 0.368583 0.639526 -0.564243
C114  C     C_3   0.450376 0.471960 0.682546 0.032661
H98   H     H_    0.413619 0.546133 0.668361 0.137437
H99   H     H_    0.505290 0.505988 0.675690 0.105206
C115  C     C_3   0.439062 0.442713 0.761568 -0.223138
H100  H     H_    0.490776 0.427157 0.786679 0.156754
H101  H     H_    0.415703 0.523133 0.788515 0.119362
C116  C     C_3   0.391905 0.332351 0.774852 -0.327233
H102  H     H_    0.339629 0.345566 0.749908 0.169807
H103  H     H_    0.384732 0.319233 0.832836 0.090462
H104  H     H_    0.416520 0.248679 0.752923 0.183033

loop_
_geom_bond_atom_site_label_1
_geom_bond_atom_site_label_2
_ccdc_geom_bond_type
C110  H90   S    
C7    C83   D    
Cr6   O6    S    
Cr11  O19   S    
C59   H16   S    
C6    C82   D    
C87   C91   D    
C86   H22   S    
C115  C116  S    
C80   O44   A    
O53   C93   S    
C14   C18   A    
Cr1   O1    S    
C35   C36   A    
C78   O42   A    
C97   C98   S    
C48   O32   A    
C3    O23   A    
C99   H59   S    
Cr2   O18   S    
C45   C81   S    
C87   H23   S    
C62   O58   S    
C102  H66   S    
Cr9   O33   S    
O60   H76   S    
C40   H12   S    
C94   H47   S    
C35   H39   S    
C15   C19   A    
C29   H34   S    
C96   C97   S    
C103  C104  S    
Cr1   O21   S    
C113  H95   S    
Cr10  O38   S    
C26   C30   A    
C93   H46   S    
C101  H65   S    
C60   C63   D    
Cr11  O35   S    
C32   C36   A    
C14   C21   A    
Cr3   O47   S    
C97   H55   S    
C66   O2    A    
C116  H104  S    
C38   C74   S    
O61   C105  S    
Cr6   O26   S    
C43   C51   D    
C9    C22   A    
C10   C65   S    
C37   H9    S    
C19   H31   S    
C110  H88   S    
Cr4   O4    S    
C103  H69   S    
C73   O9    A    
C11   C24   A    
C2    O26   A    
C5    C81   D    
C113  H96   S    
C74   O6    A    
C60   H15   S    
C104  H70   S    
C112  C113  S    
C46   O30   A    
C9    C66   S    
C80   O16   A    
C105  H78   S    
C116  H102  S    
C69   O45   A    
C46   C82   S    
C71   O47   A    
C92   H4    S    
C39   C55   D    
C88   C92   D    
C29   C33   A    
C95   H49   S    
C40   C56   D    
C93   C94   S    
Cr7   O7    S    
Cr8   O28   S    
C47   O31   A    
C112  H93   S    
Cr4   O20   S    
C8    C92   S    
C47   C83   S    
C82   H26   S    
C108  H84   S    
C51   C55   S    
C63   O59   S    
Cr10  O14   S    
C116  H103  S    
C37   C53   D    
C70   O46   A    
C50   H42   S    
C58   C61   D    
C94   H48   S    
Cr9   O9    S    
C52   H44   S    
C30   H33   S    
C79   O43   A    
C21   C22   A    
C3    C86   S    
C69   O49   A    
Cr7   O27   S    
C102  H67   S    
Cr10  O10   S    
C61   C62   S    
Cr12  O12   S    
C107  H83   S    
Cr9   O37   S    
C1    O25   A    
C41   C49   D    
C67   O39   A    
C9    C26   A    
C17   C18   A    
Cr7   O19   S    
C96   H53   S    
C10   C21   A    
C77   O13   A    
Cr12  O40   S    
C12   C67   S    
C65   O37   A    
C98   H58   S    
Cr5   O25   S    
C93   H45   S    
C30   C34   A    
C12   C27   A    
C27   C31   A    
Cr10  O34   S    
C57   C77   S    
C28   C32   A    
Cr11  O39   S    
C97   H54   S    
C90   H2    S    
C32   H35   S    
C107  H82   S    
C86   C90   D    
Cr2   O46   S    
C59   C79   S    
C98   H56   S    
C48   O36   A    
C74   O10   A    
C8    H20   S    
C12   C23   A    
C4    C85   S    
C105  C106  S    
C57   C62   D    
C25   C26   A    
C6    C90   S    
C67   O3    A    
Cr5   O5    S    
C84   H28   S    
C58   H13   S    
O55   C99   S    
C40   C76   S    
C41   O53   S    
Cr3   O19   S    
C104  H71   S    
C54   H6    S    
Cr7   O31   S    
C101  H64   S    
Cr2   O42   S    
C72   O48   A    
C105  H77   S    
C68   O4    A    
C44   O56   S    
C73   O5    A    
C72   O52   A    
C64   O60   S    
C34   H38   S    
C109  C110  S    
Cr5   O29   S    
C100  H61   S    
C38   C54   D    
C111  C112  S    
C96   H52   S    
C16   C20   A    
C13   O61   S    
C49   H41   S    
C45   O29   A    
C114  H99   S    
C33   C34   A    
O59   H75   S    
C114  C115  S    
C111  H92   S    
C2    C87   S    
C50   C54   S    
C20   H32   S    
C15   O63   S    
C108  H85   S    
C51   H43   S    
Cr6   O18   S    
C14   O62   S    
C42   C50   D    
C41   C72   S    
Cr8   O52   S    
C10   C25   A    
C47   O35   A    
C15   C24   A    
C100  H62   S    
O63   C111  S    
C109  H87   S    
C78   O14   A    
C43   C70   S    
C39   C75   S    
C66   O38   A    
C114  H98   S    
C17   H29   S    
C81   H25   S    
C102  C103  S    
C31   C35   A    
C79   O15   A    
C55   H7    S    
Cr6   O30   S    
O56   C102  S    
C6    H18   S    
Cr4   O24   S    
C16   O64   S    
Cr8   O32   S    
C99   C100  S    
C7    C91   S    
C106  H79   S    
C42   O54   S    
C11   C68   S    
C3    O27   A    
C2    O22   A    
C94   C95   S    
C75   O11   A    
C110  H89   S    
C37   C73   S    
C103  H68   S    
C60   C80   S    
C5    H17   S    
C85   C89   D    
Cr3   O43   S    
C4    O24   A    
C104  H72   S    
Cr12  O36   S    
C85   H21   S    
C8    C84   D    
Cr11  O15   S    
Cr1   O45   S    
C7    H19   S    
C107  H81   S    
C99   H60   S    
C44   C52   D    
Cr12  O16   S    
Cr10  O18   S    
C75   O7    A    
C71   O51   A    
Cr4   O44   S    
Cr1   O41   S    
C16   C23   A    
C39   H11   S    
C13   C17   A    
Cr8   O20   S    
C106  C107  S    
C33   H37   S    
C89   H1    S    
C46   O34   A    
C19   C20   A    
Cr9   O13   S    
C83   H27   S    
O62   C108  S    
C77   O41   A    
Cr12  O20   S    
C88   H24   S    
C95   H50   S    
Cr9   O17   S    
C25   C29   A    
C38   H10   S    
C111  H91   S    
Cr11  O11   S    
Cr6   O50   S    
O64   C114  S    
C76   O12   A    
Cr3   O23   S    
C11   C28   A    
C1    C88   S    
C95   H51   S    
Cr5   O17   S    
C1    O21   A    
C42   C71   S    
C59   C64   D    
C76   O8    A    
C13   C22   A    
C18   H30   S    
C115  H101  S    
C98   H57   S    
C112  H94   S    
C36   H40   S    
C101  H63   S    
C108  C109  S    
C5    C89   S    
C49   C53   S    
C4    O28   A    
C58   C78   S    
C23   C24   A    
Cr1   O17   S    
C63   C64   S    
C48   C84   S    
Cr2   O2    S    
Cr4   O48   S    
C100  C101  S    
Cr3   O3    S    
C109  H86   S    
C68   O40   A    
C113  H97   S    
C70   O50   A    
C45   O33   A    
Cr7   O51   S    
C27   C28   A    
C65   O1    A    
C44   C69   S    
C115  H100  S    
C53   H5    S    
C106  H80   S    
C31   H36   S    
O57   H73   S    
Cr8   O8    S    
C61   O57   S    
C56   H8    S    
Cr2   O22   S    
C43   O55   S    
C52   C56   S    
O58   H74   S    
O54   C96   S    
C57   H14   S    
Cr5   O49   S    
C91   H3    S    
