data_mof_unit_16846.cif
_audit_creation_date              2012-12-11T14:45:28-0500
_audit_creation_method            fapswitch 2.2
_symmetry_space_group_name_H-M    P1
_symmetry_Int_Tables_number       1
_space_group_crystal_system       triclinic
_cell_length_a                    24.730889
_cell_length_b                    7.177602
_cell_length_c                    14.497193
_cell_angle_alpha                 89.999621
_cell_angle_beta                  102.668604
_cell_angle_gamma                 90.000844
_cell_volume                      2510.72551622

loop_
_atom_site_label
_atom_site_type_symbol
_atom_type_description
_atom_site_fract_x
_atom_site_fract_y
_atom_site_fract_z
_atom_type_partial_charge
O1    O     O_R   0.319150 0.364170 0.330530 -0.534266
O2    O     O_R   0.680850 0.635830 0.669470 -0.529062
O3    O     O_R   0.180850 0.864170 0.169470 -0.534270
O4    O     O_R   0.819150 0.135830 0.830530 -0.529092
O5    O     O_R   0.210330 0.696850 0.354180 -0.529445
O6    O     O_R   0.789670 0.303150 0.645820 -0.535158
O7    O     O_R   0.289670 0.196850 0.145820 -0.529449
O8    O     O_R   0.710330 0.803150 0.854180 -0.535061
C1    C     C_R   0.197595 0.525033 0.378692 0.765439
C2    C     C_R   0.802149 0.475770 0.620904 0.779456
C3    C     C_R   0.302408 0.025036 0.121311 0.765434
C4    C     C_R   0.697847 0.975767 0.879090 0.779505
O9    O     O_R   0.320550 0.694110 0.341970 -0.547473
O10   O     O_R   0.679450 0.305890 0.658030 -0.546524
O11   O     O_R   0.179450 0.194110 0.158030 -0.547474
O12   O     O_R   0.820550 0.805890 0.841970 -0.546480
O13   O     O_R   0.291860 0.861000 0.157170 -0.537648
O14   O     O_R   0.708140 0.139000 0.842830 -0.533018
O15   O     O_R   0.208140 0.361000 0.342830 -0.537647
O16   O     O_R   0.791860 0.639000 0.657170 -0.532954
C5    C     C_R   0.341642 0.524523 0.362894 0.691652
C6    C     C_R   0.658296 0.475040 0.637381 0.680109
C7    C     C_R   0.158358 0.024521 0.137105 0.691652
C8    C     C_R   0.841701 0.975042 0.862630 0.679906
O17   O     O_3   0.240460 0.529330 0.189380 -0.376112
O18   O     O_3   0.759540 0.470670 0.810620 -0.376329
O19   O     O_3   0.259540 0.029330 0.310620 -0.376107
O20   O     O_3   0.740460 0.970670 0.689380 -0.376329
V1    V     V_3+5 0.251770 0.805510 0.261240 1.472022
V2    V     V_3+5 0.748230 0.194490 0.738760 1.472967
V3    V     V_3+5 0.248230 0.305510 0.238760 1.472019
V4    V     V_3+5 0.751770 0.694490 0.761240 1.473154
C9    C     C_R   0.103410 0.007557 0.072190 -0.049155
C10   C     C_R   0.896611 0.989804 0.927590 -0.040685
C11   C     C_R   0.396589 0.507563 0.427812 -0.049113
C12   C     C_R   0.603387 0.489800 0.572422 -0.040553
C13   C     C_R   0.957063 0.149599 0.058923 -0.193973
C14   C     C_R   0.042743 0.841790 0.942839 -0.185351
C15   C     C_R   0.542942 0.649533 0.441058 -0.193956
C16   C     C_R   0.457247 0.341870 0.557201 -0.185379
C17   C     C_R   0.904298 0.117107 0.002873 -0.148747
C18   C     C_R   0.095767 0.879231 0.997169 -0.181206
C19   C     C_R   0.595706 0.617044 0.497113 -0.148831
C20   C     C_R   0.404226 0.379290 0.502856 -0.181185
C21   C     C_R   0.942616 0.893385 0.909366 -0.233514
C22   C     C_R   0.057062 0.098052 0.092283 -0.227553
C23   C     C_R   0.557376 0.393442 0.590674 -0.233543
C24   C     C_R   0.442942 0.598017 0.407703 -0.227550
C25   C     C_R   0.996219 0.930723 0.963218 0.157242
C26   C     C_R   0.003527 0.060585 0.038447 0.147754
C27   C     C_R   0.503775 0.430763 0.536809 0.157132
C28   C     C_R   0.496474 0.560564 0.461550 0.147762
H1    H     H_    0.062496 0.191104 0.152127 0.103863
H2    H     H_    0.936974 0.795651 0.851020 0.117987
H3    H     H_    0.437512 0.691021 0.347838 0.103852
H4    H     H_    0.563014 0.295769 0.649046 0.117991
H5    H     H_    0.130940 0.805255 0.981759 0.140242
H6    H     H_    0.869273 0.192605 0.017879 0.137519
H7    H     H_    0.369048 0.305345 0.518278 0.140224
H8    H     H_    0.630735 0.692500 0.482089 0.137496
H9    H     H_    0.961504 0.246563 0.117296 0.117020
H10   H     H_    0.038083 0.741861 0.885594 0.119160
H11   H     H_    0.538505 0.746458 0.382667 0.117012
H12   H     H_    0.461902 0.241986 0.614467 0.119143
C29   C     C_R   0.667021 0.996936 0.954372 -0.139934
C30   C     C_R   0.334291 0.013544 0.047097 -0.129476
C31   C     C_R   0.832973 0.496941 0.545617 -0.140176
C32   C     C_R   0.165713 0.513519 0.452905 -0.129459
C33   C     C_R   0.654544 0.185503 0.086273 -0.196560
C34   C     C_R   0.342613 0.904225 0.893293 -0.173010
C35   C     C_R   0.845462 0.685515 0.413728 -0.196684
C36   C     C_R   0.157381 0.404048 0.606674 -0.172981
C37   C     C_R   0.689399 0.111096 0.031912 0.131388
C38   C     C_R   0.310357 0.931365 0.960045 0.122900
C39   C     C_R   0.810603 0.611133 0.468088 0.131415
C40   C     C_R   0.189644 0.431282 0.539941 0.122880
C41   C     C_R   0.610970 0.944981 0.936433 0.286046
C42   C     C_R   0.390121 0.070873 0.067315 0.310136
C43   C     C_R   0.889018 0.444940 0.563545 0.285890
C44   C     C_R   0.109883 0.570830 0.432688 0.310140
C45   C     C_R   0.573679 0.039672 0.983414 -0.072342
C46   C     C_R   0.423357 0.046461 0.998778 -0.059515
C47   C     C_R   0.926316 0.539585 0.516565 -0.072226
C48   C     C_R   0.076643 0.546342 0.501212 -0.059546
C49   C     C_R   0.596884 0.158571 0.060670 0.040089
C50   C     C_R   0.398788 0.956215 0.912196 0.058256
C51   C     C_R   0.903120 0.658526 0.439323 0.039960
C52   C     C_R   0.101206 0.456012 0.587770 0.058289
C53   C     C_R   0.514514 0.024106 0.955692 0.026690
C54   C     C_R   0.480804 0.097342 0.015028 0.030080
C55   C     C_R   0.985480 0.523940 0.544278 0.027059
C56   C     C_R   0.019197 0.597227 0.484965 0.029983
C57   C     C_R   0.505078 0.226577 0.084900 -0.192110
C58   C     C_R   0.487496 0.952184 0.867220 -0.208531
C59   C     C_R   0.994932 0.726519 0.415116 -0.192003
C60   C     C_R   0.012496 0.451883 0.632723 -0.208248
C61   C     C_R   0.562166 0.256367 0.108807 0.181970
C62   C     C_R   0.430634 0.919153 0.845064 0.180899
C63   C     C_R   0.937845 0.756325 0.391200 0.182046
C64   C     C_R   0.069355 0.418830 0.654875 0.180712
H13   H     H_    0.672582 0.273507 0.145738 0.160898
H14   H     H_    0.323682 0.838198 0.826882 0.168833
H15   H     H_    0.827431 0.773550 0.354272 0.160917
H16   H     H_    0.176309 0.337966 0.673071 0.168844
H17   H     H_    0.480018 0.316166 0.117969 0.184976
H18   H     H_    0.508977 0.929395 0.811165 0.187770
H19   H     H_    0.019998 0.816136 0.382072 0.184975
H20   H     H_    0.991021 0.429036 0.688778 0.187856
N1    N     N_3   0.584975 0.389467 0.181214 -0.682163
H21   H     H_    0.595423 0.508583 0.147404 0.213556
H22   H     H_    0.555342 0.430127 0.218789 0.228509
N2    N     N_3   0.405550 0.843398 0.754134 -0.686455
H23   H     H_    0.425066 0.716966 0.746194 0.236521
H24   H     H_    0.413113 0.935044 0.702308 0.229183
N3    N     N_3   0.915046 0.889455 0.318803 -0.682159
H25   H     H_    0.904604 0.008566 0.352620 0.213557
H26   H     H_    0.944682 0.930109 0.281230 0.228505
N4    N     N_3   0.094428 0.342910 0.745767 -0.686470
H27   H     H_    0.074929 0.216401 0.753606 0.236509
H28   H     H_    0.086833 0.434379 0.797635 0.229213
O21   O     O_3   0.410763 0.150966 0.154688 -0.563781
C65   C     C_3   0.435396 0.012714 0.219580 0.052540
H29   H     H_    0.471432 0.947372 0.197679 0.130273
H30   H     H_    0.404907 0.902629 0.226565 0.112829
C66   C     C_3   0.455650 0.104239 0.315607 -0.674000
H31   H     H_    0.419833 0.162616 0.340391 0.234962
H32   H     H_    0.476707 0.001246 0.368234 0.172031
H33   H     H_    0.485239 0.218118 0.310320 0.223968
O22   O     O_3   0.593588 0.809250 0.868939 -0.565828
C67   C     C_3   0.590052 0.637976 0.915055 0.107987
H34   H     H_    0.558199 0.644107 0.958682 0.123131
H35   H     H_    0.630817 0.598787 0.960921 0.127224
C68   C     C_3   0.573280 0.487265 0.840707 -0.685667
H36   H     H_    0.606318 0.469340 0.800585 0.213366
H37   H     H_    0.567234 0.353457 0.874958 0.179318
H38   H     H_    0.533891 0.525968 0.791220 0.215013
O23   O     O_3   0.089243 0.650951 0.345322 -0.563783
C69   C     C_3   0.064610 0.512718 0.280418 0.052565
H39   H     H_    0.028586 0.447301 0.302331 0.130261
H40   H     H_    0.095106 0.402687 0.273398 0.112846
C70   C     C_3   0.044329 0.604294 0.184412 -0.674026
H41   H     H_    0.080133 0.662789 0.159629 0.234987
H42   H     H_    0.023287 0.501303 0.131769 0.172024
H43   H     H_    0.014720 0.718093 0.189729 0.223950
O24   O     O_3   0.906399 0.309215 0.631035 -0.565870
C71   C     C_3   0.909692 0.137799 0.584913 0.107944
H44   H     H_    0.941374 0.143566 0.540940 0.122969
H45   H     H_    0.868806 0.098802 0.539400 0.127431
C72   C     C_3   0.926588 0.987185 0.659266 -0.685328
H46   H     H_    0.893861 0.970473 0.700130 0.213506
H47   H     H_    0.932090 0.852952 0.624959 0.179244
H48   H     H_    0.966287 0.025187 0.708072 0.214684
N5    N     N_3   0.253327 0.872911 0.940703 -0.661203
H49   H     H_    0.228842 0.992761 0.936123 0.214162
H50   H     H_    0.242482 0.807001 0.874906 0.232307
N6    N     N_3   0.747430 0.157141 0.052270 -0.665514
H51   H     H_    0.769546 0.034319 0.072764 0.213593
H52   H     H_    0.757271 0.248430 0.109725 0.227329
N7    N     N_3   0.246674 0.372847 0.559280 -0.661220
H53   H     H_    0.271157 0.492704 0.563892 0.214158
H54   H     H_    0.257514 0.306880 0.625061 0.232312
N8    N     N_3   0.752577 0.657234 0.447741 -0.665545
H55   H     H_    0.730449 0.534454 0.427219 0.213601
H56   H     H_    0.742747 0.748575 0.390312 0.227325

loop_
_geom_bond_atom_site_label_1
_geom_bond_atom_site_label_2
_ccdc_geom_bond_type
O17   V3    S    
C24   H3    S    
C47   C51   A    
C40   N7    S    
O1    C5    A    
O19   V1    S    
O13   V1    S    
O3    C7    A    
C44   C48   A    
O4    V2    S    
O15   V3    S    
N2    H24   S    
O24   C71   S    
C72   H46   S    
C43   O24   S    
C14   C25   A    
C2    C31   S    
O7    C3    A    
C39   N8    S    
C9    C18   A    
O9    V1    S    
N6    H51   S    
C17   H6    S    
C14   C18   A    
C72   H47   S    
C63   N3    S    
O4    C8    A    
C59   C63   A    
C58   C62   A    
C20   H7    S    
C44   O23   S    
C30   C38   A    
O1    V3    S    
C29   C37   A    
C22   H1    S    
C12   C23   A    
O2    V4    S    
C53   C58   A    
O3    V1    S    
C42   O21   S    
N4    H27   S    
N1    H22   S    
C57   H17   S    
C55   C60   A    
N6    H52   S    
C1    O15   A    
C58   H18   S    
C2    O16   A    
N3    H26   S    
C34   C38   A    
C66   H33   S    
N7    H54   S    
C33   C37   A    
O14   V2    S    
C21   C25   A    
N5    H50   S    
C16   C20   A    
C71   H45   S    
C3    C30   S    
C36   C40   A    
C45   C53   A    
O11   C7    A    
C15   C28   A    
C60   H20   S    
O23   C69   S    
O12   C8    A    
C9    C22   A    
C10   C17   A    
O10   V2    S    
C11   C24   A    
C18   H5    S    
N2    H23   S    
C36   C52   A    
O5    V1    S    
C30   C42   A    
O7    V3    S    
C71   H44   S    
O9    C5    A    
C27   C28   A    
O8    V4    S    
C62   N2    S    
C72   H48   S    
C53   C54   A    
C55   C56   A    
O18   V4    S    
C15   C19   A    
C36   H16   S    
C7    C9    S    
C46   C50   A    
C56   C59   A    
C8    C10   S    
C38   N5    S    
C67   H35   S    
O5    C1    A    
C68   H38   S    
C71   C72   S    
C61   N1    S    
C42   C46   A    
C13   H9    S    
N7    H53   S    
C41   C45   A    
O8    C4    A    
C31   C43   A    
C10   C21   A    
C41   O22   S    
C11   C20   A    
O21   C65   S    
C52   C64   A    
C59   H19   S    
C19   H8    S    
C35   C51   A    
O6    V2    S    
C21   H2    S    
C66   H31   S    
C70   H43   S    
C67   C68   S    
C31   C39   A    
C65   H30   S    
C32   C44   A    
C34   C50   A    
C57   C61   A    
C33   C49   A    
C54   C57   A    
C66   H32   S    
N8    H55   S    
O16   V4    S    
C35   H15   S    
C3    O13   A    
C29   C41   A    
C6    C12   S    
C48   C52   A    
C69   C70   S    
C46   C54   A    
O6    C2    A    
C23   C27   A    
C34   H14   S    
O11   V3    S    
C69   H40   S    
C33   H13   S    
C32   C40   A    
C16   C27   A    
C15   H11   S    
C4    C29   S    
C22   C26   A    
C16   H12   S    
O2    C6    A    
C65   C66   S    
C70   H42   S    
C5    C11   S    
O22   C67   S    
C1    C32   S    
N8    H56   S    
C70   H41   S    
C35   C39   A    
C13   C26   A    
O10   C6    A    
C68   H36   S    
O12   V4    S    
C60   C64   A    
C37   N6    S    
O20   V2    S    
C67   H34   S    
C47   C55   A    
C13   C17   A    
C50   C62   A    
N4    H28   S    
C49   C61   A    
C69   H39   S    
C43   C47   A    
C51   C63   A    
C24   C28   A    
C64   N4    S    
C25   C26   A    
C4    O14   A    
C68   H37   S    
C12   C19   A    
C48   C56   A    
C14   H10   S    
C65   H29   S    
N1    H21   S    
C45   C49   A    
N3    H25   S    
C23   H4    S    
N5    H49   S    
