data_mof_unit_42340.cif
_audit_creation_date              2012-12-11T14:15:24-0500
_audit_creation_method            fapswitch 2.2
_symmetry_space_group_name_H-M    P1
_symmetry_Int_Tables_number       1
_space_group_crystal_system       triclinic
_cell_length_a                    11.154557
_cell_length_b                    12.711932
_cell_length_c                    23.50193
_cell_angle_alpha                 90.475251
_cell_angle_beta                  96.850815
_cell_angle_gamma                 68.587936
_cell_volume                      3078.07544965

loop_
_atom_site_label
_atom_site_type_symbol
_atom_type_description
_atom_site_fract_x
_atom_site_fract_y
_atom_site_fract_z
_atom_type_partial_charge
C1    C     C_R   0.149304 0.616853 0.428847 0.535024
C2    C     C_R   0.615377 0.584785 0.314751 -0.008390
C3    C     C_R   0.713242 0.729015 0.320179 -0.141153
C4    C     C_R   0.698433 0.740091 0.260468 0.048507
C5    C     C_R   0.652933 0.664496 0.229017 0.012019
C6    C     C_R   0.647932 0.664743 0.170539 -0.125772
C7    C     C_R   0.706425 0.830299 0.170648 -0.112461
C8    C     C_R   0.730358 0.821629 0.230918 -0.004959
C9    C     C_1   0.234528 0.165352 0.122141 -0.013967
C10   C     C_2   0.176988 0.242174 0.224630 0.006077
C11   C     C_2   0.155713 0.172253 0.261799 -0.099472
C12   C     C_R   0.746081 0.605890 0.404980 0.542300
C13   C     C_1   0.132078 0.202657 0.320010 -0.048459
C14   C     C_1   0.207999 0.203068 0.168271 -0.035653
C15   C     C_1   0.115622 0.233677 0.368103 -0.008356
C16   C     C_1   0.166781 0.748722 0.123277 -0.008728
C17   C     C_2   0.142608 0.684803 0.227123 -0.132299
C18   C     C_2   0.231977 0.681207 0.271439 -0.135383
C19   C     C_1   0.214958 0.655118 0.328969 -0.061921
C20   C     C_1   0.154349 0.718468 0.170095 -0.052155
C21   C     C_1   0.192674 0.635797 0.376013 -0.013481
C22   C     C_1   0.628807 0.757218 0.865049 -0.003667
C23   C     C_R   0.101127 0.282250 0.423400 0.539729
C24   C     C_2   0.699587 0.716182 0.761003 -0.121038
C25   C     C_2   0.616252 0.698345 0.719573 -0.135260
C26   C     C_1   0.653474 0.667464 0.663256 -0.053199
C27   C     C_1   0.664464 0.739396 0.818201 -0.048758
C28   C     C_1   0.691291 0.639038 0.617483 -0.004767
C29   C     C_R   0.193061 0.182718 0.855409 0.016305
C30   C     C_R   0.102927 0.242633 0.643584 0.012640
C31   C     C_R   0.030100 0.150523 0.713916 -0.146846
C32   C     C_R   0.031044 0.178048 0.656819 -0.137839
C33   C     C_R   0.164828 0.287383 0.686974 -0.122888
C34   C     C_R   0.153024 0.617304 0.590044 0.556722
C35   C     C_R   0.162848 0.262044 0.743683 0.040792
C36   C     C_R   0.098571 0.189992 0.757381 0.036192
C37   C     C_R   0.111452 0.152895 0.813863 -0.130469
C38   C     C_R   0.246679 0.262129 0.842595 -0.129413
C39   C     C_R   0.229679 0.303313 0.786741 -0.137791
C40   C     C_R   0.135598 0.758795 0.847108 0.015171
C41   C     C_R   0.208686 0.640930 0.646384 0.014139
C42   C     C_R   0.315543 0.565644 0.741255 -0.173915
C43   C     C_R   0.307132 0.553900 0.681057 0.217356
C44   C     C_R   0.141273 0.744679 0.670097 0.226104
C45   C     C_R   0.749826 0.602234 0.566039 0.541819
C46   C     C_R   0.134718 0.746589 0.728686 0.048754
C47   C     C_R   0.223964 0.657321 0.764774 -0.044657
C48   C     C_R   0.224317 0.664189 0.824066 -0.120285
C49   C     C_R   0.038290 0.840766 0.810427 -0.153760
C50   C     C_R   0.039808 0.836152 0.751696 -0.119794
C51   C     C_R   0.265709 0.110307 0.069309 0.542910
C52   C     C_R   0.599869 0.774519 0.081418 0.542507
C53   C     C_R   0.189482 0.787567 0.069702 0.545663
C54   C     C_R   0.240353 0.115564 0.908133 0.543699
C55   C     C_R   0.573917 0.776543 0.918184 0.546518
C56   C     C_R   0.099209 0.280876 0.585686 0.525836
C57   C     C_R   0.165254 0.788328 0.905875 0.543175
C58   C     C_R   0.662270 0.753174 0.140632 -0.004582
C59   C     C_R   0.681946 0.645470 0.347202 0.017390
C60   C     C_R   0.606453 0.591929 0.255590 -0.124609
Cr1   Cr    Cr6+3 0.189770 0.415650 0.511620 1.049038
Cr2   Cr    Cr6+3 0.930400 0.667320 0.496770 1.030068
Cr3   Cr    Cr6+3 0.879870 0.417010 0.491650 1.016872
Cr4   Cr    Cr6+3 0.149500 0.973980 0.985330 1.022173
Cr5   Cr    Cr6+3 0.457000 0.976510 0.994660 1.027732
Cr6   Cr    Cr6+3 0.411170 0.724270 0.995270 1.018196
H1    H     H_    0.617288 0.601946 0.148280 0.140971
H2    H     H_    0.057879 0.665591 0.233741 0.139764
H3    H     H_    0.521500 0.702163 0.728557 0.127453
H4    H     H_    0.795327 0.710679 0.752529 0.143876
H5    H     H_    0.069426 0.091809 0.824175 0.122436
H6    H     H_    0.307777 0.286917 0.875047 0.122238
H7    H     H_    0.978968 0.096565 0.723995 0.107292
H8    H     H_    0.275350 0.361538 0.776786 0.099862
H9    H     H_    0.978148 0.147658 0.623166 0.124624
H10   H     H_    0.214189 0.342836 0.676574 0.147894
H11   H     H_    0.298810 0.599930 0.852163 0.123707
H12   H     H_    0.718207 0.898438 0.147401 0.128270
H13   H     H_    0.967719 0.914139 0.827049 0.131973
H14   H     H_    0.388119 0.503312 0.770587 0.102159
H15   H     H_    0.967529 0.903481 0.724509 0.151765
H16   H     H_    0.563600 0.540044 0.230066 0.108592
H17   H     H_    0.757792 0.779374 0.345670 0.135327
H18   H     H_    0.159594 0.088902 0.248867 0.120671
H19   H     H_    0.315867 0.701761 0.264992 0.144180
O1    O     O_R   0.196340 0.303200 0.448500 -0.508669
O2    O     O_R   0.811960 0.658090 0.547150 -0.490486
O3    O     O_R   0.757930 0.506140 0.547110 -0.509491
O4    O     O_R   0.988670 0.321620 0.556040 -0.499368
O5    O     O_3   0.000020 0.499990 0.500010 -0.253596
O6    O     O_R   0.113660 0.883270 0.047820 -0.506183
O7    O     O_R   0.186930 0.068530 0.043990 -0.495160
O8    O     O_R   0.377770 0.089040 0.054220 -0.509944
O9    O     O_R   0.562800 0.872960 0.056970 -0.497594
O10   O     O_R   0.555390 0.700940 0.062700 -0.524206
O11   O     O_R   0.295020 0.731920 0.049950 -0.496649
O12   O     O_R   0.199310 0.519670 0.454880 -0.495747
O13   O     O_R   0.094290 0.884230 0.921550 -0.521439
O14   O     O_R   0.168980 0.069410 0.926940 -0.507102
O15   O     O_R   0.358400 0.089990 0.927950 -0.513587
O16   O     O_R   0.544850 0.873850 0.939920 -0.491619
O17   O     O_R   0.536020 0.701900 0.936430 -0.510988
O18   O     O_R   0.277070 0.732810 0.932890 -0.503562
O19   O     O_3   0.339220 0.891590 0.991750 -0.245083
O20   O     O_R   0.045660 0.691380 0.441680 -0.518140
O21   O     O_R   0.811930 0.659460 0.430950 -0.509929
O22   O     O_R   0.757900 0.507620 0.421760 -0.516667
O23   O     O_R   0.988630 0.322990 0.439840 -0.496641
O24   O     O_R   0.196380 0.301720 0.573850 -0.511686
O25   O     O_R   0.199350 0.518300 0.571080 -0.453685
O26   O     O_R   0.045700 0.689900 0.567030 -0.481218
O27   O     O_3   0.388505 0.462756 0.652948 -0.552157
C61   C     C_3   0.485076 0.375946 0.688201 0.013630
H20   H     H_    0.515994 0.299753 0.661964 0.158297
H21   H     H_    0.447605 0.349474 0.724995 0.106429
C62   C     C_3   0.604791 0.406694 0.705927 -0.265672
H22   H     H_    0.644676 0.421133 0.666832 0.188151
H23   H     H_    0.578137 0.485629 0.730010 0.164905
C63   C     C_3   0.709612 0.312589 0.743422 -0.477876
H24   H     H_    0.672885 0.298959 0.783548 0.146023
H25   H     H_    0.795508 0.336549 0.754850 0.168566
H26   H     H_    0.739749 0.232655 0.720025 0.145948
O28   O     O_3   0.073248 0.842684 0.636511 -0.565917
C64   C     C_3   0.158478 0.873776 0.605912 0.014392
H27   H     H_    0.098440 0.950967 0.579274 0.151501
H28   H     H_    0.204979 0.808253 0.575508 0.133190
C65   C     C_3   0.262936 0.900490 0.645790 -0.288106
H29   H     H_    0.217242 0.959321 0.678799 0.186985
H30   H     H_    0.332816 0.821580 0.668163 0.149196
C66   C     C_3   0.338148 0.952295 0.612299 -0.463086
H31   H     H_    0.388949 0.892059 0.580674 0.151058
H32   H     H_    0.411525 0.971451 0.642363 0.162350
H33   H     H_    0.271509 0.032015 0.589418 0.153390
C67   C     C_3   0.783131 0.902485 0.262266 -0.408004
H34   H     H_    0.800889 0.960521 0.232128 0.133762
H35   H     H_    0.712776 0.954611 0.290507 0.133953
H36   H     H_    0.876892 0.854324 0.288489 0.139898
C68   C     C_3   0.559634 0.507743 0.341239 -0.372154
H37   H     H_    0.636427 0.423357 0.352187 0.162663
H38   H     H_    0.515657 0.545307 0.380149 0.146768
H39   H     H_    0.482003 0.495114 0.310994 0.118207
C69   C     C_3   0.173765 0.358256 0.240624 -0.370399
H40   H     H_    0.190246 0.403298 0.203773 0.133359
H41   H     H_    0.077664 0.409482 0.253739 0.139416
H42   H     H_    0.250773 0.351041 0.276655 0.141444

loop_
_geom_bond_atom_site_label_1
_geom_bond_atom_site_label_2
_ccdc_geom_bond_type
C12   O21   A    
C1    C21   S    
Cr3   O3    S    
C6    C58   A    
C66   H32   S    
C35   C36   A    
C9    C51   S    
C24   C27   S    
Cr5   O16   S    
C4    C8    A    
Cr1   O24   S    
C67   H36   S    
C24   H4    S    
C7    C8    A    
Cr2   O20   S    
C42   H14   S    
C55   O17   A    
Cr6   O11   S    
C36   C37   A    
C45   O2    A    
C5    C6    A    
C2    C60   A    
C31   H7    S    
C29   C54   S    
C23   O23   A    
C40   C49   A    
C17   C20   S    
C62   H22   S    
C52   O10   A    
C40   C48   A    
C18   C19   S    
C10   C69   S    
C39   H8    S    
Cr6   O17   S    
C16   C53   S    
C12   C59   S    
C60   H16   S    
Cr4   O14   S    
Cr2   O26   S    
C31   C32   A    
C23   O1    A    
C29   C38   A    
C53   O6    A    
C52   O9    A    
C7    C58   A    
C30   C33   A    
C61   C62   S    
Cr4   O13   S    
C53   O11   A    
C34   O26   A    
C41   C43   A    
C69   H42   S    
C54   O15   A    
C34   C41   S    
C32   H9    S    
Cr1   O25   S    
O27   C61   S    
C44   C46   A    
C63   H25   S    
C57   O18   A    
C38   H6    S    
C28   C45   S    
C18   H19   S    
C8    C67   S    
Cr1   O1    S    
C2    C68   S    
Cr6   O19   S    
O28   C64   S    
C45   O3    A    
C24   C25   D    
C10   C14   S    
C1    O12   A    
C2    C59   A    
C67   H35   S    
C25   C26   S    
C30   C56   S    
C49   H13   S    
C48   H11   S    
C35   C39   A    
C9    C14   T    
C65   H30   S    
C51   O7    A    
C33   H10   S    
C47   C48   A    
C16   C20   T    
Cr3   O4    S    
C17   C18   D    
C22   C55   S    
C52   C58   S    
C51   O8    A    
C64   C65   S    
Cr2   O21   S    
Cr5   O9    S    
C22   C27   T    
C37   H5    S    
C3    H17   S    
C34   O25   A    
C41   C44   A    
C69   H41   S    
C54   O14   A    
C66   H33   S    
C25   H3    S    
C42   C43   A    
Cr4   O7    S    
Cr3   O22   S    
C65   H29   S    
C56   O24   A    
Cr1   O5    S    
C64   H28   S    
C61   H20   S    
C63   H26   S    
Cr4   O19   S    
C55   O16   A    
C46   C47   A    
C56   O4    A    
C17   H2    S    
C40   C57   S    
C5    C60   A    
C19   C21   T    
C31   C36   A    
Cr6   O18   S    
Cr1   O12   S    
Cr5   O15   S    
C4    C5    A    
C68   H39   S    
C12   O22   A    
C63   H24   S    
C67   H34   S    
C68   H38   S    
C11   H18   S    
Cr2   O2    S    
C46   C50   A    
C44   O28   S    
C26   C28   T    
Cr5   O19   S    
C62   C63   S    
C10   C11   D    
C13   C15   T    
C66   H31   S    
C65   C66   S    
C6    H1    S    
C30   C32   A    
C11   C13   S    
C38   C39   A    
C57   O13   A    
Cr2   O5    S    
Cr3   O5    S    
C15   C23   S    
Cr5   O8    S    
C33   C35   A    
C62   H23   S    
C42   C47   A    
C68   H37   S    
C7    H12   S    
C49   C50   A    
C43   O27   S    
C29   C37   A    
C69   H40   S    
Cr6   O10   S    
Cr4   O6    S    
Cr3   O23   S    
C3    C4    A    
C50   H15   S    
C1    O20   A    
C64   H27   S    
C61   H21   S    
C3    C59   A    
