data_mof_unit_19460.cif
_audit_creation_date              2012-12-11T14:17:40-0500
_audit_creation_method            fapswitch 2.2
_symmetry_space_group_name_H-M    P1
_symmetry_Int_Tables_number       1
_space_group_crystal_system       triclinic
_cell_length_a                    6.943691
_cell_length_b                    13.677779
_cell_length_c                    20.510728
_cell_angle_alpha                 101.954415
_cell_angle_beta                  91.5612
_cell_angle_gamma                 90.078122
_cell_volume                      1904.98845714

loop_
_atom_site_label
_atom_site_type_symbol
_atom_type_description
_atom_site_fract_x
_atom_site_fract_y
_atom_site_fract_z
_atom_type_partial_charge
O1    O     O_R   0.506860 0.599390 0.449240 -0.531738
O2    O     O_R   0.180220 0.594600 0.586780 -0.542794
O3    O     O_R   0.004500 0.400610 0.550760 -0.509193
C1    C     C_R   0.350694 0.614221 0.613884 0.768605
O4    O     O_R   0.177490 0.611290 0.451970 -0.545867
O5    O     O_R   0.001750 0.417420 0.414990 -0.542320
C2    C     C_R   0.344683 0.635865 0.433277 0.734169
O6    O     O_R   0.509610 0.582580 0.585010 -0.545968
O7    O     O_3   0.337420 0.436370 0.488020 -0.365583
V1    V     V_3+5 0.064680 0.511800 0.502220 1.576844
O8    O     O_R   0.671710 0.405400 0.413220 -0.538950
C3    C     C_R   0.835157 0.393714 0.384170 0.652973
O9    O     O_R   0.674440 0.388710 0.548030 -0.542168
C4    C     C_R   0.845081 0.361299 0.565083 0.886332
V2    V     V_3+5 0.564010 0.488200 0.497780 1.584917
O10   O     O_3   0.841140 0.563630 0.511980 -0.388620
C5    C     C_R   0.953440 0.118811 0.625233 0.382751
C6    C     C_R   0.861910 0.286387 0.608436 -0.353734
C7    C     C_R   0.706768 0.296304 0.922873 0.386349
C8    C     C_R   0.613775 0.345815 0.878429 -0.158567
C9    C     C_R   0.660198 0.326246 0.811798 -0.115493
C10   C     C_R   0.817226 0.265386 0.788775 0.145111
C11   C     C_R   0.902369 0.207641 0.832259 -0.010400
C12   C     C_R   0.872001 0.249257 0.720807 -0.076474
C13   C     C_R   0.962464 0.157842 0.694302 -0.138638
C14   C     C_R   0.058838 0.106628 0.738036 -0.015843
C15   C     C_R   0.033815 0.132908 0.806079 -0.151359
C16   C     C_R   0.843414 0.319254 0.678592 0.330500
C17   C     C_R   0.908013 0.184277 0.581453 0.246680
C18   C     C_R   0.841863 0.220601 0.899072 -0.193201
H1    H     H_    0.568418 0.357308 0.778217 0.204393
C19   C     C_2   0.939199 0.256014 0.295442 -0.184154
C20   C     C_2   0.821910 0.335427 0.314624 0.201646
C21   C     C_2   0.916728 0.176639 0.233833 -0.021490
C22   C     C_2   0.877792 0.195029 0.173285 -0.075634
H2    H     H_    0.947204 0.100354 0.238292 0.161736
C23   C     C_2   0.227176 0.771862 0.787134 -0.172114
C24   C     C_2   0.358431 0.843366 0.813228 0.260596
C25   C     C_2   0.214232 0.718361 0.716141 -0.009341
C26   C     C_2   0.366876 0.674963 0.682639 -0.131201
H3    H     H_    0.071345 0.708114 0.693078 0.151756
C27   C     C_R   0.405968 0.884192 0.385015 0.044460
C28   C     C_R   0.351985 0.712616 0.392697 -0.085406
C29   C     C_R   0.287544 0.685914 0.069337 0.349873
C30   C     C_R   0.219571 0.618806 0.107608 0.369970
C31   C     C_R   0.250306 0.640050 0.176983 -0.237317
C32   C     C_R   0.325402 0.732832 0.211391 0.034332
C33   C     C_R   0.366196 0.805879 0.173574 -0.070628
C34   C     C_R   0.345998 0.758040 0.282669 0.061545
C35   C     C_R   0.383742 0.859357 0.314902 -0.045713
C36   C     C_R   0.400640 0.932921 0.276089 0.437669
C37   C     C_R   0.405792 0.904322 0.207025 -0.231372
C38   C     C_R   0.331008 0.685763 0.323055 -0.140132
C39   C     C_R   0.389936 0.811715 0.423260 -0.108197
C40   C     C_R   0.353609 0.781494 0.102790 -0.227134
H4    H     H_    0.309892 0.607511 0.301674 0.162292
H5    H     H_    0.198335 0.585892 0.203791 0.195549
H6    H     H_    0.432383 0.961733 0.179149 0.154354
O11   O     O_R   0.203230 0.917310 0.915020 -0.560191
O12   O     O_R   0.535500 0.888690 0.048040 -0.539276
O13   O     O_R   0.711080 0.082610 0.085000 -0.524989
C41   C     C_R   0.367231 0.861543 0.064512 0.795472
O14   O     O_R   0.532630 0.905370 0.913230 -0.505389
O15   O     O_R   0.708190 0.099410 0.949230 -0.522810
C42   C     C_R   0.363160 0.889668 0.885233 0.730702
O16   O     O_R   0.206120 0.900510 0.050790 -0.545922
O17   O     O_3   0.375360 0.063570 0.011990 -0.352947
V3    V     V_3+5 0.648170 0.988200 0.997780 1.718371
O18   O     O_R   0.038240 0.111390 0.951940 -0.546068
C43   C     C_R   0.866914 0.139405 0.936189 0.800301
O19   O     O_R   0.041120 0.094710 0.086750 -0.536627
C44   C     C_R   0.875660 0.115721 0.112950 0.721416
V4    V     V_3+5 0.148810 0.011930 0.002180 1.662869
O20   O     O_3   0.871750 0.936430 0.988010 -0.372689
S1    S     S_3+6 0.912643 0.137567 0.493818 0.132892
O21   O     O_2   0.076188 0.065928 0.476889 -0.215043
O22   O     O_2   0.725946 0.083442 0.471852 -0.281687
O23   O     O_3   0.939469 0.227198 0.450684 -0.502954
H7    H     H_    0.805545 0.243932 0.440271 0.304237
S2    S     S_3+6 0.624869 0.366451 0.264435 0.050113
O24   O     O_2   0.699839 0.430484 0.219375 -0.275741
O25   O     O_2   0.530198 0.275243 0.222386 -0.285233
O26   O     O_3   0.455444 0.432217 0.311526 -0.506727
H8    H     H_    0.369202 0.381593 0.323874 0.348666
H9    H     H_    0.868302 0.271196 0.166667 0.237897
H10   H     H_    0.118511 0.752328 0.819455 0.184885
S3    S     S_3+6 0.522327 0.894350 0.763714 0.000989
O27   O     O_2   0.707535 0.836972 0.759728 -0.328052
O28   O     O_2   0.439660 0.890104 0.694650 -0.311431
O29   O     O_3   0.568624 0.014332 0.799946 -0.533809
H11   H     H_    0.630770 0.043031 0.765185 0.370781
H12   H     H_    0.507793 0.680864 0.707316 0.199277
H13   H     H_    0.410072 0.832818 0.476924 0.184725
S4    S     S_3+6 0.407487 0.062790 0.310194 0.006235
O30   O     O_2   0.351238 0.119324 0.257275 -0.338540
O31   O     O_2   0.270686 0.089268 0.366419 -0.283709
O32   O     O_3   0.632181 0.095420 0.338048 -0.469811
H14   H     H_    0.629079 0.169232 0.349023 0.362880
H15   H     H_    0.441503 0.959140 0.411145 0.244097
H16   H     H_    0.155368 0.045641 0.719933 0.218621
S5    S     S_3+6 0.281905 0.655876 0.980182 0.070745
O33   O     O_2   0.106623 0.702794 0.955193 -0.325335
O34   O     O_2   0.458731 0.697407 0.954725 -0.327402
O35   O     O_3   0.275450 0.532219 0.949504 -0.450442
H17   H     H_    0.233706 0.524955 0.902157 0.379296
S6    S     S_3+6 0.062641 0.517792 0.073608 0.140006
O36   O     O_2   0.177151 0.426476 0.045421 -0.256273
O37   O     O_2   0.938399 0.494615 0.127315 -0.273204
O38   O     O_3   0.918881 0.548581 0.013672 -0.424107
H18   H     H_    0.916024 0.489227 0.976622 0.398249
S7    S     S_3+6 0.979441 0.985817 0.596863 0.099446
O39   O     O_2   0.851572 0.945196 0.537141 -0.258953
O40   O     O_2   0.186022 0.963812 0.579503 -0.299837
O41   O     O_3   0.919783 0.924938 0.656892 -0.474748
H19   H     H_    0.954700 0.854383 0.639373 0.369104
S8    S     S_3+6 0.822221 0.450743 0.713362 -0.003694
O42   O     O_2   0.613973 0.479900 0.709991 -0.372049
O43   O     O_2   0.895009 0.476402 0.784590 -0.296971
O44   O     O_3   0.950995 0.519568 0.671231 -0.503501
H20   H     H_    0.858217 0.566747 0.657274 0.340647
S9    S     S_3+6 0.636627 0.325129 0.006870 0.099407
O45   O     O_2   0.464108 0.262888 0.014893 -0.289198
O46   O     O_2   0.799343 0.303473 0.051264 -0.322557
O47   O     O_3   0.577959 0.446485 0.028476 -0.428441
H21   H     H_    0.560859 0.459152 0.077290 0.420696
H22   H     H_    0.498011 0.396700 0.894806 0.219259
H23   H     H_    0.109772 0.089491 0.836754 0.141361
H24   H     H_    0.045579 0.240193 0.331521 0.214054

loop_
_geom_bond_atom_site_label_1
_geom_bond_atom_site_label_2
_ccdc_geom_bond_type
C33   C40   A    
S3    O27   D    
O14   C42   A    
S5    O33   D    
C5    C17   A    
V4    O20   S    
C4    C6    S    
S7    O39   D    
C29   C40   A    
C1    O6    A    
O41   H19   S    
C32   C34   A    
C30   C31   A    
C30   S6    S    
C9    H1    S    
C14   C15   A    
O26   H8    S    
O15   V3    S    
O5    C3    A    
S6    O36   D    
V3    O20   S    
V2    O10   S    
C40   C41   S    
S8    O42   D    
O12   C41   A    
C21   C22   D    
S9    O47   S    
C16   S8    S    
C31   C32   A    
C15   H23   S    
C28   C38   A    
C1    C26   S    
C39   H13   S    
O18   V4    S    
O17   V4    S    
O15   C43   A    
O7    V1    S    
O11   V4    S    
S5    O34   D    
O9    C4    A    
S4    O30   D    
O8    V2    S    
S2    O26   S    
C5    S7    S    
O4    V1    S    
O35   H17   S    
C18   C43   S    
O32   H14   S    
C41   O16   A    
C36   C37   A    
C11   C18   A    
C23   H10   S    
C6    C16   A    
C12   C13   A    
S2    O25   D    
C25   C26   D    
O19   V4    S    
O23   H7    S    
S4    O32   S    
C13   C14   A    
O16   V4    S    
C27   H15   S    
O17   V3    S    
C19   C21   S    
O2    C1    A    
S1    O21   D    
C8    H22   S    
C23   C24   D    
C28   C39   A    
C32   C33   A    
C24   C42   S    
C29   S5    S    
C35   C36   A    
S7    O40   D    
C6    C17   A    
C26   H12   S    
S4    O31   D    
S1    O22   D    
O12   V3    S    
S9    O45   D    
O3    C4    A    
C37   H6    S    
C27   C35   A    
O1    V2    S    
O13   C44   A    
C22   C44   S    
S5    O35   S    
C11   C15   A    
S3    O28   D    
C31   H5    S    
C10   C12   A    
O2    V1    S    
C29   C30   A    
O4    C2    A    
C38   H4    S    
C2    C28   S    
O14   V3    S    
C7    S9    S    
O1    C2    A    
C12   C16   A    
S2    O24   D    
O5    V1    S    
O44   H20   S    
C20   S2    S    
C17   S1    S    
O6    V2    S    
S8    O44   S    
C24   S3    S    
C5    C13   A    
C19   C20   D    
C19   H24   S    
C7    C8    A    
O9    V2    S    
O7    V2    S    
O19   C44   A    
C23   C25   S    
O3    V1    S    
V1    O10   S    
O38   H18   S    
C27   C39   A    
C22   H9    S    
O13   V3    S    
O29   H11   S    
S6    O37   D    
C34   C38   A    
S8    O43   D    
S7    O41   S    
C21   H2    S    
O18   C43   A    
S1    O23   S    
S9    O46   D    
C36   S4    S    
C33   C37   A    
C8    C9    A    
C25   H3    S    
C34   C35   A    
S3    O29   S    
C10   C11   A    
C3    C20   S    
C9    C10   A    
C7    C18   A    
O11   C42   A    
O8    C3    A    
C14   H16   S    
O47   H21   S    
S6    O38   S    
