data_mof_unit_25186.cif
_audit_creation_date              2012-12-10T17:34:36-0500
_audit_creation_method            fapswitch 2.2
_symmetry_space_group_name_H-M    P1
_symmetry_Int_Tables_number       1
_space_group_crystal_system       triclinic
_cell_length_a                    15.420318
_cell_length_b                    15.507266
_cell_length_c                    19.442507
_cell_angle_alpha                 77.408591
_cell_angle_beta                  97.933796
_cell_angle_gamma                 111.900515
_cell_volume                      4201.69343694

loop_
_atom_site_label
_atom_site_type_symbol
_atom_type_description
_atom_site_fract_x
_atom_site_fract_y
_atom_site_fract_z
_atom_type_partial_charge
C1    C     C_R   0.747603 0.543525 0.527999 0.545219
C2    C     C_2   0.495327 0.547072 0.010594 -0.155718
C3    C     C_2   0.478436 0.468764 0.984769 -0.154615
C4    C     C_R   0.252675 0.459447 0.471421 0.556019
C5    C     C_R   0.481817 0.479909 0.764140 0.035976
C6    C     C_R   0.002519 0.686036 0.529566 -0.134432
C7    C     C_R   0.848223 0.565351 0.535119 0.055811
C8    C     C_R   0.091586 0.341589 0.461608 0.264374
C9    C     C_R   0.993838 0.317780 0.452725 0.013548
C10   C     C_R   0.955266 0.382283 0.462375 -0.162765
C11   C     C_R   0.012548 0.472958 0.475768 -0.031078
C12   C     C_R   0.503659 0.542215 0.087313 0.025925
C13   C     C_R   0.109809 0.504750 0.465729 -0.009435
C14   C     C_R   0.975955 0.533325 0.498011 0.012487
C15   C     C_R   0.035687 0.626439 0.504657 -0.034119
C16   C     C_R   0.454370 0.249260 0.528738 0.525949
C17   C     C_R   0.127108 0.660987 0.483680 -0.124065
C18   C     C_R   0.162797 0.603163 0.458790 0.282453
C19   C     C_R   0.882390 0.503358 0.515733 -0.174063
C20   C     C_R   0.907445 0.657098 0.542708 0.265670
C21   C     C_R   0.150210 0.436675 0.463027 0.020004
C22   C     C_R   0.400918 0.000287 0.625162 0.277895
C23   C     C_R   0.592841 0.560206 0.124414 0.037786
C24   C     C_R   0.437895 0.148600 0.543065 -0.005346
C25   C     C_R   0.589862 0.904943 0.387014 0.248082
C26   C     C_R   0.586074 0.995247 0.364337 -0.141335
C27   C     C_R   0.550696 0.034731 0.406349 -0.163833
C28   C     C_R   0.545787 0.751682 0.472062 0.498834
C29   C     C_R   0.520716 0.986226 0.474342 0.018378
C30   C     C_R   0.530885 0.897193 0.499671 -0.062715
C31   C     C_R   0.479941 0.022525 0.517700 -0.059787
C32   C     C_R   0.448934 0.968388 0.584919 -0.014580
C33   C     C_R   0.471346 0.886830 0.612197 0.264033
C34   C     C_R   0.599546 0.553142 0.199071 0.017022
C35   C     C_R   0.512873 0.853503 0.570225 -0.099479
C36   C     C_R   0.470363 0.111750 0.497057 -0.196225
C37   C     C_R   0.406156 0.094376 0.608377 0.249629
C38   C     C_R   0.559323 0.853666 0.454125 0.015703
C39   C     C_R   0.487490 0.486824 0.688440 0.495385
C40   C     C_R   0.513841 0.512342 0.311312 0.500223
C41   C     C_R   0.515515 0.523319 0.234414 0.016213
C42   C     C_R   0.428814 0.505398 0.196262 -0.124770
C43   C     C_R   0.421358 0.516040 0.122828 0.011841
C44   C     C_3   0.904682 0.808796 0.531997 0.008595
C45   C     C_R   0.510620 0.411473 0.885624 -0.122178
C46   C     C_3   0.835923 0.856174 0.538238 -0.250455
C47   C     C_3   0.874628 0.962013 0.509114 -0.506003
C48   C     C_3   0.121239 0.217917 0.537313 -0.004649
C49   C     C_3   0.206655 0.259629 0.586328 -0.245198
C50   C     C_3   0.198500 0.199545 0.660150 -0.468661
C51   C     C_3   0.929737 0.222723 0.435488 -0.254628
C52   C     C_3   0.941694 0.213970 0.360991 -0.419491
C53   C     C_3   0.264261 0.727727 0.383371 -0.002335
C54   C     C_3   0.336704 0.742036 0.331683 -0.239759
C55   C     C_3   0.360804 0.838766 0.283723 -0.471849
C56   C     C_R   0.514524 0.416547 0.813674 -0.127395
C57   C     C_3   0.438364 0.148330 0.713655 0.047954
C58   C     C_3   0.384898 0.108822 0.780996 -0.256294
C59   C     C_3   0.451210 0.122819 0.846902 -0.493189
C60   C     C_3   0.524353 0.878392 0.728902 0.029841
C61   C     C_3   0.590477 0.822458 0.748477 -0.277457
C62   C     C_3   0.661042 0.856317 0.808859 -0.487791
C63   C     C_3   0.270738 0.874256 0.664487 0.051767
C64   C     C_3   0.186315 0.904412 0.663940 -0.264274
C65   C     C_3   0.165958 0.960156 0.592470 -0.439740
C66   C     C_3   0.709235 0.899827 0.332605 0.018045
C67   C     C_R   0.443536 0.536766 0.787479 -0.136745
C68   C     C_3   0.736257 0.833922 0.298827 -0.242334
C69   C     C_3   0.841341 0.870563 0.289841 -0.501368
C70   C     C_3   0.679324 0.584837 0.083675 -0.270469
C71   C     C_3   0.724809 0.691607 0.060547 -0.443949
C72   C     C_3   0.694469 0.574080 0.240864 -0.265118
C73   C     C_3   0.709294 0.483356 0.279825 -0.433271
C74   C     C_3   0.327002 0.499318 0.080701 -0.268578
C75   C     C_3   0.242296 0.477792 0.122894 -0.455976
C76   C     C_R   0.440787 0.532555 0.859326 -0.116828
C77   C     C_R   0.475849 0.470965 0.908779 0.040896
H1    H     H_    0.366852 0.484552 0.225029 0.138411
H2    H     H_    0.606304 0.033359 0.311921 0.113465
H3    H     H_    0.532038 0.793065 0.594732 0.148580
H4    H     H_    0.416812 0.585414 0.750301 0.145550
H5    H     H_    0.473298 0.403004 0.020960 0.122831
H6    H     H_    0.537154 0.363025 0.923249 0.097048
H7    H     H_    0.507760 0.615439 0.976429 0.120645
H8    H     H_    0.913091 0.815250 0.474794 0.121899
H9    H     H_    0.972859 0.845674 0.558601 0.135879
H10   H     H_    0.768709 0.823069 0.508708 0.175525
H11   H     H_    0.821793 0.845403 0.594623 0.171153
H12   H     H_    0.411094 0.577256 0.876062 0.105017
H13   H     H_    0.893295 0.975281 0.453633 0.139610
H14   H     H_    0.937977 0.997212 0.541628 0.136883
H15   H     H_    0.820875 0.993188 0.510625 0.141308
H16   H     H_    0.116347 0.145731 0.533741 0.144452
H17   H     H_    0.056425 0.209514 0.561570 0.106811
H18   H     H_    0.271312 0.264603 0.564100 0.198909
H19   H     H_    0.212157 0.331417 0.591303 0.145671
H20   H     H_    0.134541 0.194344 0.683505 0.131416
H21   H     H_    0.260435 0.233334 0.694297 0.159828
H22   H     H_    0.195573 0.127484 0.658379 0.180562
H23   H     H_    0.170463 0.733763 0.485930 0.089896
H24   H     H_    0.926644 0.271226 0.321730 0.143032
H25   H     H_    0.014034 0.218045 0.355977 0.192674
H26   H     H_    0.892099 0.144740 0.349368 0.115037
H27   H     H_    0.943584 0.164461 0.473835 0.146665
H28   H     H_    0.855074 0.212404 0.439124 0.123581
H29   H     H_    0.292376 0.785566 0.414666 0.141879
H30   H     H_    0.198681 0.730814 0.352243 0.116666
H31   H     H_    0.401506 0.735806 0.361533 0.200016
H32   H     H_    0.308763 0.686087 0.298739 0.155904
H33   H     H_    0.297652 0.845049 0.251089 0.134015
H34   H     H_    0.050306 0.755570 0.536790 0.086382
H35   H     H_    0.415180 0.847765 0.248105 0.169492
H36   H     H_    0.388440 0.895722 0.315692 0.159720
H37   H     H_    0.474059 0.225933 0.709895 0.159356
H38   H     H_    0.494232 0.117303 0.718180 0.121183
H39   H     H_    0.334496 0.144779 0.780199 0.151157
H40   H     H_    0.344809 0.032115 0.783708 0.201032
H41   H     H_    0.500596 0.084915 0.850107 0.144777
H42   H     H_    0.410125 0.094204 0.894641 0.144953
H43   H     H_    0.491562 0.199108 0.845995 0.139503
H44   H     H_    0.491162 0.874560 0.777247 0.168047
H45   H     H_    0.832779 0.433597 0.512056 0.099638
H46   H     H_    0.565048 0.954829 0.710434 0.111751
H47   H     H_    0.549060 0.746258 0.764741 0.176648
H48   H     H_    0.629166 0.830876 0.701878 0.146426
H49   H     H_    0.703991 0.932279 0.793617 0.143449
H50   H     H_    0.708264 0.814927 0.821304 0.151663
H51   H     H_    0.624240 0.846122 0.856895 0.139652
H52   H     H_    0.260778 0.809551 0.705394 0.153363
H53   H     H_    0.271736 0.852328 0.613656 0.126568
H54   H     H_    0.123215 0.839946 0.676044 0.117244
H55   H     H_    0.197785 0.946993 0.705749 0.179069
H56   H     H_    0.880019 0.360375 0.457965 0.107169
H57   H     H_    0.224091 0.028051 0.579067 0.191034
H58   H     H_    0.102157 0.976272 0.594605 0.113392
H59   H     H_    0.154058 0.918459 0.550105 0.120089
H60   H     H_    0.749081 0.905817 0.384782 0.128279
H61   H     H_    0.728812 0.970846 0.298157 0.118114
H62   H     H_    0.715921 0.762708 0.332813 0.203310
H63   H     H_    0.697957 0.827220 0.246316 0.164289
H64   H     H_    0.863263 0.941166 0.255096 0.144723
H65   H     H_    0.858416 0.820935 0.265371 0.139724
H66   H     H_    0.880873 0.875942 0.341961 0.140469
H67   H     H_    0.543586 0.371414 0.796841 0.119694
H68   H     H_    0.675753 0.719521 0.023634 0.149252
H69   H     H_    0.744318 0.727884 0.106717 0.144281
H70   H     H_    0.789003 0.707744 0.032993 0.133919
H71   H     H_    0.730697 0.554757 0.114608 0.132066
H72   H     H_    0.661889 0.551631 0.036082 0.153035
H73   H     H_    0.655601 0.443081 0.318792 0.152261
H74   H     H_    0.705728 0.438179 0.241584 0.140286
H75   H     H_    0.779372 0.501182 0.308534 0.135484
H76   H     H_    0.754109 0.615357 0.207551 0.128770
H77   H     H_    0.702498 0.621365 0.278232 0.169828
H78   H     H_    0.494789 0.158041 0.448201 0.118145
H79   H     H_    0.229589 0.410348 0.161155 0.152571
H80   H     H_    0.252941 0.536525 0.150943 0.148401
H81   H     H_    0.179031 0.470171 0.086202 0.136984
H82   H     H_    0.332191 0.563434 0.040007 0.144849
H83   H     H_    0.312433 0.439441 0.052890 0.154065
H84   H     H_    0.546668 0.102866 0.383150 0.107892
O1    O     O_3   0.500000 0.500000 0.500000 -0.443888
O2    O     O_R   0.533750 0.444440 0.667550 -0.555302
O3    O     O_R   0.573150 0.573190 0.344350 -0.558787
O4    O     O_R   0.446010 0.535260 0.643730 -0.549787
O5    O     O_R   0.447090 0.447110 0.344370 -0.544886
O6    O     O_3   0.869632 0.713470 0.566205 -0.571490
O7    O     O_3   0.130365 0.272345 0.467933 -0.553292
O8    O     O_3   0.249460 0.639810 0.429207 -0.551401
O9    O     O_3   0.374269 0.131777 0.653961 -0.581586
O10   O     O_3   0.451670 0.837047 0.679983 -0.556936
O11   O     O_3   0.355387 0.943885 0.684515 -0.546749
O12   O     O_R   0.412670 0.287020 0.475980 -0.543794
O13   O     O_3   0.611626 0.861993 0.339862 -0.558496
O14   O     O_R   0.592640 0.718300 0.442410 -0.515141
O15   O     O_R   0.691640 0.476740 0.569450 -0.542066
O16   O     O_R   0.303050 0.517940 0.512160 -0.502308
O17   O     O_R   0.716100 0.590510 0.475920 -0.544240
O18   O     O_R   0.289200 0.414810 0.442470 -0.506700
O19   O     O_R   0.514260 0.299330 0.569480 -0.546798
O20   O     O_R   0.480430 0.695350 0.512130 -0.534797
Zn1   Zn    Zn3+2 0.413740 0.413730 0.441720 0.945118
Zn2   Zn    Zn3+2 0.558890 0.431320 0.575310 0.920107
Zn3   Zn    Zn3+2 0.433530 0.561080 0.541290 0.953802
Zn4   Zn    Zn3+2 0.593840 0.593870 0.441680 0.927934

loop_
_geom_bond_atom_site_label_1
_geom_bond_atom_site_label_2
_ccdc_geom_bond_type
C16   O12   A    
O15   Zn2   S    
C66   C68   S    
C52   H26   S    
C59   H43   S    
C55   H35   S    
C27   C29   A    
C47   H15   S    
C75   H79   S    
C5    C56   A    
C2    H7    S    
O5    Zn1   S    
C10   H56   S    
C4    O16   A    
C5    C67   A    
C2    C12   S    
C63   O11   S    
C1    O15   A    
C53   C54   S    
C70   H72   S    
C12   C23   A    
C52   H25   S    
C26   C27   A    
C24   C36   A    
C48   H17   S    
C74   H82   S    
C61   H47   S    
O1    Zn1   S    
C12   C43   A    
C62   H50   S    
C73   H73   S    
C11   C14   A    
O20   Zn3   S    
C69   H64   S    
C35   H3    S    
C22   O11   S    
C30   C38   A    
C41   C42   A    
C63   H53   S    
C8    O7    S    
C6    C15   A    
C46   C47   S    
O17   Zn4   S    
C53   H29   S    
C6    H34   S    
C64   H55   S    
C45   C56   A    
C8    C9    A    
C9    C51   S    
C70   C71   S    
C9    C10   A    
C40   O5    A    
C65   H57   S    
O19   Zn2   S    
C53   O8    S    
C76   H12   S    
O18   Zn1   S    
C75   H80   S    
C43   C74   S    
C57   O9    S    
C16   C24   S    
C73   H74   S    
C58   H39   S    
O4    Zn3   S    
C23   C70   S    
C45   H6    S    
C34   C41   A    
C44   H9    S    
C25   O13   S    
C44   C46   S    
C8    C21   A    
C46   H11   S    
C60   H44   S    
C52   H24   S    
C50   H21   S    
C72   H77   S    
C48   H16   S    
O2    Zn2   S    
C51   C52   S    
C76   C77   A    
C57   H38   S    
O3    Zn4   S    
C74   C75   S    
C37   O9    S    
C62   H49   S    
C68   C69   S    
C55   H36   S    
C69   H65   S    
C22   C37   A    
C7    C20   A    
C58   H40   S    
C54   H32   S    
C60   C61   S    
C44   O6    S    
C39   O4    A    
C60   H46   S    
C28   O20   A    
O1    Zn3   S    
C29   C30   A    
C25   C38   A    
O14   Zn4   S    
C1    O17   A    
C53   H30   S    
C31   C32   A    
C66   H61   S    
C64   H54   S    
C28   C38   S    
C51   H28   S    
C23   C34   A    
C3    H5    S    
C14   C15   A    
C17   C18   A    
C50   H22   S    
C13   C21   A    
C49   H18   S    
C71   H70   S    
C65   H58   S    
C22   C32   A    
C13   C18   A    
C75   H81   S    
C40   C41   S    
C71   H68   S    
O12   Zn1   S    
C67   H4    S    
C59   H41   S    
C7    C19   A    
C5    C39   S    
C73   H75   S    
C47   H13   S    
C68   H63   S    
C70   H71   S    
C42   C43   A    
C4    O18   A    
C39   O2    A    
C44   H8    S    
C33   O10   S    
C34   C72   S    
C6    C20   A    
C42   H1    S    
C46   H10   S    
C18   O8    S    
C24   C37   A    
C15   C17   A    
C20   O6    S    
C54   C55   S    
C48   C49   S    
C50   H20   S    
C59   H42   S    
C72   H76   S    
C51   H27   S    
C1    C7    S    
C60   O10   S    
C47   H14   S    
C14   C19   A    
C72   C73   S    
O1    Zn4   S    
C61   H48   S    
C28   O14   A    
C40   O3    A    
C57   H37   S    
C74   H83   S    
C69   H66   S    
O16   Zn3   S    
C30   C35   A    
C26   H2    S    
C54   H31   S    
C32   C33   A    
C2    C3    D    
C25   C26   A    
O1    Zn2   S    
C55   H33   S    
C64   C65   S    
C62   H51   S    
C4    C21   S    
C11   C13   A    
C57   C58   S    
C66   H60   S    
C19   H45   S    
C33   C35   A    
C63   H52   S    
C49   H19   S    
C61   C62   S    
C17   H23   S    
C58   C59   S    
C65   H59   S    
C10   C11   A    
C63   C64   S    
C56   H67   S    
C71   H69   S    
C29   C31   A    
C49   C50   S    
C31   C36   A    
C66   O13   S    
C68   H62   S    
C45   C77   A    
C67   C76   A    
C48   O7    S    
C27   H84   S    
C16   O19   A    
C36   H78   S    
C3    C77   S    
