data_mof_unit_53653.cif
_audit_creation_date              2012-10-26T19:07:27-0400
_audit_creation_method            fapswitch 2.2
_symmetry_space_group_name_H-M    P1
_symmetry_Int_Tables_number       1
_space_group_crystal_system       triclinic
_cell_length_a                    15.004698
_cell_length_b                    13.848711
_cell_length_c                    10.661668
_cell_angle_alpha                 89.79034
_cell_angle_beta                  86.871634
_cell_angle_gamma                 89.642218
_cell_volume                      2212.09218011

loop_
_atom_site_label
_atom_site_type_symbol
_atom_type_description
_atom_site_fract_x
_atom_site_fract_y
_atom_site_fract_z
_atom_type_partial_charge
C1    C     C_R   0.329022 0.500223 0.501578 0.580901
C2    C     C_R   0.964849 0.478253 0.272365 -0.129078
C3    C     C_R   0.434753 0.794234 0.569146 0.366098
C4    C     C_R   0.553573 0.205590 0.413951 0.362253
C5    C     C_R   0.565442 0.793727 0.431111 0.364173
C6    C     C_R   0.443625 0.206641 0.583558 0.372164
C7    C     C_R   0.563092 0.896706 0.424364 -0.020786
C8    C     C_R   0.439643 0.103497 0.581024 -0.019612
C9    C     C_R   0.437894 0.897003 0.577656 -0.021680
C10   C     C_R   0.559990 0.102916 0.420263 -0.021268
C11   C     C_R   0.500833 0.948348 0.501745 -0.021032
C12   C     C_R   0.671052 0.499721 0.498711 0.580115
C13   C     C_R   0.500677 0.051671 0.501851 -0.021105
C14   C     C_R   0.621886 0.949305 0.342850 -0.143409
C15   C     C_R   0.376558 0.050813 0.655641 -0.144284
C16   C     C_R   0.377913 0.949780 0.657544 -0.143084
C17   C     C_R   0.622215 0.050314 0.343670 -0.148789
C18   C     C_R   0.501936 0.500453 0.259394 0.580029
C19   C     C_R   0.500631 0.500173 0.740488 0.574666
C20   C     C_3   0.479789 0.591566 0.042677 -0.124464
C21   C     C_3   0.526732 0.413380 0.957462 -0.185578
C22   C     C_3   0.561803 0.568971 0.952284 -0.139085
C23   C     C_R   0.953405 0.507841 0.497766 0.018784
C24   C     C_3   0.443980 0.435920 0.046821 -0.195027
C25   C     C_3   0.422411 0.524572 0.966031 0.281553
C26   C     C_3   0.583763 0.480923 0.033738 0.283269
C27   C     C_3   0.502966 0.501634 0.877099 0.018534
C28   C     C_3   0.502857 0.502360 0.122585 0.023051
C29   C     C_R   0.819034 0.476472 0.387786 0.246563
C30   C     C_R   0.181340 0.507897 0.616282 0.238773
C31   C     C_R   0.767722 0.499627 0.497914 -0.006877
C32   C     C_R   0.232500 0.501113 0.502282 -0.003378
C33   C     C_R   0.808477 0.524359 0.607837 -0.207062
C34   C     C_R   0.046935 0.508198 0.499203 0.019435
C35   C     C_R   0.191802 0.494956 0.388101 -0.198495
C36   C     C_R   0.901276 0.524649 0.609943 0.002601
C37   C     C_R   0.099039 0.495426 0.386033 0.005066
C38   C     C_3   0.276050 0.560136 0.023629 -0.100278
C39   C     C_3   0.731069 0.450770 0.975224 -0.110932
C40   C     C_3   0.788093 0.341895 0.278992 -0.066979
C41   C     C_3   0.214817 0.406068 0.773330 -0.091290
C42   C     C_3   0.286910 0.756399 0.569451 -0.079955
C43   C     C_3   0.559938 0.240274 0.204920 -0.112960
C44   C     C_3   0.713513 0.752761 0.424069 -0.087476
C45   C     C_R   0.912164 0.487962 0.384858 0.013258
C46   C     C_3   0.413927 0.247284 0.789852 -0.119553
C47   C     C_R   0.088191 0.518318 0.614331 0.011477
C48   C     C_R   0.942790 0.540906 0.722324 -0.145550
C49   C     C_R   0.057541 0.482873 0.272880 -0.144563
C50   C     C_R   0.035494 0.536567 0.724907 -0.131156
Cu1   Cu    Cu3+1 0.500000 0.597420 0.500000 1.070431
Cu2   Cu    Cu3+1 0.500000 0.402580 0.500000 1.055603
H1    H     H_    0.459674 0.663720 0.079826 0.128461
H2    H     H_    0.934610 0.466754 0.183722 0.139859
H3    H     H_    0.667502 0.912970 0.276363 0.140927
H4    H     H_    0.324263 0.086704 0.711564 0.132219
H5    H     H_    0.330860 0.913452 0.721825 0.143782
H6    H     H_    0.671328 0.086979 0.282808 0.129228
H7    H     H_    0.297205 0.614112 0.092907 0.100163
H8    H     H_    0.263182 0.489198 0.069954 0.079197
H9    H     H_    0.212037 0.585844 0.987749 0.157018
H10   H     H_    0.742414 0.522133 0.929372 0.106041
H11   H     H_    0.710880 0.396497 0.905677 0.090356
H12   H     H_    0.550378 0.342044 0.922454 0.087501
H13   H     H_    0.795774 0.426559 0.010330 0.143134
H14   H     H_    0.761358 0.306756 0.367166 0.158522
H15   H     H_    0.859016 0.320348 0.260375 0.068615
H16   H     H_    0.750788 0.313691 0.200294 0.181978
H17   H     H_    0.239319 0.352782 0.701411 0.167130
H18   H     H_    0.144756 0.389254 0.804613 0.081606
H19   H     H_    0.255665 0.396945 0.855924 0.158703
H20   H     H_    0.237239 0.703716 0.607946 0.166429
H21   H     H_    0.296766 0.743282 0.466545 0.110806
H22   H     H_    0.256766 0.828899 0.584426 0.076646
H23   H     H_    0.609761 0.622515 0.910876 0.109712
H24   H     H_    0.487139 0.256843 0.211981 0.125901
H25   H     H_    0.569967 0.165863 0.168896 0.078046
H26   H     H_    0.591951 0.288575 0.133504 0.169299
H27   H     H_    0.760570 0.696215 0.387345 0.156229
H28   H     H_    0.705435 0.743265 0.527945 0.116560
H29   H     H_    0.745860 0.823015 0.402979 0.081431
H30   H     H_    0.486639 0.232170 0.795963 0.102571
H31   H     H_    0.375076 0.190344 0.840682 0.082219
H32   H     H_    0.397805 0.314833 0.841263 0.152007
H33   H     H_    0.395435 0.382549 0.087170 0.086555
H34   H     H_    0.767658 0.540402 0.692389 0.091118
H35   H     H_    0.232630 0.487633 0.301530 0.088920
H36   H     H_    0.903498 0.554610 0.808814 0.100744
H37   H     H_    0.096814 0.474286 0.185221 0.094710
H38   H     H_    0.065754 0.547532 0.813654 0.141775
N1    N     N_R   0.500000 0.743810 0.500000 -0.232913
N2    N     N_R   0.500000 0.256190 0.500000 -0.224478
O1    O     O_R   0.370260 0.582280 0.500030 -0.479842
O2    O     O_3   0.668188 0.458234 0.077910 -0.513206
O3    O     O_3   0.777563 0.443339 0.283780 -0.522272
O4    O     O_3   0.222846 0.502045 0.728698 -0.528570
O5    O     O_3   0.366845 0.744047 0.633029 -0.507859
O6    O     O_3   0.600623 0.255450 0.319964 -0.551531
O7    O     O_3   0.631888 0.742785 0.364266 -0.526371
O8    O     O_3   0.387194 0.258626 0.665348 -0.551687
O9    O     O_R   0.629740 0.417720 0.499970 -0.476184
O10   O     O_R   0.629740 0.582280 0.499970 -0.488118
O11   O     O_R   0.370260 0.417720 0.500030 -0.475339
O12   O     O_R   0.499980 0.582260 0.316850 -0.488718
O13   O     O_R   0.500020 0.417740 0.683150 -0.498686
O14   O     O_R   0.500020 0.582260 0.683150 -0.465511
O15   O     O_R   0.499980 0.417740 0.316850 -0.477776
O16   O     O_3   0.338979 0.550787 0.921335 -0.501077

loop_
_geom_bond_atom_site_label_1
_geom_bond_atom_site_label_2
_ccdc_geom_bond_type
C26   O2    S    
C21   C26   S    
Cu2   O11   S    
C8    C13   A    
C23   C45   A    
C4    O6    S    
C34   C37   A    
C43   O6    S    
C43   H26   S    
C7    C11   A    
C35   C37   A    
C9    C16   A    
C44   O7    S    
C41   O4    S    
C20   C25   S    
C10   C17   A    
C15   C16   A    
C33   C36   A    
C3    N1    A    
C18   O15   A    
C21   H12   S    
C30   O4    S    
Cu1   N1    S    
C46   H30   S    
C35   H35   S    
C50   H38   S    
C7    C14   A    
C5    O7    S    
Cu2   O15   S    
C40   H15   S    
C48   H36   S    
C19   C27   S    
C24   H33   S    
C1    O11   A    
C17   H6    S    
C41   H19   S    
C38   H9    S    
C48   C50   A    
C14   H3    S    
C21   C27   S    
C40   H14   S    
C39   H13   S    
C14   C17   A    
C22   H23   S    
C42   H20   S    
C47   C50   A    
C2    C45   A    
Cu2   O9    S    
C42   H22   S    
Cu1   Cu2   S    
C32   C35   A    
C30   C47   A    
C44   H28   S    
C18   C28   S    
C24   C25   S    
C44   H29   S    
C2    H2    S    
C42   O5    S    
C5    C7    A    
C6    C8    A    
C20   C28   S    
Cu1   O12   S    
C1    C32   S    
C46   H31   S    
C29   C45   A    
Cu1   O10   S    
C6    O8    S    
C33   H34   S    
C39   O2    S    
C12   O10   A    
C3    C9    A    
C2    C49   A    
C37   C49   A    
C3    O5    S    
C23   C34   A    
C31   C33   A    
C18   O12   A    
C9    C11   A    
C5    N1    A    
Cu1   O1    S    
C46   H32   S    
C19   O13   A    
C20   C22   S    
Cu2   O13   S    
C8    C15   A    
C22   C27   S    
C12   C31   S    
C22   C26   S    
C38   H8    S    
Cu2   N2    S    
C43   H25   S    
C40   O3    S    
C4    C10   A    
C41   H17   S    
C43   H24   S    
C39   H10   S    
C46   O8    S    
C42   H21   S    
C44   H27   S    
C24   C28   S    
C49   H37   S    
C20   H1    S    
C10   C13   A    
C25   C27   S    
C39   H11   S    
C26   C28   S    
C15   H4    S    
C12   O9    A    
C29   C31   A    
C30   C32   A    
C11   C13   A    
Cu1   O14   S    
C6    N2    A    
C36   C48   A    
C16   H5    S    
C38   O16   S    
C29   O3    S    
C38   H7    S    
C19   O14   A    
C1    O1    A    
C23   C36   A    
C40   H16   S    
C21   C24   S    
C34   C47   A    
C25   O16   S    
C41   H18   S    
C4    N2    A    
