data_mof_unit_56452.cif
_audit_creation_date              2012-12-11T15:35:55-0500
_audit_creation_method            fapswitch 2.2
_symmetry_space_group_name_H-M    P1
_symmetry_Int_Tables_number       1
_space_group_crystal_system       triclinic
_cell_length_a                    7.246764
_cell_length_b                    12.724846
_cell_length_c                    34.779241
_cell_angle_alpha                 90.183762
_cell_angle_beta                  91.196438
_cell_angle_gamma                 89.844947
_cell_volume                      3206.40452472

loop_
_atom_site_label
_atom_site_type_symbol
_atom_type_description
_atom_site_fract_x
_atom_site_fract_y
_atom_site_fract_z
_atom_type_partial_charge
O1    O     O_R   0.379730 0.148600 0.662710 -0.533212
O2    O     O_R   0.620270 0.851400 0.337290 -0.526793
O3    O     O_R   0.120270 0.648600 0.337290 -0.522111
O4    O     O_R   0.879730 0.351400 0.662710 -0.559625
O5    O     O_R   0.722480 0.134490 0.741330 -0.532647
O6    O     O_R   0.277520 0.865510 0.258670 -0.546451
O7    O     O_R   0.777520 0.634490 0.258670 -0.550221
O8    O     O_R   0.222480 0.365510 0.741330 -0.547254
O9    O     O_R   0.892880 0.345890 0.741600 -0.532783
O10   O     O_R   0.107120 0.654110 0.258400 -0.541868
O11   O     O_R   0.607120 0.845890 0.258400 -0.540705
O12   O     O_R   0.392880 0.154110 0.741600 -0.544920
C1    C     C_R   0.553937 0.110231 0.753338 0.684545
C2    C     C_R   0.447093 0.887599 0.246311 0.677263
C3    C     C_R   0.945820 0.614831 0.245193 0.675640
C4    C     C_R   0.051455 0.391836 0.752403 0.688899
O13   O     O_R   0.709490 0.135560 0.662990 -0.557347
O14   O     O_R   0.290510 0.864440 0.337010 -0.545195
O15   O     O_R   0.790510 0.635560 0.337010 -0.546097
O16   O     O_R   0.209490 0.364440 0.662990 -0.531692
C5    C     C_R   0.540580 0.112161 0.650918 0.723490
C6    C     C_R   0.460938 0.898488 0.344773 0.753404
C7    C     C_R   0.961391 0.602062 0.344921 0.754091
C8    C     C_R   0.039154 0.387211 0.651092 0.713594
O17   O     O_3   0.552800 0.316610 0.702160 -0.381012
O18   O     O_3   0.447200 0.683390 0.297840 -0.380518
O19   O     O_3   0.947200 0.816610 0.297840 -0.380257
O20   O     O_3   0.052800 0.183390 0.702160 -0.387605
V1    V     V_3+5 0.827630 0.234380 0.702160 1.373364
V2    V     V_3+5 0.172370 0.765620 0.297840 1.430062
V3    V     V_3+5 0.672370 0.734380 0.297840 1.422304
V4    V     V_3+5 0.327630 0.265620 0.702160 1.399016
C9    C     C_R   0.962160 0.718339 0.905871 0.587897
C10   C     C_R   0.960495 0.367407 0.072946 0.617183
C11   C     C_R   0.525760 0.145864 0.074684 0.584878
C12   C     C_R   0.558614 0.813822 0.917823 0.613189
O21   O     O_2   0.850228 0.644525 0.918818 -0.508833
O22   O     O_2   0.910793 0.466294 0.064131 -0.503812
O23   O     O_2   0.589034 0.051768 0.064679 -0.518826
O24   O     O_2   0.659358 0.893166 0.931931 -0.518699
N1    N     N_R   0.984880 0.735388 0.866973 -0.535691
N2    N     N_R   0.968324 0.334212 0.110854 -0.543059
N3    N     N_R   0.485450 0.170185 0.112619 -0.540226
N4    N     N_R   0.531640 0.797699 0.878643 -0.532720
C13   C     C_R   0.020543 0.840105 0.857581 0.641199
C14   C     C_R   0.983968 0.227353 0.117304 0.639113
C15   C     C_R   0.437403 0.274011 0.119332 0.597877
C16   C     C_R   0.469617 0.698541 0.868536 0.565825
C17   C     C_R   0.980418 0.664985 0.797278 -0.138650
C18   C     C_R   0.872302 0.378928 0.178483 -0.059070
C19   C     C_R   0.517789 0.130928 0.184471 -0.097379
C20   C     C_R   0.577264 0.849056 0.808639 -0.088137
C21   C     C_R   0.011520 0.584626 0.769899 -0.213941
C22   C     C_R   0.869549 0.444081 0.211162 -0.216815
C23   C     C_R   0.498925 0.066396 0.217013 -0.213412
C24   C     C_R   0.569172 0.921693 0.777928 -0.163238
C25   C     C_R   0.011480 0.457171 0.819661 -0.277341
C26   C     C_R   0.032065 0.576553 0.176783 -0.358059
C27   C     C_R   0.452128 0.917936 0.176045 -0.318403
C28   C     C_R   0.554360 0.061644 0.823140 -0.214559
C29   C     C_R   0.990267 0.536109 0.847904 0.529358
C30   C     C_R   0.035618 0.511649 0.143103 0.499625
C31   C     C_R   0.469944 0.981034 0.143173 0.527094
C32   C     C_R   0.552843 0.990729 0.854314 0.486682
C33   C     C_R   0.981588 0.646429 0.837875 0.273166
C34   C     C_R   0.958808 0.408591 0.143902 0.349293
C35   C     C_R   0.491168 0.093797 0.145880 0.305326
C36   C     C_R   0.555044 0.879269 0.847935 0.236877
C37   C     C_R   0.036657 0.894573 0.924997 -0.075506
C38   C     C_R   0.001408 0.189242 0.048672 -0.119080
C39   C     C_R   0.478659 0.325869 0.052818 -0.123485
C40   C     C_R   0.480471 0.635275 0.934246 -0.064183
C41   C     C_R   0.026916 0.788412 0.933908 0.006919
C42   C     C_R   0.996254 0.297453 0.042153 0.004047
C43   C     C_R   0.508187 0.220018 0.044525 -0.005764
C44   C     C_R   0.499084 0.740284 0.944942 0.034959
C45   C     C_R   0.053659 0.755780 0.971760 -0.131608
C46   C     C_R   0.025939 0.333738 0.004920 -0.159578
C47   C     C_R   0.539849 0.190791 0.006418 -0.167705
C48   C     C_R   0.474346 0.768668 0.983030 -0.195339
C49   C     C_R   0.018635 0.922169 0.886198 -0.167305
C50   C     C_R   0.980290 0.153856 0.086517 -0.222947
C51   C     C_R   0.462829 0.354635 0.091546 -0.162218
C52   C     C_R   0.483022 0.612198 0.894777 -0.115633
C53   C     C_R   0.033411 0.479686 0.781034 -0.104827
C54   C     C_R   0.952322 0.543068 0.210953 -0.071088
C55   C     C_R   0.459303 0.959702 0.212926 -0.071504
C56   C     C_R   0.549328 0.029486 0.784872 -0.080625
C57   C     C_R   0.014487 0.008395 0.024635 -0.162903
C58   C     C_R   0.032619 0.080039 0.946700 -0.114684
C59   C     C_R   0.485482 0.448404 0.952465 -0.113617
C60   C     C_R   0.482493 0.509582 0.033091 -0.085033
C61   C     C_R   0.036137 0.153843 0.978762 0.111636
C62   C     C_R   0.051016 0.936913 0.993960 0.097693
C63   C     C_R   0.474126 0.585499 0.002834 0.129863
C64   C     C_R   0.493942 0.371239 0.983263 0.110336
C65   C     C_R   0.019062 0.116931 0.017268 0.029804
C66   C     C_R   0.042813 0.971360 0.955197 0.046040
C67   C     C_R   0.479013 0.555537 0.963175 0.003512
C68   C     C_R   0.479415 0.402558 0.022874 0.013550
C69   C     C_R   0.951765 0.975434 0.061632 0.381878
C70   C     C_R   0.010305 0.107846 0.906709 0.342811
C71   C     C_R   0.482278 0.424072 0.911655 0.338232
C72   C     C_R   0.522756 0.537179 0.072664 0.439730
C73   C     C_R   0.945465 0.046836 0.092852 0.474372
C74   C     C_R   0.002334 0.029698 0.877059 0.431989
C75   C     C_R   0.501356 0.505956 0.883383 0.418950
C76   C     C_R   0.497991 0.460157 0.102513 0.473904
O25   O     O_2   0.011426 0.190696 0.153273 -0.511933
O26   O     O_2   0.065404 0.867284 0.821736 -0.524268
O27   O     O_2   0.374797 0.685877 0.835383 -0.560332
O28   O     O_2   0.351926 0.299934 0.151787 -0.532685
C77   C     C_R   0.082088 0.829323 0.000688 -0.199233
C78   C     C_R   0.053452 0.263458 0.974504 -0.154186
C79   C     C_R   0.533716 0.264122 0.976808 -0.129289
C80   C     C_R   0.451935 0.692433 0.011121 -0.188526
H1    H     H_    0.800709 0.417134 0.236644 0.122126
H2    H     H_    0.012072 0.604413 0.739632 0.117786
H3    H     H_    0.582531 0.893461 0.748708 0.106429
H4    H     H_    0.517469 0.100032 0.245480 0.117875
H5    H     H_    0.799423 0.305867 0.180098 0.152769
H6    H     H_    0.947816 0.740366 0.785133 0.178829
H7    H     H_    0.604243 0.768283 0.801024 0.143769
H8    H     H_    0.555516 0.210911 0.190508 0.157608
H9    H     H_    0.113308 0.799470 0.028977 0.148764
H10   H     H_    0.099618 0.296896 0.948560 0.183706
H11   H     H_    0.574936 0.234579 0.949685 0.174611
H12   H     H_    0.419330 0.718205 0.039629 0.127972
C81   C     C_R   0.975603 0.520533 0.373912 -0.100618
C82   C     C_R   0.023924 0.449709 0.617319 -0.096719
C83   C     C_R   0.541232 0.047563 0.616965 -0.097683
C84   C     C_R   0.474143 0.983604 0.372728 -0.104843
C85   C     C_R   0.931066 0.342519 0.394542 -0.155099
C86   C     C_R   0.006552 0.622561 0.590985 -0.142121
C87   C     C_R   0.681916 0.897026 0.588813 -0.163154
C88   C     C_R   0.428601 0.164553 0.391403 -0.160495
C89   C     C_R   0.931239 0.416685 0.365324 -0.290321
C90   C     C_R   0.986697 0.556198 0.621834 -0.283444
C91   C     C_R   0.621572 0.949111 0.620734 -0.277429
C92   C     C_R   0.429257 0.087013 0.362950 -0.291648
C93   C     C_R   0.023903 0.551297 0.411224 0.385885
C94   C     C_R   0.046729 0.403997 0.580606 0.367931
C95   C     C_R   0.515586 0.095590 0.580764 0.401511
C96   C     C_R   0.524328 0.957715 0.410306 0.375345
C97   C     C_R   0.033076 0.476330 0.441317 -0.026279
C98   C     C_R   0.046410 0.471586 0.548697 -0.057802
C99   C     C_R   0.569918 0.041207 0.546841 -0.065472
C100  C     C_R   0.536945 0.036653 0.438964 -0.029795
C101  C     C_R   0.975529 0.371693 0.432725 0.031635
C102  C     C_R   0.058398 0.581631 0.555378 -0.017498
C103  C     C_R   0.659239 0.941252 0.552208 -0.045154
C104  C     C_R   0.473817 0.138905 0.429835 0.034523
C105  C     C_R   0.076996 0.504411 0.480129 -0.009600
C106  C     C_R   0.036748 0.434166 0.510131 0.011254
C107  C     C_R   0.539807 0.078792 0.508012 0.021464
C108  C     C_R   0.594473 0.013533 0.477141 0.011932
C109  C     C_R   0.970567 0.333034 0.500657 -0.188262
C110  C     C_R   0.152900 0.602511 0.490356 -0.246023
C111  C     C_R   0.705492 0.925868 0.484684 -0.209084
C112  C     C_R   0.459355 0.177077 0.497850 -0.230895
C113  C     C_R   0.949648 0.299740 0.462658 0.442021
C114  C     C_R   0.128332 0.646022 0.526390 0.495983
C115  C     C_R   0.720410 0.883581 0.520821 0.473546
C116  C     C_R   0.444309 0.210944 0.459631 0.439048
H13   H     H_    0.957989 0.588985 0.649905 0.126623
H14   H     H_    0.891827 0.393866 0.336265 0.132026
H15   H     H_    0.389182 0.106786 0.333671 0.133008
H16   H     H_    0.647543 0.915187 0.648907 0.130778
H17   H     H_    0.888235 0.263276 0.387344 0.169860
H18   H     H_    0.988837 0.705495 0.595788 0.158514
H19   H     H_    0.747391 0.821563 0.593104 0.162933
H20   H     H_    0.384485 0.243176 0.383590 0.172847
H21   H     H_    0.921470 0.280182 0.522181 0.159404
H22   H     H_    0.224621 0.649811 0.470429 0.174657
H23   H     H_    0.779666 0.887546 0.462212 0.166497
H24   H     H_    0.402644 0.231213 0.517783 0.219663
H25   H     H_    0.003417 0.375743 0.828056 0.132261
H26   H     H_    0.096408 0.653004 0.177230 0.115907
H27   H     H_    0.436801 0.833684 0.172467 0.114135
H28   H     H_    0.567549 0.143706 0.828975 0.105152
O29   O     O_3   0.120659 0.303712 0.575693 -0.548709
C117  C     C_3   0.021443 0.222212 0.593380 -0.125120
H29   H     H_    0.002272 0.156801 0.572512 0.138213
H30   H     H_    0.885005 0.245494 0.603399 0.073050
H31   H     H_    0.102476 0.191049 0.618146 0.190672
O30   O     O_3   0.050220 0.657346 0.417506 -0.590457
C118  C     C_3   0.879497 0.706444 0.424296 -0.241302
H32   H     H_    0.862479 0.714706 0.455549 0.196826
H33   H     H_    0.756428 0.664934 0.411923 0.146538
H34   H     H_    0.883394 0.785795 0.411302 0.186670
O31   O     O_3   0.547760 0.852595 0.418828 -0.591332
C119  C     C_3   0.378125 0.810291 0.429940 -0.260503
H35   H     H_    0.350030 0.830835 0.460330 0.165333
H36   H     H_    0.259494 0.835656 0.411310 0.172291
H37   H     H_    0.390379 0.724009 0.427016 0.180846
O32   O     O_3   0.419644 0.189358 0.579458 -0.545488
C120  C     C_3   0.541632 0.275480 0.582541 -0.217417
H38   H     H_    0.590790 0.287134 0.612599 0.145096
H39   H     H_    0.465545 0.348148 0.574552 0.183367
H40   H     H_    0.656230 0.268894 0.561970 0.090890
O33   O     O_3   0.922797 0.499383 0.881772 -0.513621
C121  C     C_3   0.065642 0.476325 0.907834 -0.244563
H41   H     H_    0.163595 0.541793 0.910750 0.098948
H42   H     H_    0.129591 0.401900 0.899955 0.180664
H43   H     H_    0.004391 0.466590 0.936413 0.180286
O34   O     O_3   0.138727 0.539870 0.111623 -0.567794
C122  C     C_3   0.105383 0.644340 0.100047 -0.197441
H44   H     H_    0.957917 0.660372 0.095760 0.230336
H45   H     H_    0.165948 0.701659 0.120453 0.077278
H46   H     H_    0.169750 0.656051 0.071897 0.148549
O35   O     O_3   0.493424 0.925321 0.110044 -0.528890
C123  C     C_3   0.323582 0.918622 0.090807 -0.248905
H47   H     H_    0.272590 0.998651 0.085205 0.131829
H48   H     H_    0.227320 0.869058 0.106714 0.115404
H49   H     H_    0.340969 0.882801 0.062305 0.147936
O36   O     O_3   0.592691 0.034175 0.889620 -0.542481
C124  C     C_3   0.430757 0.048930 0.910094 -0.242367
H50   H     H_    0.341023 0.979920 0.907837 0.107522
H51   H     H_    0.360928 0.121022 0.901231 0.167777
H52   H     H_    0.466649 0.057764 0.940899 0.180955
H53   H     H_    0.055270 0.672947 0.978993 0.150490
H54   H     H_    0.036836 0.417224 0.999628 0.146094
H55   H     H_    0.575921 0.110564 0.999345 0.157230
H56   H     H_    0.462828 0.850859 0.990684 0.137433
O37   O     O_3   0.853993 0.019055 0.125947 -0.513113
C125  C     C_3   0.963950 0.955360 0.150171 -0.129862
H57   H     H_    0.900652 0.954230 0.178930 0.159087
H58   H     H_    0.104492 0.987863 0.154338 0.122350
H59   H     H_    0.965433 0.872893 0.139827 0.127756
O38   O     O_3   0.937228 0.056350 0.840593 -0.541416
C126  C     C_3   0.077137 0.099716 0.818327 -0.107704
H60   H     H_    0.047910 0.080075 0.787718 0.183035
H61   H     H_    0.213759 0.066911 0.825718 0.105426
H62   H     H_    0.076386 0.186416 0.820685 0.104517
O39   O     O_3   0.605281 0.480602 0.851287 -0.540594
C127  C     C_3   0.519698 0.500328 0.815271 -0.189207
H63   H     H_    0.583144 0.570219 0.802004 0.177882
H64   H     H_    0.368172 0.507681 0.816430 0.152861
H65   H     H_    0.549658 0.433588 0.795759 0.139221
O40   O     O_3   0.581080 0.474113 0.138547 -0.567151
C128  C     C_3   0.463279 0.518441 0.166250 -0.206301
H66   H     H_    0.549842 0.548917 0.190391 0.145089
H67   H     H_    0.370137 0.461008 0.179170 0.203981
H68   H     H_    0.385061 0.586476 0.155608 0.134185
O41   O     O_3   0.895653 0.873966 0.068873 -0.582133
C129  C     C_3   0.753037 0.843954 0.043075 -0.111394
H69   H     H_    0.726611 0.897364 0.018360 0.153456
H70   H     H_    0.624771 0.839884 0.058129 0.210845
H71   H     H_    0.782991 0.763782 0.032403 0.186312
O42   O     O_3   0.012456 0.211463 0.895511 -0.593940
C130  C     C_3   0.833266 0.245375 0.885616 -0.168730
H72   H     H_    0.723332 0.197394 0.897723 0.202394
H73   H     H_    0.816188 0.248834 0.853988 0.162698
H74   H     H_    0.812674 0.324524 0.897526 0.214802
O43   O     O_3   0.447541 0.320145 0.900575 -0.584051
C131  C     C_3   0.393450 0.306117 0.861617 -0.246289
H75   H     H_    0.514861 0.303477 0.843177 0.162213
H76   H     H_    0.295761 0.365813 0.851228 0.123575
H77   H     H_    0.320867 0.231488 0.857851 0.155832
O44   O     O_3   0.640610 0.623192 0.077835 -0.553069
C132  C     C_3   0.613640 0.682121 0.111657 -0.273495
H78   H     H_    0.683490 0.646471 0.136859 0.180771
H79   H     H_    0.468048 0.704288 0.115109 0.140455
H80   H     H_    0.690139 0.756315 0.110119 0.209647
O45   O     O_3   0.868952 0.203215 0.455425 -0.572875
C133  C     C_3   0.009139 0.127827 0.451026 -0.244506
H81   H     H_    0.098500 0.148134 0.426712 0.153571
H82   H     H_    0.945495 0.051408 0.443483 0.155561
H83   H     H_    0.090196 0.117262 0.478244 0.156825
O46   O     O_3   0.149899 0.754031 0.529694 -0.530770
C134  C     C_3   0.265885 0.783621 0.560772 -0.256340
H84   H     H_    0.334147 0.717518 0.576467 0.109237
H85   H     H_    0.187741 0.833013 0.581161 0.164078
H86   H     H_    0.371984 0.834369 0.549009 0.168992
O47   O     O_3   0.801635 0.786020 0.525147 -0.531137
C135  C     C_3   0.666626 0.706444 0.521423 -0.293628
H87   H     H_    0.614181 0.686407 0.550128 0.144536
H88   H     H_    0.732241 0.634187 0.510159 0.155842
H89   H     H_    0.550875 0.726148 0.501160 0.136863
O48   O     O_3   0.365106 0.307678 0.451833 -0.568079
C136  C     C_3   0.501984 0.385568 0.455197 -0.249538
H90   H     H_    0.436184 0.463779 0.451904 0.157461
H91   H     H_    0.601151 0.377509 0.431567 0.157664
H92   H     H_    0.573530 0.384327 0.483841 0.128810

loop_
_geom_bond_atom_site_label_1
_geom_bond_atom_site_label_2
_ccdc_geom_bond_type
C84   C96   A    
C134  H86   S    
N4    C16   A    
C129  H70   S    
C26   C30   A    
O1    C5    A    
C47   C79   A    
C120  H40   S    
C71   O43   S    
O33   C121  S    
C94   C98   A    
O3    C7    A    
O47   C135  S    
C10   N2    A    
C85   C89   A    
C88   C92   A    
C69   O41   S    
C11   N3    A    
C28   C56   A    
C79   H11   S    
C130  H72   S    
C39   C43   A    
C115  O47   S    
O29   C117  S    
C127  H63   S    
C124  H52   S    
C87   C91   A    
C109  H21   S    
C11   C43   A    
C18   C22   A    
C17   C33   A    
C58   C61   A    
C90   H13   S    
C112  C116  A    
O20   V1    S    
C21   C53   A    
O9    C4    A    
C2    C55   S    
O10   C3    A    
N2    C14   A    
C132  H78   S    
O4    C8    A    
O11   C2    A    
C63   C67   A    
C123  H48   S    
C24   C56   A    
C77   H9    S    
C62   C66   A    
C117  H30   S    
C134  H84   S    
C86   C102  A    
C131  H77   S    
C87   C103  A    
C133  H82   S    
C52   C75   A    
O13   V1    S    
C51   C76   A    
C7    C81   S    
C128  H66   S    
C72   O44   S    
C50   C73   A    
C57   C62   A    
C120  H39   S    
C85   H17   S    
C117  H29   S    
C58   C70   A    
C118  H34   S    
C83   C91   A    
C12   C44   A    
C15   O28   S    
C29   O33   S    
C59   C64   A    
C14   C50   A    
C101  C113  A    
C110  H22   S    
C76   O40   S    
C5    C83   S    
C84   C92   A    
O16   C8    A    
C113  O45   S    
C121  H43   S    
C131  H76   S    
O2    C6    A    
C122  H46   S    
O39   C127  S    
C135  H89   S    
C64   C79   A    
C37   C41   A    
O14   V2    S    
C87   H19   S    
C99   C107  A    
O45   C133  S    
O5    V1    S    
O4    V1    S    
C20   C36   A    
C38   C65   A    
C96   C100  A    
C103  C115  A    
C97   C105  A    
C37   C66   A    
O17   V4    S    
O7    C3    A    
O30   C118  S    
O15   V3    S    
O18   V3    S    
O8    C4    A    
C111  H23   S    
O41   C129  S    
O12   V4    S    
O19   V2    S    
O17   V1    S    
C19   H8    S    
C112  H24   S    
C129  H71   S    
C46   C78   A    
C18   H5    S    
C45   C77   A    
C26   C54   A    
C12   N4    A    
C89   H14   S    
C88   C104  A    
C62   C77   A    
C1    C56   S    
C107  C108  A    
C39   C51   A    
C23   H4    S    
C69   C73   A    
C102  C114  A    
C31   C35   A    
C21   H2    S    
O7    V3    S    
C121  H41   S    
C30   C34   A    
C127  H64   S    
O19   V3    S    
C122  H44   S    
O8    V4    S    
C119  H37   S    
C48   C80   A    
O20   V4    S    
C37   C49   A    
O36   C124  S    
C106  C109  A    
C26   H26   S    
C59   C71   A    
C132  H79   S    
C60   C68   A    
C110  C114  A    
O34   C122  S    
O44   C132  S    
C130  H74   S    
N1    C33   S    
O42   C130  S    
C60   C63   A    
O13   C5    A    
C81   C89   A    
C74   O38   S    
C57   C65   A    
O2    V3    S    
C128  H67   S    
C117  H31   S    
C10   O22   S    
O3    V2    S    
C11   O23   S    
C57   C69   A    
C38   C42   A    
C8    C82   S    
C48   H56   S    
O10   V2    S    
C61   C65   A    
O35   C123  S    
C98   C106  A    
C123  H49   S    
C12   O24   S    
C63   C80   A    
C131  H75   S    
C13   O26   S    
O37   C125  S    
C85   C101  A    
C40   C44   A    
C126  H61   S    
C19   C35   A    
C58   C66   A    
O48   C136  S    
C25   C29   A    
C18   C34   A    
C40   C52   A    
C121  H42   S    
C10   C42   A    
C3    C54   S    
C16   O27   S    
C88   H20   S    
C45   H53   S    
O6    V2    S    
C135  H88   S    
O18   V2    S    
C73   O37   S    
C70   O42   S    
C42   C46   A    
C4    C53   S    
C24   H3    S    
C111  C115  A    
C27   C31   A    
N4    C36   S    
C136  H91   S    
C86   H18   S    
C17   H6    S    
O43   C131  S    
C82   C90   A    
C32   C36   A    
C95   C99   A    
C72   C76   A    
C83   C95   A    
O15   C7    A    
C105  C110  A    
C22   C54   A    
O16   V4    S    
C38   C50   A    
C9    C41   A    
O31   C119  S    
C134  H85   S    
C98   C102  A    
C75   O39   S    
C129  H69   S    
C114  O46   S    
N1    C13   A    
O40   C128  S    
C6    C84   S    
C107  C112  A    
O14   C6    A    
O5    C1    A    
C32   O36   S    
C108  C111  A    
C13   C49   A    
C28   H28   S    
C100  C104  A    
C31   O35   S    
O32   C120  S    
C104  C116  A    
C133  H83   S    
C86   C90   A    
C132  H80   S    
C122  H45   S    
C44   C48   A    
C47   H55   S    
C46   H54   S    
C96   O31   S    
O9    V1    S    
C124  H51   S    
C125  H59   S    
C39   C68   A    
C125  H58   S    
C127  H65   S    
C28   C32   A    
C128  H68   S    
C9    N1    A    
C119  H35   S    
C27   H27   S    
C136  H90   S    
O38   C126  S    
O6    C2    A    
C25   H25   S    
C135  H87   S    
C123  H47   S    
C43   C47   A    
C91   H16   S    
C92   H15   S    
C17   C21   A    
C95   O32   S    
C64   C68   A    
C124  H50   S    
C93   C97   A    
C20   H7    S    
C25   C53   A    
C9    O21   S    
C70   C74   A    
C126  H62   S    
C19   C23   A    
C61   C78   A    
O1    V4    S    
C29   C33   A    
C23   C55   A    
C120  H38   S    
C82   C94   A    
C27   C55   A    
C118  H33   S    
C130  H73   S    
C133  H81   S    
C60   C72   A    
O11   V3    S    
C15   C51   A    
C16   C52   A    
C118  H32   S    
C94   O29   S    
C81   C93   A    
O12   C1    A    
N3    C35   S    
C125  H57   S    
C80   H12   S    
C14   O25   S    
C99   C103  A    
C126  H60   S    
N2    C34   S    
C78   H10   S    
C41   C45   A    
O46   C134  S    
C116  O48   S    
C71   C75   A    
C93   O30   S    
C100  C108  A    
C59   C67   A    
C22   H1    S    
C49   C74   A    
N3    C15   A    
C109  C113  A    
C30   O34   S    
C97   C101  A    
C20   C24   A    
C136  H92   S    
C119  H36   S    
C105  C106  A    
C40   C67   A    
