data_mof_unit_46547.cif
_audit_creation_date              2012-10-26T19:48:46-0400
_audit_creation_method            fapswitch 2.2
_symmetry_space_group_name_H-M    P1
_symmetry_Int_Tables_number       1
_space_group_crystal_system       triclinic
_cell_length_a                    10.817203
_cell_length_b                    9.523227
_cell_length_c                    27.821147
_cell_angle_alpha                 89.721559
_cell_angle_beta                  96.292228
_cell_angle_gamma                 90.032112
_cell_volume                      2848.68772043

loop_
_atom_site_label
_atom_site_type_symbol
_atom_type_description
_atom_site_fract_x
_atom_site_fract_y
_atom_site_fract_z
_atom_type_partial_charge
C1    C     C_R   0.259978 0.499935 0.499051 0.575642
C2    C     C_R   0.344728 0.481074 0.967953 0.017627
C3    C     C_R   0.550248 0.596647 0.975907 0.018514
C4    C     C_R   0.500490 0.499974 0.407386 0.635356
C5    C     C_R   0.448615 0.535162 0.946760 0.035201
C6    C     C_R   0.242226 0.430106 0.936936 -0.138991
C7    C     C_R   0.244327 0.426557 0.887067 -0.105373
C8    C     C_R   0.348742 0.472952 0.866105 0.026304
C9    C     C_R   0.451176 0.527198 0.895855 -0.026684
C10   C     C_R   0.556369 0.573177 0.874614 0.025188
C11   C     C_R   0.557848 0.562699 0.824378 0.402226
C12   C     C_R   0.368424 0.574424 0.277614 -0.031423
C13   C     C_R   0.352539 0.468034 0.815780 0.401422
C14   C     C_R   0.444161 0.381810 0.718981 -0.045870
C15   C     C_R   0.451678 0.378931 0.669177 -0.128341
C16   C     C_R   0.740602 0.499966 0.500491 0.637329
C17   C     C_R   0.486411 0.629903 0.669429 -0.137828
C18   C     C_R   0.476907 0.633252 0.718907 -0.049085
C19   C     C_R   0.458461 0.508918 0.744263 0.229030
C20   C     C_R   0.346814 0.479491 0.019161 0.018055
C21   C     C_R   0.445753 0.546875 0.048043 0.035451
C22   C     C_R   0.544896 0.610546 0.026443 0.017809
C23   C     C_R   0.464488 0.531154 0.251628 0.129283
C24   C     C_R   0.254327 0.410516 0.042773 -0.139065
C25   C     C_R   0.633438 0.691097 0.106177 -0.103151
C26   C     C_R   0.655259 0.639713 0.953453 -0.139996
C27   C     C_R   0.658157 0.627714 0.903858 -0.109299
C28   C     C_R   0.491497 0.500018 0.591968 0.582885
C29   C     C_R   0.635602 0.686240 0.056377 -0.137863
C30   C     C_3   0.060890 0.617702 0.466543 -0.209176
C31   C     C_3   0.090966 0.523089 0.551752 -0.259965
C32   C     C_3   0.920225 0.623506 0.470032 -0.253394
C33   C     C_3   0.948531 0.518309 0.553030 -0.219609
C34   C     C_R   0.446417 0.549260 0.099167 -0.026800
C35   C     C_3   0.066766 0.356461 0.482043 -0.233092
C36   C     C_3   0.122727 0.499547 0.499627 0.034500
C37   C     C_3   0.879907 0.499993 0.501228 0.028106
C38   C     C_3   0.924843 0.359307 0.481020 -0.230301
C39   C     C_3   0.625017 0.085776 0.523639 0.246001
C40   C     C_3   0.626649 0.914922 0.521321 0.243322
C41   C     C_3   0.401783 0.082390 0.528306 -0.111740
C42   C     C_3   0.408203 0.916659 0.531344 -0.116778
C43   C     C_3   0.477739 0.083542 0.451595 -0.172729
C44   C     C_3   0.471161 0.918127 0.451853 -0.165057
C45   C     C_R   0.353324 0.478943 0.121489 0.025422
C46   C     C_R   0.359620 0.475987 0.172211 0.409694
C47   C     C_R   0.541991 0.618419 0.178616 0.410413
C48   C     C_R   0.569248 0.467308 0.275985 -0.052674
C49   C     C_R   0.581752 0.449767 0.326228 0.159558
C50   C     C_R   0.377038 0.555956 0.327774 0.208313
C51   C     C_R   0.258026 0.409936 0.092885 -0.105938
C52   C     C_R   0.541119 0.620472 0.128113 0.025535
C53   C     C_R   0.487326 0.500976 0.353464 -0.019389
C54   C     C_R   0.477720 0.502143 0.644219 -0.020523
Cu1   Cu    Cu3+1 0.499860 0.642410 0.500020 1.028939
Cu2   Cu    Cu3+1 0.499860 0.357590 0.500020 1.044293
H1    H     H_    0.641491 0.430265 0.255142 0.197250
H2    H     H_    0.102541 0.721765 0.476640 0.145791
H3    H     H_    0.127876 0.626565 0.565187 0.134668
H4    H     H_    0.897505 0.725229 0.486562 0.157730
H5    H     H_    0.921744 0.617727 0.569090 0.205114
H6    H     H_    0.285330 0.619093 0.258236 0.208225
H7    H     H_    0.868547 0.621961 0.433391 0.175496
H8    H     H_    0.925832 0.430844 0.576967 0.175769
H9    H     H_    0.092020 0.331784 0.445365 0.194931
H10   H     H_    0.104570 0.270510 0.506670 0.129157
H11   H     H_    0.884103 0.345488 0.443331 0.229903
H12   H     H_    0.705841 0.749289 0.127521 0.176265
H13   H     H_    0.895051 0.268875 0.502480 0.159756
H14   H     H_    0.696266 0.119952 0.500116 0.090022
H15   H     H_    0.691403 0.890037 0.494045 0.075175
H16   H     H_    0.389831 0.126840 0.432741 0.161390
H17   H     H_    0.376539 0.885456 0.436758 0.193208
H18   H     H_    0.552778 0.116143 0.429880 0.175165
H19   H     H_    0.536665 0.876914 0.427225 0.140929
H20   H     H_    0.308570 0.112866 0.510413 0.110878
H21   H     H_    0.314178 0.873851 0.519791 0.122696
H22   H     H_    0.435377 0.280875 0.650276 0.169550
H23   H     H_    0.738743 0.679635 0.973419 0.113422
H24   H     H_    0.163411 0.386485 0.864963 0.174750
H25   H     H_    0.157300 0.394782 0.949964 0.114168
H26   H     H_    0.179507 0.351725 0.023643 0.114216
H27   H     H_    0.044978 0.611848 0.333723 0.389620
H28   H     H_    0.740009 0.356825 0.620905 0.352149
H29   H     H_    0.753294 0.643759 0.620183 0.347524
H30   H     H_    0.406111 0.127406 0.565012 0.168769
H31   H     H_    0.431241 0.884105 0.569676 0.162465
H32   H     H_    0.185769 0.354044 0.109155 0.173878
H33   H     H_    0.427795 0.285142 0.737931 0.153102
H34   H     H_    0.500263 0.727720 0.651010 0.183277
H35   H     H_    0.701122 0.181271 0.304679 0.347475
H36   H     H_    0.740990 0.661963 0.888505 0.170341
H37   H     H_    0.485050 0.732685 0.737715 0.153157
H38   H     H_    0.708701 0.745368 0.042316 0.115710
H39   H     H_    0.075001 0.597629 0.428473 0.219055
H40   H     H_    0.136051 0.441011 0.576375 0.124679
N1    N     N_R   0.453623 0.544331 0.199757 -0.393780
N2    N     N_R   0.456285 0.512308 0.795892 -0.396884
N3    N     N_3   0.500250 0.143650 0.501060 -0.283906
N4    N     N_3   0.500250 0.856350 0.501060 -0.285432
O1    O     O_R   0.317570 0.620260 0.500030 -0.512046
O2    O     O_2   0.252803 0.420955 0.786962 -0.489449
O3    O     O_2   0.631021 0.689206 0.206443 -0.471504
O4    O     O_2   0.660483 0.601885 0.804163 -0.482135
O5    O     O_2   0.221183 0.452916 0.385684 -0.322071
O6    O     O_2   0.256081 0.707821 0.387957 -0.334383
O7    O     O_3   0.116862 0.604512 0.314673 -0.479222
O8    O     O_2   0.594784 0.137906 0.619777 -0.297280
O9    O     O_2   0.808559 0.103314 0.602934 -0.201297
O10   O     O_3   0.719965 0.335600 0.586071 -0.513914
O11   O     O_2   0.843953 0.867452 0.576203 -0.294344
O12   O     O_R   0.317570 0.379740 0.500030 -0.529557
O13   O     O_2   0.661982 0.885428 0.621669 -0.237856
O14   O     O_3   0.716413 0.656317 0.586214 -0.511387
O15   O     O_2   0.817360 0.470698 0.363595 -0.295352
O16   O     O_2   0.696800 0.279937 0.395445 -0.344903
O17   O     O_3   0.767673 0.252709 0.310325 -0.465243
O18   O     O_R   0.499900 0.620250 0.430280 -0.497537
O19   O     O_R   0.499900 0.379750 0.430280 -0.467266
O20   O     O_R   0.682190 0.620260 0.500010 -0.465181
O21   O     O_R   0.682190 0.379740 0.500010 -0.449314
O22   O     O_R   0.499860 0.620280 0.569750 -0.456850
O23   O     O_R   0.499860 0.379720 0.569750 -0.440924
O24   O     O_2   0.274034 0.402708 0.193787 -0.465489
S1    S     S_3+6 0.240987 0.581329 0.355956 -0.002080
S2    S     S_3+6 0.685531 0.164370 0.583662 0.075008
S3    S     S_3+6 0.709208 0.829832 0.576805 0.056411
S4    S     S_3+6 0.718024 0.362886 0.351220 -0.012944

loop_
_geom_bond_atom_site_label_1
_geom_bond_atom_site_label_2
_ccdc_geom_bond_type
C10   C27   A    
Cu1   Cu2   S    
C43   H16   S    
C22   C29   A    
C4    C53   S    
C41   C42   S    
C35   C36   S    
C43   C44   S    
C46   O24   S    
C28   O23   A    
C7    C8    A    
C45   C46   A    
C41   H30   S    
C12   C23   A    
C26   C27   A    
C8    C13   A    
C11   N2    A    
H29   O14   S    
C40   H15   S    
C43   N3    S    
C16   O20   A    
C1    O12   A    
C29   H38   S    
C28   O22   A    
C15   H22   S    
C45   C51   A    
C31   H40   S    
C30   H39   S    
C18   C19   A    
C31   H3    S    
C13   N2    A    
C24   H26   S    
C20   C24   A    
C8    C9    A    
Cu1   N4    S    
C41   N3    S    
C4    O19   A    
C11   O4    S    
C9    C10   A    
C16   C37   S    
C24   C51   A    
C38   H13   S    
C6    H25   S    
C21   C22   A    
C4    O18   A    
C2    C6    A    
C25   H12   S    
C19   N2    S    
Cu1   O20   S    
C25   C29   A    
C50   C53   A    
C47   O3    S    
C2    C20   A    
Cu2   O23   S    
C48   H1    S    
C35   C38   S    
O7    S1    S    
C39   C40   S    
C50   S1    S    
C28   C54   S    
C21   C34   A    
C35   H10   S    
C40   S3    S    
C33   C37   S    
O15   S4    D    
C44   H19   S    
C16   O21   A    
C15   C54   A    
C14   H33   S    
C5    C9    A    
C37   C38   S    
C42   N4    S    
C12   H6    S    
C39   N3    S    
O6    S1    D    
C31   C33   S    
C17   C18   A    
C27   H36   S    
C34   C45   A    
C32   C37   S    
C38   H11   S    
C6    C7    A    
O10   S2    S    
C48   C49   A    
C23   N1    S    
C46   N1    A    
H35   O17   S    
O11   S3    D    
Cu2   O19   S    
C2    C5    A    
C32   H4    S    
C1    O1    A    
C49   S4    S    
C23   C48   A    
C31   C36   S    
C14   C19   A    
C3    C26   A    
C17   H34   S    
C32   H7    S    
C3    C5    A    
C51   H32   S    
C40   N4    S    
C12   C50   A    
C47   C52   A    
O13   S3    D    
C30   C36   S    
Cu1   O1    S    
C34   C52   A    
C26   H23   S    
C47   N1    A    
O5    S1    D    
Cu2   O21   S    
C25   C52   A    
C41   H20   S    
C30   C32   S    
O14   S3    S    
C44   N4    S    
C43   H18   S    
C33   H8    S    
C49   C53   A    
C30   H2    S    
C39   H14   S    
H27   O7    S    
C44   H17   S    
O17   S4    S    
H28   O10   S    
Cu1   O22   S    
C10   C11   A    
O9    S2    D    
C20   C21   A    
C42   H21   S    
C33   H5    S    
O16   S4    D    
C39   S2    S    
C18   H37   S    
C35   H9    S    
C14   C15   A    
C3    C22   A    
C42   H31   S    
Cu2   N3    S    
O8    S2    D    
C13   O2    S    
C17   C54   A    
Cu2   O12   S    
C1    C36   S    
C7    H24   S    
Cu1   O18   S    
