data_mof_unit_12561.cif
_audit_creation_date              2012-12-11T16:28:23-0500
_audit_creation_method            fapswitch 2.2
_symmetry_space_group_name_H-M    P1
_symmetry_Int_Tables_number       1
_space_group_crystal_system       triclinic
_cell_length_a                    16.575244
_cell_length_b                    7.256012
_cell_length_c                    15.21397
_cell_angle_alpha                 90.099878
_cell_angle_beta                  94.755422
_cell_angle_gamma                 90.003054
_cell_volume                      1823.48519725

loop_
_atom_site_label
_atom_site_type_symbol
_atom_type_description
_atom_site_fract_x
_atom_site_fract_y
_atom_site_fract_z
_atom_type_partial_charge
O1    O     O_R   0.663460 0.361760 0.165970 -0.539328
O2    O     O_R   0.336540 0.638240 0.834030 -0.539327
O3    O     O_R   0.836540 0.861760 0.334030 -0.523626
O4    O     O_R   0.163460 0.138240 0.665970 -0.523626
O5    O     O_R   0.827100 0.689870 0.163730 -0.517355
O6    O     O_R   0.172900 0.310130 0.836270 -0.517355
O7    O     O_R   0.672900 0.189870 0.336270 -0.537500
O8    O     O_R   0.327100 0.810130 0.663730 -0.537500
C1    C     C_R   0.853281 0.522871 0.143597 0.702241
C2    C     C_R   0.146719 0.477129 0.856403 0.702241
C3    C     C_R   0.646724 0.023002 0.356428 0.705239
C4    C     C_R   0.353276 0.976998 0.643572 0.705239
O9    O     O_R   0.663490 0.691370 0.155500 -0.525679
O10   O     O_R   0.336510 0.308630 0.844500 -0.525679
O11   O     O_R   0.836510 0.191370 0.344500 -0.542114
O12   O     O_R   0.163490 0.808630 0.655500 -0.542114
O13   O     O_R   0.671770 0.863320 0.325740 -0.508559
O14   O     O_R   0.328230 0.136680 0.674260 -0.508559
O15   O     O_R   0.828230 0.363320 0.174260 -0.528634
O16   O     O_R   0.171770 0.636680 0.825740 -0.528633
C5    C     C_R   0.635873 0.522795 0.134155 0.796156
C6    C     C_R   0.364127 0.477205 0.865845 0.796156
C7    C     C_R   0.864126 0.023051 0.365880 0.795832
C8    C     C_R   0.135874 0.976949 0.634120 0.795832
H1    H     H_    0.118836 0.885038 0.229197 0.144995
H2    H     H_    0.881164 0.114962 0.770803 0.144994
H3    H     H_    0.379057 0.690406 0.260113 0.143327
H4    H     H_    0.620942 0.309594 0.739887 0.143327
O17   O     O_3   0.752910 0.528800 0.305860 -0.376297
O18   O     O_3   0.247090 0.471200 0.694140 -0.376297
O19   O     O_3   0.747090 0.028800 0.194140 -0.374366
O20   O     O_3   0.252910 0.971200 0.805860 -0.374366
V1    V     V_3+5 0.749460 0.803010 0.239640 1.572893
V2    V     V_3+5 0.250540 0.196990 0.760360 1.572894
V3    V     V_3+5 0.750540 0.303010 0.260360 1.522194
V4    V     V_3+5 0.249460 0.696990 0.739640 1.522194
C9    C     C_1   0.468820 0.994694 0.530113 0.022371
C10   C     C_1   0.531179 0.005306 0.469887 0.022371
C11   C     C_1   0.031178 0.494848 0.969876 0.023261
C12   C     C_1   0.968822 0.505152 0.030123 0.023261
C13   C     C_R   0.029498 0.946317 0.319709 0.586626
C14   C     C_R   0.970502 0.053683 0.680291 0.586626
C15   C     C_R   0.469527 0.608118 0.174510 0.586487
C16   C     C_R   0.530473 0.391881 0.825490 0.586487
C17   C     C_R   0.107389 0.904428 0.297651 -0.166805
C18   C     C_R   0.892610 0.095572 0.702349 -0.166804
C19   C     C_R   0.390851 0.650208 0.193805 -0.166797
C20   C     C_R   0.609149 0.349792 0.806195 -0.166797
C21   C     C_R   0.170739 0.888991 0.362690 -0.213937
C22   C     C_R   0.829261 0.111009 0.637310 -0.213936
C23   C     C_R   0.327212 0.639614 0.128841 -0.214618
C24   C     C_R   0.672787 0.360385 0.871159 -0.214618
C25   C     C_R   0.157057 0.915960 0.450721 -0.145375
C26   C     C_R   0.842943 0.084040 0.549279 -0.145375
C27   C     C_R   0.341411 0.586155 0.043696 -0.142787
C28   C     C_R   0.658589 0.413845 0.956303 -0.142787
C29   C     C_R   0.078737 0.957235 0.476061 -0.006395
C30   C     C_R   0.921263 0.042765 0.523939 -0.006395
C31   C     C_R   0.420496 0.543528 0.021121 -0.006309
C32   C     C_R   0.579503 0.456472 0.978879 -0.006310
C33   C     C_R   0.013096 0.971768 0.409433 -0.040234
C34   C     C_R   0.986904 0.028232 0.590567 -0.040234
C35   C     C_R   0.486388 0.555539 0.087594 -0.040630
C36   C     C_R   0.513612 0.444461 0.912406 -0.040630
C37   C     C_R   0.065958 0.986267 0.566188 -0.148559
C38   C     C_R   0.934042 0.013733 0.433812 -0.148559
C39   C     C_R   0.433820 0.487482 0.934010 -0.148594
C40   C     C_R   0.566180 0.512518 0.065990 -0.148594
C41   C     C_1   0.415995 0.986039 0.581456 -0.130488
C42   C     C_1   0.584004 0.013961 0.418544 -0.130488
C43   C     C_1   0.084001 0.486359 0.918519 -0.132961
C44   C     C_1   0.915999 0.513641 0.081481 -0.132961
H5    H     H_    0.208870 0.904481 0.498499 0.100015
H6    H     H_    0.791130 0.095519 0.501501 0.100015
H7    H     H_    0.289385 0.578021 0.996004 0.099331
H8    H     H_    0.710615 0.421979 0.003996 0.099331
H9    H     H_    0.768928 0.142760 0.655247 0.141980
H10   H     H_    0.231072 0.857241 0.344753 0.141980
H11   H     H_    0.733712 0.328180 0.855326 0.143066
H12   H     H_    0.266288 0.671820 0.144674 0.143066
F1    F     F_    0.971641 0.964567 0.251793 -0.703521
F2    F     F_    0.028359 0.035433 0.748207 -0.703522
F3    F     F_    0.527796 0.617416 0.242465 -0.704546
F4    F     F_    0.472204 0.382583 0.757535 -0.704546

loop_
_geom_bond_atom_site_label_1
_geom_bond_atom_site_label_2
_ccdc_geom_bond_type
C30   C34   A    
C4    C41   S    
C10   C42   T    
O1    C5    A    
C28   H8    S    
C27   C31   A    
C15   F3    S    
O3    C7    A    
C14   F2    S    
C1    C44   S    
C13   C33   A    
C3    C42   S    
C15   C35   A    
C16   C36   A    
O7    C3    A    
O5    C1    A    
C22   C26   A    
C7    C38   S    
C9    C41   T    
C14   C18   A    
O4    C8    A    
O3    V1    S    
O2    V4    S    
C21   H10   S    
O8    V4    S    
C23   H12   S    
C31   C39   A    
C26   H6    S    
C33   C38   A    
C30   C38   A    
C3    O13   A    
C2    O16   A    
O5    V1    S    
O2    C6    A    
O19   V1    S    
C24   H11   S    
C14   C34   A    
C27   H7    S    
C2    C43   S    
O11   C7    A    
O12   C8    A    
O13   V1    S    
O11   V3    S    
C1    O15   A    
O4    V2    S    
C36   C39   A    
C11   C12   S    
C25   C29   A    
C19   C23   A    
O6    V2    S    
O20   V2    S    
O6    C2    A    
C9    C10   S    
C17   C21   A    
O8    C4    A    
C13   F1    S    
O9    C5    A    
O14   V2    S    
C8    C37   S    
C5    C40   S    
C22   H9    S    
H1    C17   S    
O1    V3    S    
C26   C30   A    
H3    C19   S    
C18   C22   A    
C35   C40   A    
H4    C20   S    
C11   C43   T    
C12   C44   T    
C34   C37   A    
O7    V3    S    
C25   H5    S    
C29   C37   A    
C16   F4    S    
O10   V2    S    
C29   C33   A    
O17   V3    S    
C31   C35   A    
O18   V4    S    
C32   C36   A    
O10   C6    A    
O15   V3    S    
O12   V4    S    
C24   C28   A    
C21   C25   A    
C23   C27   A    
C6    C39   S    
H2    C18   S    
O16   V4    S    
C28   C32   A    
C20   C24   A    
C32   C40   A    
O9    V1    S    
C4    O14   A    
C13   C17   A    
C15   C19   A    
C16   C20   A    
