data_mof_unit_7076.cif
_audit_creation_date              2012-12-10T18:05:59-0500
_audit_creation_method            fapswitch 2.2
_symmetry_space_group_name_H-M    P1
_symmetry_Int_Tables_number       1
_space_group_crystal_system       triclinic
_cell_length_a                    12.6929
_cell_length_b                    13.112375
_cell_length_c                    14.961066
_cell_angle_alpha                 92.475739
_cell_angle_beta                  102.018132
_cell_angle_gamma                 81.979804
_cell_volume                      2411.3754101

loop_
_atom_site_label
_atom_site_type_symbol
_atom_type_description
_atom_site_fract_x
_atom_site_fract_y
_atom_site_fract_z
_atom_type_partial_charge
C1    C     C_R   0.439145 0.690931 0.486290 0.848409
C2    C     C_R   0.566810 0.558969 0.828984 -0.217958
C3    C     C_R   0.502299 0.497573 0.768910 -0.081363
C4    C     C_R   0.500906 0.499285 0.672778 0.901316
C5    C     C_R   0.437346 0.435576 0.800060 -0.256844
C6    C     C_R   0.705645 0.058409 0.439802 0.111754
C7    C     C_R   0.595979 0.198937 0.502311 -0.083721
C8    C     C_R   0.301470 0.840260 0.499646 -0.188778
C9    C     C_R   0.271536 0.945821 0.504730 -0.135588
C10   C     C_R   0.343573 0.012289 0.492882 -0.194287
C11   C     C_R   0.445754 0.973344 0.471847 0.103015
C12   C     C_R   0.436121 0.430555 0.078510 0.070595
C13   C     C_R   0.466658 0.867869 0.450864 0.100206
C14   C     C_R   0.528562 0.035156 0.472423 0.055805
C15   C     C_R   0.622657 0.996046 0.437680 0.170831
C16   C     C_R   0.560756 0.308756 0.509462 0.893963
C17   C     C_R   0.631183 0.895832 0.401354 -0.169985
C18   C     C_R   0.554435 0.832387 0.408175 -0.189486
C19   C     C_R   0.521299 0.134047 0.509791 -0.259175
C20   C     C_R   0.690751 0.160584 0.471602 -0.175611
C21   C     C_R   0.400077 0.800557 0.474906 -0.110727
C22   C     C_R   0.115862 0.306233 0.423018 -0.298710
C23   C     C_R   0.617539 0.631021 0.074783 -0.267508
C24   C     C_R   0.800134 0.639945 0.601758 0.105543
C25   C     C_R   0.907062 0.656825 0.635620 -0.273080
C26   C     C_R   0.991015 0.593662 0.608774 -0.170076
C27   C     C_R   0.969247 0.516503 0.542782 0.036410
C28   C     C_R   0.499231 0.498994 0.327305 0.915617
C29   C     C_R   0.860892 0.492492 0.516608 0.130132
C30   C     C_R   0.051900 0.461806 0.501636 0.014518
C31   C     C_R   0.035733 0.363918 0.462567 0.129009
C32   C     C_R   0.934648 0.330375 0.453782 -0.334967
C33   C     C_R   0.845086 0.404018 0.459141 -0.043680
C34   C     C_R   0.621497 0.631831 0.982486 -0.140060
C35   C     C_R   0.146279 0.502868 0.491861 0.181571
C36   C     C_R   0.209272 0.348212 0.419056 -0.009242
C37   C     C_R   0.438268 0.428555 0.172413 0.037858
C38   C     C_R   0.496505 0.497497 0.230877 -0.089502
C39   C     C_R   0.553530 0.565782 0.198020 -0.243503
C40   C     C_R   0.556251 0.565225 0.106354 0.124405
C41   C     C_R   0.496689 0.498605 0.045987 0.032148
C42   C     C_2   0.716867 0.721036 0.624441 0.971270
C43   C     C_2   0.772259 0.412809 0.369183 0.991475
C44   C     C_2   0.684720 0.706781 0.952871 0.950771
C45   C     C_R   0.562358 0.564716 0.921168 0.047839
C46   C     C_R   0.498398 0.499535 0.953151 0.078068
C47   C     C_R   0.436762 0.434332 0.892246 0.128500
C48   C     C_R   0.375631 0.368614 0.924104 -0.201251
C49   C     C_R   0.375963 0.365933 0.016638 -0.210551
H1    H     H_    0.698871 0.864662 0.370320 0.166752
H2    H     H_    0.596523 0.619295 0.244377 0.181269
H3    H     H_    0.072769 0.605650 0.641146 0.170638
H4    H     H_    0.925499 0.720172 0.682720 0.172802
H5    H     H_    0.661492 0.682947 0.122220 0.161396
H6    H     H_    0.619655 0.602395 0.803301 0.228104
H7    H     H_    0.389073 0.386681 0.752702 0.159297
H8    H     H_    0.328328 0.318482 0.877478 0.150978
H9    H     H_    0.328414 0.313250 0.038716 0.148881
H10   H     H_    0.750747 0.210755 0.469238 0.183386
H11   H     H_    0.417002 0.280940 0.192446 0.185997
H12   H     H_    0.455495 0.164281 0.542932 0.156844
H13   H     H_    0.302048 0.368108 0.182293 0.191139
H14   H     H_    0.847478 0.964095 0.453900 0.194111
H15   H     H_    0.851182 0.077128 0.407368 0.185908
H16   H     H_    0.229124 0.609537 0.565093 0.218236
H17   H     H_    0.165002 0.644245 0.456130 0.208846
H18   H     H_    0.595124 0.763812 0.691062 0.354089
H19   H     H_    0.676889 0.342081 0.267192 0.339722
H20   H     H_    0.820339 0.662217 0.047692 0.307013
H21   H     H_    0.248893 0.790027 0.517799 0.152289
H22   H     H_    0.316435 0.093544 0.498899 0.130922
H23   H     H_    0.194433 0.976191 0.522123 0.144993
H24   H     H_    0.564823 0.755099 0.380046 0.155012
H25   H     H_    0.273167 0.302648 0.391390 0.153419
H26   H     H_    0.921452 0.258617 0.416784 0.166716
H27   H     H_    0.105381 0.230375 0.393669 0.151645
N1    N     N_R   0.222190 0.444670 0.452360 -0.119996
N2    N     N_R   0.776970 0.554790 0.547140 -0.169445
N3    N     N_3   0.385420 0.355357 0.209866 -0.436783
N4    N     N_3   0.802553 0.018964 0.407241 -0.458682
N5    N     N_3   0.158491 0.607808 0.515084 -0.482876
O1    O     O_R   0.366740 0.627160 0.477250 -0.639370
O2    O     O_R   0.647415 0.700873 0.680204 -0.781561
O3    O     O_2   0.770341 0.487363 0.322146 -0.639191
O4    O     O_R   0.716514 0.330745 0.332868 -0.838241
O5    O     O_2   0.642465 0.764342 0.889617 -0.574365
O6    O     O_R   0.791106 0.715545 0.998503 -0.757924
O7    O     O_R   0.544830 0.662520 0.507680 -0.608312
O8    O     O_R   0.410940 0.482340 0.616930 -0.636704
O9    O     O_R   0.589030 0.517700 0.647360 -0.574553
O10   O     O_R   0.455170 0.337480 0.492320 -0.628750
O11   O     O_R   0.633260 0.372840 0.522750 -0.618954
O12   O     O_R   0.410970 0.482300 0.352640 -0.592405
O13   O     O_R   0.589060 0.517660 0.383070 -0.621191
O14   O     O_2   0.714300 0.808940 0.599166 -0.645268
Zn1   Zn    Zn3+2 0.381090 0.476390 0.479680 0.934764
Zn2   Zn    Zn3+2 0.618910 0.523610 0.520320 0.984023

loop_
_geom_bond_atom_site_label_1
_geom_bond_atom_site_label_2
_ccdc_geom_bond_type
C39   H2    S    
H11   N3    S    
H18   O2    S    
C43   O3    D    
C27   C29   A    
C24   C42   S    
C5    H7    S    
C9    H23   S    
C22   H27   S    
C32   H26   S    
C12   C49   A    
C35   N5    S    
C48   H8    S    
C45   C46   A    
C1    C21   S    
C37   N3    S    
C26   C27   A    
C37   C38   A    
C13   C18   A    
C25   H4    S    
C2    H6    S    
C30   C31   A    
C11   C14   A    
C23   C40   A    
C29   C33   A    
C28   O13   A    
C12   C37   A    
C6    C15   A    
H16   N5    S    
C29   N2    A    
C47   C48   A    
C8    C9    A    
C41   C46   A    
C44   O6    S    
C9    C10   A    
O9    Zn2   S    
O7    Zn2   S    
H20   O6    S    
C10   H22   S    
C1    O7    A    
O10   Zn1   S    
C27   C30   A    
H19   O4    S    
H15   N4    S    
C44   O5    D    
O11   Zn2   S    
C8    C21   A    
C4    O9    A    
H14   N4    S    
C2    C45   A    
O1    Zn1   S    
C22   C31   A    
C42   O14   D    
C43   O4    S    
H13   N3    S    
C34   C44   S    
C24   C25   A    
C39   C40   A    
O13   Zn2   S    
C1    O1    A    
C35   N1    A    
C49   H9    S    
C28   O12   A    
C33   C43   S    
C12   C41   A    
C26   H3    S    
C5    C47   A    
C6    N4    S    
C31   C32   A    
C28   C38   S    
C23   C34   A    
N2    Zn2   S    
C17   C18   A    
C13   C21   A    
C34   C45   A    
C20   H10   S    
C36   H25   S    
C30   C35   A    
C24   N2    A    
C7    C16   S    
C16   O11   A    
O12   Zn1   S    
C7    C19   A    
C3    C4    S    
C6    C20   A    
C23   H5    S    
C4    O8    A    
C15   C17   A    
C46   C47   A    
C48   C49   A    
C14   C19   A    
C42   O2    S    
C3    C5    A    
C17   H1    S    
C18   H24   S    
C22   C36   A    
N1    Zn1   S    
C8    H21   S    
C36   N1    A    
C32   C33   A    
O8    Zn1   S    
C2    C3    A    
C25   C26   A    
H17   N5    S    
C11   C13   A    
C38   C39   A    
C19   H12   S    
C10   C11   A    
C16   O10   A    
C7    C20   A    
C14   C15   A    
C40   C41   A    
