data_mof_unit_13881.cif
_audit_creation_date              2012-12-11T18:37:28-0500
_audit_creation_method            fapswitch 2.2
_symmetry_space_group_name_H-M    P1
_symmetry_Int_Tables_number       1
_space_group_crystal_system       triclinic
_cell_length_a                    8.390766
_cell_length_b                    14.449511
_cell_length_c                    27.084911
_cell_angle_alpha                 93.820095
_cell_angle_beta                  93.172258
_cell_angle_gamma                 87.714175
_cell_volume                      3269.36431488

loop_
_atom_site_label
_atom_site_type_symbol
_atom_type_description
_atom_site_fract_x
_atom_site_fract_y
_atom_site_fract_z
_atom_type_partial_charge
Ba1   Ba    Ba6+2 0.849670 0.455410 0.524690 1.619188
Ba2   Ba    Ba6+2 0.340150 0.544510 0.475310 1.616445
C1    C     C_3   0.612912 0.130704 0.668221 -0.372128
C2    C     C_3   0.627753 0.222923 0.645255 0.343596
C3    C     C_3   0.595277 0.694633 0.630705 0.449189
C4    C     C_3   0.718407 0.711921 0.673991 -0.313268
C5    C     C_3   0.015657 0.769426 0.334788 0.544857
C6    C     C_3   0.916336 0.843476 0.307773 -0.358818
C7    C     C_3   0.535395 0.782394 0.351340 0.370918
C8    C     C_3   0.507298 0.873270 0.326782 -0.396169
C9    C     C_R   0.026825 0.434360 0.178444 0.603851
C10   C     C_R   0.912538 0.587723 0.172303 0.576037
C11   C     C_2   0.767952 0.553606 0.267644 -0.072654
C12   C     C_3   0.133310 0.247472 0.664485 0.296170
C13   C     C_3   0.748396 0.573382 0.322370 -0.041425
C14   C     C_1   0.977589 0.471201 0.339400 0.031222
C15   C     C_2   0.024602 0.477072 0.293135 -0.097290
C16   C     C_2   0.910264 0.515124 0.252837 0.218253
C17   C     C_R   0.026493 0.507710 0.099036 -0.150670
C18   C     C_R   0.071622 0.432115 0.128204 -0.019430
C19   C     C_R   0.159307 0.356063 0.106122 0.167451
C20   C     C_R   0.940969 0.584770 0.120904 -0.041603
C21   C     C_2   0.831015 0.497888 0.349966 -0.248822
C22   C     C_2   0.344951 0.475345 0.641083 -0.260371
C23   C     C_3   0.110789 0.221665 0.717043 -0.351629
C24   C     C_R   0.190693 0.426841 0.974989 0.025689
C25   C     C_R   0.061923 0.582000 0.968418 0.027488
C26   C     C_R   0.145788 0.503793 0.946476 0.050384
C27   C     C_R   0.272361 0.350262 0.950932 -0.102804
C28   C     C_R   0.309899 0.349885 0.901396 -0.063647
C29   C     C_R   0.267729 0.425520 0.873035 -0.031313
C30   C     C_R   0.185299 0.502619 0.895453 -0.079493
C31   C     C_R   0.142845 0.578703 0.866871 -0.032455
C32   C     C_R   0.182161 0.576626 0.816526 0.588548
C33   C     C_R   0.305981 0.425248 0.822639 0.579201
C34   C     C_3   0.171377 0.261019 0.425130 0.307235
C35   C     C_2   0.453980 0.484116 0.728789 -0.067730
C36   C     C_3   0.493543 0.487383 0.674717 -0.028359
C37   C     C_1   0.210608 0.515983 0.655420 0.074325
C38   C     C_2   0.173019 0.516199 0.702545 -0.114572
C39   C     C_2   0.301058 0.499077 0.742536 0.206685
C40   C     C_R   0.152636 0.428749 0.026138 0.008838
C41   C     C_R   0.066337 0.506221 0.047928 0.041164
C42   C     C_R   0.019156 0.582202 0.018974 -0.000265
C43   C     C_R   0.198458 0.355413 0.056500 -0.130304
C44   C     C_R   0.886899 0.657460 0.090796 0.215500
C45   C     C_3   0.145138 0.157137 0.417548 -0.040762
C46   C     C_R   0.024785 0.658050 0.938769 -0.104305
C47   C     C_R   0.063399 0.656023 0.889331 -0.066513
C48   C     C_R   0.926966 0.655573 0.041339 -0.132216
C49   C     C_R   0.694385 0.064155 0.475773 -0.021302
C50   C     C_R   0.516683 0.199487 0.503144 0.063291
C51   C     C_R   0.380224 0.230954 0.527637 -0.297097
C52   C     C_R   0.282177 0.168985 0.547701 0.005935
C53   C     C_R   0.326439 0.074916 0.547153 -0.143295
C54   C     C_R   0.465680 0.041199 0.524437 -0.005900
C55   C     C_R   0.560654 0.102491 0.500839 -0.020743
C56   C     C_3   0.031108 0.749174 0.584927 0.253139
C57   C     C_R   0.642504 0.908554 0.500291 -0.049851
C58   C     C_R   0.738406 0.968785 0.476451 0.004079
C59   C     C_R   0.686836 0.812730 0.500394 0.042384
C60   C     C_R   0.829068 0.779733 0.479599 -0.064552
C61   C     C_R   0.925579 0.838871 0.456279 0.000489
C62   C     C_R   0.879343 0.933180 0.454555 -0.177474
C63   C     C_R   0.507052 0.946086 0.524012 -0.041297
C64   C     C_3   0.020131 0.851507 0.602191 -0.377913
C65   C     C_3   0.655265 0.318767 0.376848 0.288727
C66   C     C_3   0.635604 0.288217 0.322086 -0.354851
H1    H     H_    0.736809 0.218568 0.623553 0.097910
H2    H     H_    0.203641 0.120649 0.448802 0.043562
H3    H     H_    0.014411 0.146606 0.417045 0.078997
H4    H     H_    0.909519 0.728076 0.572855 0.025861
H5    H     H_    0.118493 0.741441 0.555582 0.055667
H6    H     H_    0.937827 0.862605 0.632942 0.131249
H7    H     H_    0.973973 0.892920 0.571031 0.075703
H8    H     H_    0.140000 0.876022 0.615062 0.110294
H9    H     H_    0.784221 0.327016 0.386593 0.028618
H10   H     H_    0.582804 0.384066 0.383328 0.067503
H11   H     H_    0.719472 0.116487 0.693111 0.131947
H12   H     H_    0.705912 0.222617 0.314258 0.122553
H13   H     H_    0.678548 0.342432 0.299405 0.078131
H14   H     H_    0.507632 0.277014 0.311555 0.135002
H15   H     H_    0.520338 0.234438 0.620407 -0.028771
H16   H     H_    0.604102 0.073995 0.638536 0.076570
H17   H     H_    0.627524 0.626034 0.612224 0.046146
H18   H     H_    0.707917 0.784471 0.690104 0.104768
H19   H     H_    0.703366 0.662850 0.703144 0.076470
H20   H     H_    0.839689 0.701326 0.661504 0.141167
H21   H     H_    0.504006 0.132493 0.689832 0.124282
H22   H     H_    0.164607 0.274475 0.743785 0.129866
H23   H     H_    0.930341 0.731783 0.355037 -0.062687
H24   H     H_    0.993669 0.887773 0.288097 0.102653
H25   H     H_    0.829218 0.809870 0.280610 0.122462
H26   H     H_    0.850976 0.888979 0.335066 0.065526
H27   H     H_    0.665715 0.772626 0.358729 -0.079540
H28   H     H_    0.475506 0.788091 0.387033 0.098918
H29   H     H_    0.556942 0.931147 0.351204 0.082459
H30   H     H_    0.378151 0.886306 0.320256 0.132751
H31   H     H_    0.078484 0.318016 0.660470 0.078453
H32   H     H_    0.563731 0.869969 0.290602 0.119646
H33   H     H_    0.144701 0.453776 0.284249 0.133278
H34   H     H_    0.550495 0.475329 0.756660 0.098873
H35   H     H_    0.372603 0.289202 0.885258 0.120400
H36   H     H_    0.308918 0.288323 0.969065 0.066718
H37   H     H_    0.266975 0.295353 0.043108 0.063704
H38   H     H_    0.676518 0.578536 0.241362 0.108113
H39   H     H_    0.967371 0.721684 0.952604 0.066143
H40   H     H_    0.263462 0.248232 0.658779 -0.021018
H41   H     H_    0.030939 0.716271 0.868670 0.118693
H42   H     H_    0.050811 0.530694 0.712550 0.127183
H43   H     H_    0.878235 0.712399 0.020900 0.063936
H44   H     H_    0.780523 0.477567 0.382888 -0.021253
H45   H     H_    0.349029 0.436128 0.605509 0.063333
H46   H     H_    0.344077 0.303740 0.528261 0.063810
H47   H     H_    0.249938 0.027769 0.563385 0.073852
H48   H     H_    0.954544 0.978897 0.437035 0.065241
H49   H     H_    0.766953 0.107615 0.456012 0.098403
H50   H     H_    0.981437 0.219084 0.723422 0.136088
H51   H     H_    0.432048 0.901987 0.542694 0.099141
H52   H     H_    0.169364 0.152813 0.723225 0.118461
H53   H     H_    0.300265 0.273342 0.429542 0.016325
H54   H     H_    0.110454 0.287615 0.458905 0.033219
N1    N     N_R   0.950821 0.512207 0.200405 -0.432907
N2    N     N_R   0.262335 0.500164 0.794670 -0.424301
O1    O     O_2   0.918080 0.549800 0.616640 -0.479590
O2    O     O_3   0.600184 0.250242 0.404390 -0.637762
O3    O     O_3   0.058314 0.182226 0.631092 -0.597515
O4    O     O_2   0.271610 0.450170 0.383330 -0.451588
O5    O     O_3   0.039630 0.450200 0.443530 -0.516424
O6    O     O_3   0.531440 0.620360 0.408460 -0.493683
O7    O     O_3   0.108277 0.302064 0.382800 -0.640093
O8    O     O_3   0.643350 0.612530 0.521650 -0.479339
O9    O     O_3   0.127390 0.668260 0.431510 -0.488783
O10   O     O_2   0.260462 0.830623 0.456205 -0.492129
O11   O     O_3   0.134082 0.812849 0.366351 -0.613431
O12   O     O_3   0.150070 0.549720 0.556460 -0.499178
O13   O     O_3   0.546340 0.387390 0.478340 -0.492781
O14   O     O_2   0.398940 0.728800 0.517420 -0.462329
O15   O     O_3   0.595007 0.767422 0.598625 -0.658567
O16   O     O_2   0.419036 0.533457 0.322970 -0.490351
O17   O     O_3   0.472392 0.709455 0.320095 -0.593403
O18   O     O_2   0.053212 0.366224 0.202368 -0.569604
O19   O     O_2   0.377303 0.357825 0.803627 -0.599727
O20   O     O_2   0.856234 0.658833 0.192341 -0.593060
O21   O     O_2   0.146748 0.643651 0.792374 -0.607699
O22   O     O_3   0.658250 0.379560 0.591530 -0.489299
O23   O     O_2   0.820841 0.432228 0.674494 -0.493805
O24   O     O_3   0.084743 0.697650 0.624388 -0.652033
O25   O     O_3   0.637837 0.294500 0.682884 -0.588483
O26   O     O_2   0.790750 0.271170 0.482550 -0.473600
O27   O     O_3   0.062300 0.331660 0.568480 -0.484768
O28   O     O_2   0.950448 0.166422 0.539252 -0.487782
P1    P     P_3+3 0.090020 0.577590 0.608380 0.965907
P2    P     P_3+3 0.614340 0.285150 0.467650 0.968684
P3    P     P_3+3 0.088999 0.211620 0.570850 0.935897
P4    P     P_3+3 0.099670 0.422330 0.391610 0.975044
P5    P     P_3+3 0.111087 0.789534 0.428378 0.934999
P6    P     P_3+3 0.652974 0.400576 0.655810 0.963163
P7    P     P_3+3 0.581186 0.729594 0.535194 0.942315
P8    P     P_3+3 0.542331 0.604816 0.343493 0.943361
N3    N     N_2   0.208530 0.119356 0.371322 -0.414725
H55   H     H_    0.185631 0.159528 0.341486 0.245747
C67   C     C_3   0.170270 0.024267 0.358622 -0.222837
H56   H     H_    0.207940 0.004389 0.320691 0.104580
H57   H     H_    0.039265 0.016044 0.358379 0.101386
H58   H     H_    0.232805 0.978939 0.385580 0.161297
N4    N     N_2   0.437643 0.690271 0.649073 -0.452624
H59   H     H_    0.358846 0.676689 0.619581 0.197030
C68   C     C_3   0.382935 0.766161 0.682677 -0.182268
H60   H     H_    0.259646 0.754811 0.692952 0.159343
H61   H     H_    0.385720 0.833386 0.665159 0.114499
H62   H     H_    0.456636 0.768857 0.717973 0.100836
N5    N     N_2   0.089812 0.700795 0.300614 -0.420364
H63   H     H_    0.157812 0.651068 0.318582 0.222969
C69   C     C_3   0.162453 0.731138 0.257373 -0.147375
H64   H     H_    0.223490 0.670984 0.237726 0.109652
H65   H     H_    0.250196 0.784729 0.267973 0.129701
H66   H     H_    0.070684 0.760372 0.231240 0.136228
N6    N     N_3   0.212495 0.278594 0.134015 -0.434897
H67   H     H_    0.337033 0.272352 0.133639 0.169253
H68   H     H_    0.165557 0.218446 0.116202 0.173050
N7    N     N_2   0.786259 0.732258 0.109218 -0.379805
H69   H     H_    0.807117 0.795162 0.095277 0.183100
C70   C     C_3   0.618166 0.712335 0.106124 -0.169407
H70   H     H_    0.549307 0.771446 0.123947 0.105269
H71   H     H_    0.597060 0.649069 0.125674 0.122015
H72   H     H_    0.574399 0.702033 0.066720 0.075507
N8    N     N_2   0.873694 0.684556 0.482834 -0.440716
H73   H     H_    0.981469 0.666227 0.499555 0.201703
C71   C     C_3   0.827793 0.626031 0.440395 0.012039
H74   H     H_    0.925687 0.585363 0.426596 0.098291
H75   H     H_    0.785005 0.667806 0.409586 -0.013285
H76   H     H_    0.752207 0.570637 0.450173 0.155690

loop_
_geom_bond_atom_site_label_1
_geom_bond_atom_site_label_2
_ccdc_geom_bond_type
C25   C46   A    
C66   H12   S    
C53   C54   A    
C71   H74   S    
C62   H48   S    
C68   H60   S    
C17   C18   A    
C65   H9    S    
Ba1   O8    S    
C1    H11   S    
C23   H50   S    
C22   C37   D    
O7    P4    S    
N3    H55   S    
C12   H31   S    
N4    C68   S    
C51   C52   A    
C50   C51   A    
C21   H44   S    
C2    H15   S    
C23   H22   S    
C35   C36   S    
C11   C16   D    
C37   P1    S    
O11   P5    S    
C66   H13   S    
C39   N2    S    
O6    P8    S    
C33   N2    Am   
C67   H57   S    
Ba1   O1    S    
Ba1   O5    S    
C59   P7    S    
C28   C29   A    
C70   H71   S    
C32   O21   D    
C56   O24   S    
C46   H39   S    
C31   C47   A    
C54   C63   A    
C64   H6    S    
C10   C20   A    
Ba2   O5    S    
C4    H20   S    
C70   H70   S    
C34   C45   S    
N8    C71   S    
Ba1   Ba2   S    
C8    H30   S    
C15   H33   S    
N7    H69   S    
C71   H76   S    
C49   H49   S    
C25   C42   A    
C56   C64   S    
C71   H75   S    
C67   H56   S    
C17   C41   A    
C14   C15   D    
O4    P4    D    
C28   H35   S    
C14   P4    S    
C22   C36   S    
C6    H24   S    
O27   P3    S    
Ba1   O12   S    
O25   P6    S    
C7    H27   S    
C54   C55   A    
C16   N1    S    
C3    H17   S    
C13   C21   S    
O15   P7    S    
C57   C58   A    
N4    H59   S    
C68   H61   S    
C32   N2    Am   
Ba1   O22   S    
C59   C60   A    
C65   H10   S    
O14   P7    D    
C2    H1    S    
N3    C67   S    
O1    P1    D    
C3    O15   S    
C69   H66   S    
C19   C43   A    
N5    C69   S    
C9    C18   A    
C57   C59   A    
O8    P7    S    
C65   C66   S    
Ba2   O14   S    
Ba2   O9    S    
C26   C30   A    
C67   H58   S    
C6    H26   S    
C36   P6    S    
C69   H65   S    
C65   O2    S    
O3    P3    S    
C37   C38   D    
C7    O17   S    
C38   H42   S    
C1    H16   S    
N5    H63   S    
Ba2   O12   S    
C4    H19   S    
C10   O20   D    
C27   H36   S    
N8    H73   S    
C40   C43   A    
C8    H29   S    
C34   H54   S    
C41   C42   A    
C45   H2    S    
C5    O11   S    
C60   C61   A    
C2    O25   S    
O17   P8    S    
Ba2   O8    S    
C29   C30   A    
O28   P3    D    
C19   N6    S    
C64   H8    S    
C17   C20   A    
C15   C16   S    
C63   H51   S    
Ba1   O26   S    
C8    H32   S    
C7    H28   S    
C45   H3    S    
C49   C55   A    
O2    P2    S    
C38   C39   S    
C20   C44   A    
C14   C21   D    
C11   C13   S    
O26   P2    D    
C68   H62   S    
C29   C33   A    
C34   O7    S    
C40   C41   A    
C61   P5    S    
C1    C2    S    
C23   H52   S    
C5    H23   S    
C25   C26   A    
Ba1   O13   S    
C51   H46   S    
C24   C40   A    
C60   N8    S    
C7    C8    S    
C42   C48   A    
C52   P3    S    
C52   C53   A    
C46   C47   A    
Ba2   P4    S    
Ba2   O13   S    
C9    N1    Am   
C6    H25   S    
C11   H38   S    
O5    P4    S    
O22   P6    S    
N6    H67   S    
C44   C48   A    
C24   C26   A    
C4    H18   S    
C70   H72   S    
C58   C62   A    
C1    H21   S    
C66   H14   S    
C30   C31   A    
C44   N7    S    
C34   H53   S    
C47   H41   S    
C13   P8    S    
C69   H64   S    
C57   C63   A    
O12   P1    S    
C56   H4    S    
C35   H34   S    
C10   N1    Am   
C53   H47   S    
C64   H7    S    
C5    N5    S    
C12   H40   S    
C48   H43   S    
Ba2   O6    S    
C31   C32   A    
O13   P2    S    
Ba1   O27   S    
O9    P5    S    
C3    N4    S    
C12   C23   S    
C35   C39   D    
Ba1   P2    S    
C9    O18   D    
N7    C70   S    
Ba1   P1    S    
C5    C6    S    
C50   C55   A    
C12   O3    S    
C27   C28   A    
C61   C62   A    
C45   N3    S    
C22   H45   S    
O10   P5    D    
C18   C19   A    
C24   C27   A    
O24   P1    S    
C43   H37   S    
C3    C4    S    
C49   C58   A    
O23   P6    D    
C50   P2    S    
O16   P8    D    
C56   H5    S    
C33   O19   D    
N6    H68   S    
Ba2   O4    S    
