data_mof_unit_21794.cif
_audit_creation_date              2012-12-10T17:15:47-0500
_audit_creation_method            fapswitch 2.2
_symmetry_space_group_name_H-M    P1
_symmetry_Int_Tables_number       1
_space_group_crystal_system       triclinic
_cell_length_a                    10.109059
_cell_length_b                    10.745138
_cell_length_c                    10.862595
_cell_angle_alpha                 89.947368
_cell_angle_beta                  95.36541
_cell_angle_gamma                 81.341795
_cell_volume                      1161.23805114

loop_
_atom_site_label
_atom_site_type_symbol
_atom_type_description
_atom_site_fract_x
_atom_site_fract_y
_atom_site_fract_z
_atom_type_partial_charge
C1    C     C_R   0.443696 0.505826 0.267476 0.942790
C2    C     C_2   0.486781 0.473087 0.934184 -0.146706
C3    C     C_2   0.076335 0.480409 0.496466 -0.076515
C4    C     C_R   0.496458 0.261352 0.487432 0.872786
C5    C     C_2   0.935192 0.475681 0.529449 -0.190124
C6    C     C_R   0.556227 0.489050 0.732533 0.946817
C7    C     C_R   0.503802 0.740089 0.505968 0.874713
C8    C     C_R   0.699378 0.092949 0.360225 -0.196017
C9    C     C_R   0.824442 0.020157 0.348875 0.234239
C10   C     C_R   0.853761 0.902057 0.406911 -0.183460
C11   C     C_R   0.755659 0.853787 0.466322 -0.203842
C12   C     C_R   0.604770 0.049395 0.431640 0.068726
C13   C     C_R   0.624481 0.922844 0.468913 0.103828
C14   C     C_3   0.114951 0.620707 0.660628 -0.207084
C15   C     C_3   0.179119 0.738689 0.681024 -0.813367
C16   C     C_3   0.928285 0.070483 0.279863 -0.429975
C17   C     C_3   0.042378 0.105586 0.368924 -0.867225
C18   C     C_R   0.493198 0.129246 0.471771 -0.113123
C19   C     C_R   0.388004 0.080320 0.518761 -0.216267
C20   C     C_R   0.395583 0.953176 0.532756 -0.225416
C21   C     C_R   0.511618 0.873137 0.507898 -0.115397
C22   C     C_2   0.411496 0.500960 0.135776 -0.382879
C23   C     C_2   0.512160 0.468259 0.065787 -0.154548
C24   C     C_2   0.588072 0.474349 0.864261 -0.384500
H1    H     H_    0.300580 0.140232 0.547637 0.176855
H2    H     H_    0.287671 0.716074 0.710978 0.281399
H3    H     H_    0.159602 0.796840 0.595113 0.244973
H4    H     H_    0.131860 0.794473 0.755789 0.208814
H5    H     H_    0.005915 0.657774 0.650356 0.152387
H6    H     H_    0.138950 0.558304 0.743880 0.166936
H7    H     H_    0.677040 0.183825 0.313689 0.148181
H8    H     H_    0.002343 0.177845 0.434505 0.263609
H9    H     H_    0.095329 0.021317 0.421879 0.256643
H10   H     H_    0.115913 0.144715 0.316027 0.249366
H11   H     H_    0.969508 0.998341 0.214652 0.206641
H12   H     H_    0.307974 0.525244 0.096045 0.147402
H13   H     H_    0.882265 0.155538 0.224130 0.194652
H14   H     H_    0.788232 0.765413 0.514869 0.178374
H15   H     H_    0.310806 0.918327 0.565772 0.163657
H16   H     H_    0.906874 0.498698 0.621318 0.165782
H17   H     H_    0.870627 0.429261 0.361257 0.166785
H18   H     H_    0.952271 0.846417 0.405038 0.149647
H19   H     H_    0.382666 0.482040 0.894872 0.185771
H20   H     H_    0.615926 0.443857 0.105114 0.182821
H21   H     H_    0.691898 0.465750 0.904005 0.145477
H22   H     H_    0.111356 0.422973 0.420455 0.140031
N1    N     N_2   0.157290 0.551390 0.551110 -0.046926
N2    N     N_2   0.842740 0.448550 0.448960 -0.197448
O1    O     O_R   0.568950 0.489660 0.307530 -0.621122
O2    O     O_R   0.348880 0.522640 0.340350 -0.617568
O3    O     O_R   0.610060 0.300270 0.483590 -0.610354
O4    O     O_R   0.389990 0.333260 0.516410 -0.625267
O5    O     O_R   0.651120 0.477360 0.659650 -0.617479
O6    O     O_R   0.431050 0.510340 0.692470 -0.613437
O7    O     O_R   0.610010 0.666740 0.483590 -0.623377
O8    O     O_R   0.389940 0.699730 0.516410 -0.611050
Zn1   Zn    Zn3+2 0.646940 0.477980 0.478090 0.930327
Zn2   Zn    Zn3+2 0.353060 0.522020 0.521910 0.940047

loop_
_geom_bond_atom_site_label_1
_geom_bond_atom_site_label_2
_ccdc_geom_bond_type
C11   H14   S    
C14   N1    S    
O3    Zn1   S    
C1    O2    A    
C10   H18   S    
C22   H12   S    
C9    C10   A    
C16   H13   S    
C3    H22   S    
C15   H3    S    
C19   C20   A    
C14   C15   S    
C7    O7    A    
C2    H19   S    
C8    C12   A    
C6    C24   S    
C13   C21   A    
N2    Zn1   S    
C17   H9    S    
C12   C13   A    
N1    Zn2   S    
C11   C13   A    
C15   H4    S    
O4    Zn2   S    
C7    O8    A    
C4    O4    A    
C24   H21   S    
C3    N1    D    
H17   N2    S    
O8    Zn2   S    
C6    O6    A    
C10   C11   A    
O7    Zn1   S    
C16   H11   S    
C2    C24   D    
C19   H1    S    
C5    N2    D    
C17   H10   S    
C4    O3    A    
O2    Zn2   S    
C1    C22   S    
O1    Zn1   S    
C20   C21   A    
C18   C19   A    
O6    Zn2   S    
C5    H16   S    
C12   C18   A    
C2    C23   S    
C20   H15   S    
C17   H8    S    
O5    Zn1   S    
C22   C23   D    
C8    C9    A    
C15   H2    S    
C6    O5    A    
C7    C21   S    
C8    H7    S    
C1    O1    A    
C4    C18   S    
C9    C16   S    
C14   H6    S    
C23   H20   S    
C14   H5    S    
C16   C17   S    
C3    C5    S    
