data_mof_unit_49287.cif
_audit_creation_date              2012-12-11T15:43:53-0500
_audit_creation_method            fapswitch 2.2
_symmetry_space_group_name_H-M    P1
_symmetry_Int_Tables_number       1
_space_group_crystal_system       monoclinic
_cell_length_a                    14.583038
_cell_length_b                    16.263039
_cell_length_c                    6.907714
_cell_angle_alpha                 90.0
_cell_angle_beta                  98.873407
_cell_angle_gamma                 90.0
_cell_volume                      1618.65718321

loop_
_atom_site_label
_atom_site_type_symbol
_atom_type_description
_atom_site_fract_x
_atom_site_fract_y
_atom_site_fract_z
_atom_type_partial_charge
O1    O     O_R   0.831700 0.662810 0.581550 -0.522946
O2    O     O_R   0.168300 0.337190 0.418450 -0.522946
O3    O     O_R   0.168300 0.162810 0.418450 -0.522946
O4    O     O_R   0.831700 0.837190 0.581550 -0.522946
O5    O     O_R   0.842890 0.834390 0.255500 -0.533156
O6    O     O_R   0.157110 0.165610 0.744500 -0.533156
O7    O     O_R   0.157110 0.334390 0.744500 -0.533156
O8    O     O_R   0.842890 0.665610 0.255500 -0.533156
O9    O     O_R   0.661690 0.835580 0.024130 -0.523796
O10   O     O_R   0.338310 0.164420 0.975870 -0.523795
O11   O     O_R   0.338310 0.335580 0.975870 -0.523795
O12   O     O_R   0.661690 0.664420 0.024130 -0.523796
C1    C     C_R   0.863480 0.866188 0.431112 0.741563
C2    C     C_R   0.136519 0.133811 0.568888 0.741563
C3    C     C_R   0.136519 0.366188 0.568888 0.741563
C4    C     C_R   0.863480 0.633811 0.431112 0.741562
C5    C     C_R   0.068212 0.064107 0.533200 -0.121887
C6    C     C_R   0.931788 0.935892 0.466800 -0.121888
C7    C     C_R   0.931788 0.564107 0.466800 -0.121888
C8    C     C_R   0.068212 0.435892 0.533200 -0.121887
H1    H     H_    0.999613 0.903777 0.221559 0.165393
H2    H     H_    0.000387 0.096223 0.778441 0.165393
H3    H     H_    0.000387 0.403777 0.778441 0.165393
H4    H     H_    0.999613 0.596223 0.221559 0.165393
C9    C     C_R   0.998557 0.945947 0.342578 -0.165572
C10   C     C_R   0.001443 0.054053 0.657422 -0.165572
C11   C     C_R   0.001443 0.445947 0.657422 -0.165572
C12   C     C_R   0.998557 0.554053 0.342578 -0.165572
O13   O     O_3   0.687240 0.750000 0.366320 -0.399224
O14   O     O_3   0.312760 0.250000 0.633680 -0.399224
V1    V     V_3+5 0.757720 0.750000 0.115230 1.496617
V2    V     V_3+5 0.242280 0.250000 0.884770 1.496617
O15   O     O_R   0.650500 0.664000 0.690740 -0.553161
O16   O     O_R   0.349500 0.336000 0.309260 -0.553162
O17   O     O_R   0.349500 0.164000 0.309260 -0.553162
O18   O     O_R   0.650500 0.836000 0.690740 -0.553162
C13   C     C_R   0.627182 0.637278 0.853767 0.757892
C14   C     C_R   0.372818 0.362722 0.146233 0.757892
C15   C     C_R   0.372818 0.137278 0.146233 0.757892
C16   C     C_R   0.627182 0.862722 0.853767 0.757893
C17   C     C_R   0.066207 0.008162 0.374054 0.170321
C18   C     C_R   0.933793 0.991838 0.625946 0.170322
C19   C     C_R   0.933793 0.508162 0.625946 0.170322
C20   C     C_R   0.066207 0.491838 0.374054 0.170321
V3    V     V_3+5 0.735670 0.750000 0.607790 1.444573
V4    V     V_3+5 0.264330 0.250000 0.392210 1.444573
O19   O     O_3   0.806150 0.750000 0.906560 -0.347610
O20   O     O_3   0.193850 0.250000 0.093440 -0.347610
C21   C     C_2   0.571341 0.938415 0.850799 -0.363763
C22   C     C_2   0.428659 0.061585 0.149201 -0.363763
C23   C     C_2   0.428659 0.438415 0.149201 -0.363763
C24   C     C_2   0.571341 0.561585 0.850799 -0.363763
C25   C     C_2   0.516366 0.956483 0.987592 0.293047
C26   C     C_2   0.483633 0.043517 0.012408 0.293048
C27   C     C_2   0.483633 0.456483 0.012408 0.293047
C28   C     C_2   0.516366 0.543517 0.987592 0.293047
H5    H     H_    0.411902 0.015617 0.250657 0.153172
H6    H     H_    0.588098 0.984383 0.749343 0.153172
H7    H     H_    0.588098 0.515617 0.749343 0.153172
H8    H     H_    0.411902 0.484383 0.250657 0.153172
I1    I     I_    0.165079 0.006361 0.177639 -0.409982
I2    I     I_    0.834921 0.993639 0.822361 -0.409983
I3    I     I_    0.834921 0.506361 0.822361 -0.409982
I4    I     I_    0.165079 0.493639 0.177639 -0.409983
N1    N     N_2   0.518267 0.108782 0.904586 -0.526423
H9    H     H_    0.526264 0.165160 0.973749 0.242124
C29   C     C_3   0.484726 0.113266 0.696246 -0.477413
H10   H     H_    0.454272 0.174363 0.659625 0.206070
H11   H     H_    0.432035 0.065069 0.647714 0.188000
H12   H     H_    0.543795 0.106939 0.613578 0.183338
N2    N     N_2   0.481733 0.891218 0.095414 -0.526423
H13   H     H_    0.473736 0.834839 0.026251 0.242124
C30   C     C_3   0.515274 0.886734 0.303754 -0.477413
H14   H     H_    0.545728 0.825637 0.340375 0.206070
H15   H     H_    0.456205 0.893061 0.386422 0.183338
H16   H     H_    0.567966 0.934931 0.352286 0.188000
N3    N     N_2   0.481733 0.608781 0.095414 -0.526423
H17   H     H_    0.473736 0.665161 0.026251 0.242124
C31   C     C_3   0.515274 0.613266 0.303754 -0.477413
H18   H     H_    0.545728 0.674363 0.340375 0.206070
H19   H     H_    0.567966 0.565069 0.352286 0.188000
H20   H     H_    0.456205 0.606939 0.386422 0.183338
N4    N     N_2   0.518267 0.391218 0.904586 -0.526423
H21   H     H_    0.526264 0.334839 0.973749 0.242124
C32   C     C_3   0.484725 0.386734 0.696246 -0.477412
H22   H     H_    0.454272 0.325637 0.659625 0.206070
H23   H     H_    0.543795 0.393061 0.613578 0.183337
H24   H     H_    0.432034 0.434931 0.647714 0.188000

loop_
_geom_bond_atom_site_label_1
_geom_bond_atom_site_label_2
_ccdc_geom_bond_type
O6    V2    S    
C27   C28   S    
O15   V3    S    
C30   H14   S    
C17   I1    S    
C19   I3    S    
C26   N1    S    
C25   C26   S    
O2    V4    S    
C22   C26   D    
C1    C6    S    
C5    C10   A    
O8    V1    S    
C6    C18   A    
C32   H22   S    
C16   C21   S    
O12   C13   A    
O4    C1    A    
N1    C29   S    
O16   V4    S    
H3    C11   S    
C18   I2    S    
O5    C1    A    
N3    C31   S    
O8    C4    A    
V1    O19   S    
V2    O20   S    
C2    C5    S    
C6    C9    A    
C8    C20   A    
C7    C19   A    
C5    C17   A    
O4    V3    S    
V3    O19   S    
C3    C8    S    
V4    O20   S    
C32   H23   S    
C29   H10   S    
O18   C16   A    
C9    C17   A    
C31   H19   S    
C13   C24   S    
O9    V1    S    
C14   C23   S    
N3    H17   S    
C12   C20   A    
O9    C16   A    
C20   I4    S    
C28   N3    S    
O13   V3    S    
O10   C15   A    
C29   H11   S    
O11   C14   A    
O17   C15   A    
C7    C12   A    
C24   H7    S    
O10   V2    S    
O6    C2    A    
N4    H21   S    
O18   V3    S    
O1    C4    A    
O2    C3    A    
O3    C2    A    
N4    C32   S    
O11   V2    S    
O12   V1    S    
C30   H16   S    
C30   H15   S    
C27   N4    S    
C25   N2    S    
C10   C18   A    
N2    C30   S    
C32   H24   S    
H1    C9    S    
O7    V2    S    
O16   C14   A    
C22   H5    S    
O14   V4    S    
H4    C12   S    
C31   H20   S    
C8    C11   A    
O3    V4    S    
C29   H12   S    
N2    H13   S    
O13   V1    S    
O14   V2    S    
O1    V3    S    
C4    C7    S    
C21   C25   D    
O7    C3    A    
C23   C27   D    
O15   C13   A    
C21   H6    S    
C31   H18   S    
C11   C19   A    
C15   C22   S    
N1    H9    S    
H2    C10   S    
C23   H8    S    
O17   V4    S    
C24   C28   D    
O5    V1    S    
