data_mof_unit_18045.cif
_audit_creation_date              2012-12-11T16:35:25-0500
_audit_creation_method            fapswitch 2.2
_symmetry_space_group_name_H-M    P1
_symmetry_Int_Tables_number       1
_space_group_crystal_system       triclinic
_cell_length_a                    6.936249
_cell_length_b                    17.65192
_cell_length_c                    19.490712
_cell_angle_alpha                 109.04718
_cell_angle_beta                  90.572407
_cell_angle_gamma                 90.470063
_cell_volume                      2255.47216734

loop_
_atom_site_label
_atom_site_type_symbol
_atom_type_description
_atom_site_fract_x
_atom_site_fract_y
_atom_site_fract_z
_atom_type_partial_charge
O1    O     O_R   0.505700 0.440210 0.561730 -0.538346
O2    O     O_R   0.169350 0.406300 0.412660 -0.540632
O3    O     O_R   0.005650 0.559790 0.438270 -0.540181
C1    C     C_R   0.337805 0.383407 0.384680 0.696021
O4    O     O_R   0.175560 0.430650 0.559600 -0.540338
O5    O     O_R   0.011900 0.584320 0.586250 -0.536331
C2    C     C_R   0.345281 0.414045 0.579422 0.690580
O6    O     O_R   0.499450 0.415680 0.413750 -0.527054
O7    O     O_3   0.341370 0.550390 0.508570 -0.370626
V1    V     V_3+5 0.063940 0.490650 0.498410 1.445886
O8    O     O_R   0.682570 0.593700 0.587340 -0.539571
C3    C     C_R   0.852616 0.616570 0.614966 0.694791
O9    O     O_R   0.676370 0.569350 0.440400 -0.549416
C4    C     C_R   0.844672 0.584451 0.418719 0.688593
V2    V     V_3+5 0.564750 0.509350 0.501590 1.444110
O10   O     O_3   0.837190 0.449610 0.491430 -0.353044
C5    C     C_R   0.026146 0.679062 0.281566 -0.119418
H1    H     H_    0.157430 0.678542 0.251999 0.136701
C6    C     C_R   0.019880 0.634946 0.329500 -0.128007
H2    H     H_    0.145899 0.601406 0.334948 0.117916
C7    C     C_R   0.853013 0.633286 0.369117 -0.080823
C8    C     C_R   0.692079 0.676824 0.359336 -0.220479
H3    H     H_    0.560942 0.674878 0.388526 0.152452
C9    C     C_R   0.696199 0.721732 0.311228 0.017374
C10   C     C_R   0.867514 0.724202 0.272373 0.009387
C11   C     C_R   0.829314 0.855010 0.246637 -0.072282
H4    H     H_    0.772478 0.882510 0.300503 0.117320
C12   C     C_R   0.840106 0.900493 0.199752 -0.171901
H5    H     H_    0.789424 0.961661 0.217961 0.112431
C13   C     C_R   0.918829 0.867831 0.130433 -0.038853
C14   C     C_R   0.987470 0.789094 0.108815 -0.155071
H6    H     H_    0.050538 0.763003 0.055844 0.103169
C15   C     C_R   0.969760 0.742491 0.154603 -0.131283
H7    H     H_    0.018300 0.681069 0.135572 0.113468
C16   C     C_R   0.887847 0.774443 0.223812 0.113448
H8    H     H_    0.020842 0.630528 0.931695 0.112752
C17   C     C_R   0.832522 0.908611 0.748314 -0.144908
C18   C     C_R   0.788364 0.922542 0.683588 -0.120450
C19   C     C_R   0.770536 0.858693 0.619177 -0.099821
C20   C     C_R   0.796440 0.780418 0.619009 -0.130775
C21   C     C_R   0.839881 0.764357 0.683981 0.064746
C22   C     C_R   0.858527 0.829767 0.749954 0.068310
C23   C     C_R   0.866536 0.684805 0.683917 -0.180627
C24   C     C_R   0.909511 0.670586 0.749932 0.069282
C25   C     C_R   0.929370 0.736030 0.815785 0.069248
C26   C     C_R   0.904494 0.815594 0.815755 -0.181569
C27   C     C_R   0.929669 0.591651 0.752035 -0.145788
C28   C     C_R   0.969365 0.577727 0.817128 -0.122063
C29   C     C_R   0.990255 0.641674 0.881278 -0.112444
C30   C     C_R   0.970312 0.720012 0.880929 -0.132025
H9    H     H_    0.846803 0.960305 0.796847 0.097624
H10   H     H_    0.768623 0.983259 0.683399 0.116037
H11   H     H_    0.736967 0.869850 0.568983 0.131682
H12   H     H_    0.782242 0.732844 0.567444 0.100968
H13   H     H_    0.912932 0.539898 0.703661 0.095884
H14   H     H_    0.983121 0.516969 0.817893 0.111150
H15   H     H_    0.985810 0.767719 0.932284 0.090991
H16   H     H_    0.614578 0.481075 0.198281 0.123077
C31   C     C_R   0.208519 0.221153 0.369724 -0.077407
C32   C     C_R   0.155841 0.143505 0.365791 -0.039244
C33   C     C_R   0.191888 0.079544 0.303470 -0.137136
C34   C     C_R   0.279901 0.092768 0.244404 -0.145663
C35   C     C_R   0.331659 0.171159 0.245989 0.069506
C36   C     C_R   0.296035 0.236765 0.310333 0.054423
C37   C     C_R   0.420582 0.184279 0.185275 -0.186040
C38   C     C_R   0.474416 0.263348 0.189405 0.065542
C39   C     C_R   0.439830 0.328904 0.253914 0.074110
C40   C     C_R   0.351647 0.315740 0.314741 -0.181187
C41   C     C_R   0.558527 0.279110 0.129490 -0.111758
C42   C     C_R   0.609753 0.356831 0.133199 -0.110556
C43   C     C_R   0.576109 0.420683 0.195906 -0.132352
C44   C     C_R   0.490948 0.407322 0.255420 -0.139854
H17   H     H_    0.180528 0.268370 0.420066 0.124571
H18   H     H_    0.088614 0.132847 0.411749 0.142611
H19   H     H_    0.152877 0.019197 0.301048 0.128303
H20   H     H_    0.308706 0.040599 0.197967 0.112367
H21   H     H_    0.585041 0.231924 0.078960 0.128917
H22   H     H_    0.674567 0.367609 0.086881 0.131708
H23   H     H_    0.463402 0.459428 0.302081 0.103456
C45   C     C_R   0.463439 0.246574 0.656145 -0.157705
H24   H     H_    0.536721 0.189641 0.639357 0.117919
C46   C     C_R   0.459146 0.291631 0.608515 -0.096396
C47   C     C_R   0.356795 0.364418 0.627590 -0.109274
C48   C     C_R   0.264583 0.390970 0.694698 -0.160157
H25   H     H_    0.187727 0.446976 0.710579 0.109667
C49   C     C_R   0.276227 0.347493 0.743045 -0.130479
H26   H     H_    0.210132 0.372496 0.795536 0.105654
C50   C     C_R   0.375234 0.274309 0.724531 0.085158
C51   C     C_R   0.240638 0.230993 0.826313 -0.188015
H27   H     H_    0.114321 0.266686 0.826626 0.135652
C52   C     C_R   0.254730 0.190319 0.877446 -0.024637
C53   C     C_R   0.414636 0.139767 0.875381 -0.118009
C54   C     C_R   0.562023 0.136724 0.825652 -0.110816
H28   H     H_    0.686633 0.099414 0.823246 0.130708
C55   C     C_R   0.550662 0.180764 0.777777 -0.121411
H29   H     H_    0.670593 0.178088 0.742030 0.108359
C56   C     C_R   0.388409 0.227640 0.776441 0.067375
O11   O     O_R   0.273230 0.084330 0.086440 -0.528190
O12   O     O_R   0.596660 0.069390 0.940470 -0.539200
O13   O     O_R   0.760270 0.915710 0.913690 -0.537189
C57   C     C_R   0.426814 0.087131 0.921433 0.729630
O14   O     O_R   0.603330 0.093680 0.087390 -0.545095
O15   O     O_R   0.766990 0.940160 0.061660 -0.535532
C58   C     C_R   0.434862 0.116555 0.115437 0.711779
O16   O     O_R   0.266510 0.059870 0.938470 -0.530197
O17   O     O_3   0.431050 0.949630 0.991510 -0.369763
V3    V     V_3+5 0.708490 0.009340 0.001580 1.444894
O18   O     O_R   0.096270 0.930570 0.059390 -0.545178
C59   C     C_R   0.928054 0.915932 0.081071 0.678447
O19   O     O_R   0.089600 0.906290 0.912460 -0.540620
C60   C     C_R   0.919405 0.883755 0.884706 0.695262
V4    V     V_3+5 0.207670 0.990600 0.998190 1.450678
O20   O     O_3   0.935250 0.050360 0.008480 -0.362416
C61   C     C_2   0.559756 0.259853 0.538545 0.761803
O21   O     O_2   0.497301 0.199625 0.492358 -0.538552
O22   O     O_R   0.729932 0.295507 0.525531 -0.634547
H30   H     H_    0.777460 0.340751 0.569626 0.266729
C62   C     C_2   0.106960 0.206668 0.934998 0.746216
O23   O     O_2   0.939345 0.217583 0.920946 -0.574404
O24   O     O_R   0.160797 0.213460 0.006140 -0.662979
H31   H     H_    0.047820 0.225761 0.040507 0.292234
C63   C     C_2   0.516631 0.762092 0.300755 0.697222
O25   O     O_2   0.408298 0.789946 0.351756 -0.560300
O26   O     O_R   0.468498 0.766839 0.232428 -0.666837
H32   H     H_    0.344909 0.797226 0.232821 0.296927

loop_
_geom_bond_atom_site_label_1
_geom_bond_atom_site_label_2
_ccdc_geom_bond_type
C2    C47   S    
C35   C37   A    
C54   H28   S    
C42   H22   S    
C21   C22   A    
C41   H21   S    
C55   H29   S    
C1    O6    A    
C61   O21   D    
O17   V4    S    
C25   C26   A    
C33   H19   S    
C19   H11   S    
C11   H4    S    
C34   C35   A    
C36   C40   A    
C4    C7    S    
C27   H13   S    
C12   H5    S    
C6    C7    A    
C48   C49   A    
C44   H23   S    
O5    C3    A    
C13   C14   A    
C17   H9    S    
C49   C50   A    
H16   C43   S    
C38   C41   A    
C18   H10   S    
O17   V3    S    
V2    O10   S    
O18   C59   A    
C39   C44   A    
C22   C26   A    
C17   C22   A    
C29   C30   A    
C62   O23   D    
V3    O20   S    
C5    C6    A    
O19   C60   A    
O8    V2    S    
C27   C28   A    
C14   C15   A    
C42   C43   A    
O1    V2    S    
C51   C52   A    
O7    V1    S    
C31   H17   S    
C50   C56   S    
C24   C27   A    
C38   C39   A    
C31   C32   A    
C54   C55   A    
C26   C60   S    
C21   C23   A    
C34   H20   S    
C41   C42   A    
V4    O20   S    
C5    H1    S    
C62   O24   S    
C57   O16   A    
O11   V4    S    
C13   C59   S    
C39   C40   A    
C48   H25   S    
C46   C61   S    
C45   C46   A    
C51   H27   S    
C19   C20   A    
O4    C2    A    
C49   H26   S    
O18   V4    S    
C51   C56   A    
C32   C33   A    
O2    C1    A    
C23   C24   A    
C17   C18   A    
C47   C48   A    
C9    C63   S    
C15   H7    S    
C31   C36   A    
C52   C62   S    
O14   V3    S    
C9    C10   A    
O14   C58   A    
O3    C4    A    
C53   C57   S    
C10   C16   S    
C28   C29   A    
O12   C57   A    
O16   V4    S    
C37   C38   A    
O6    V2    S    
C20   H12   S    
O9    V2    S    
C8    C9    A    
C63   O26   S    
O2    V1    S    
C52   C53   A    
O24   H31   S    
C1    C40   S    
C28   H14   S    
C20   C21   A    
O13   V3    S    
O1    C2    A    
C30   H15   S    
C14   H6    S    
C24   C25   A    
C45   H24   S    
O5    V1    S    
C61   O22   S    
O8    C3    A    
C55   C56   A    
C3    C23   S    
O12   V3    S    
C11   C12   A    
O15   C59   A    
C5    C10   A    
C7    C8    A    
C6    H2    S    
C12   C13   A    
O7    V2    S    
O4    V1    S    
C45   C50   A    
O3    V1    S    
V1    O10   S    
C18   C19   A    
C25   C30   A    
O11   C58   A    
C32   H18   S    
C53   C54   A    
C15   C16   A    
O22   H30   S    
C33   C34   A    
O19   V4    S    
C35   C36   A    
C11   C16   A    
C43   C44   A    
O13   C60   A    
C46   C47   A    
C8    H3    S    
O15   V3    S    
C37   C58   S    
C63   O25   D    
O9    C4    A    
H8    C29   S    
O26   H32   S    
