data_mof_unit_30587.cif
_audit_creation_date              2012-12-11T14:54:27-0500
_audit_creation_method            fapswitch 2.2
_symmetry_space_group_name_H-M    P1
_symmetry_Int_Tables_number       1
_space_group_crystal_system       triclinic
_cell_length_a                    19.240133
_cell_length_b                    10.936327
_cell_length_c                    18.727637
_cell_angle_alpha                 90.164399
_cell_angle_beta                  89.608533
_cell_angle_gamma                 90.550302
_cell_volume                      3940.31248024

loop_
_atom_site_label
_atom_site_type_symbol
_atom_type_description
_atom_site_fract_x
_atom_site_fract_y
_atom_site_fract_z
_atom_type_partial_charge
C1    C     C_R   0.710626 0.329473 0.638261 0.571891
C2    C     C_R   0.268049 0.383469 0.351668 0.584718
C3    C     C_R   0.232172 0.883552 0.649057 0.583053
C4    C     C_R   0.789311 0.828380 0.361910 0.559379
C5    C     C_3   0.423697 0.327551 0.481850 0.122383
C6    C     C_3   0.441036 0.313388 0.560805 0.141314
C7    C     C_3   0.056003 0.809661 0.438974 0.148219
C8    C     C_3   0.072689 0.821393 0.517311 0.134291
C9    C     C_R   0.721351 0.802827 0.554701 -0.132531
C10   C     C_R   0.322433 0.925708 0.473652 -0.096066
C11   C     C_R   0.183138 0.419963 0.530161 -0.072683
C12   C     C_R   0.772353 0.304623 0.444467 -0.150335
C13   C     C_R   0.730218 0.779963 0.481216 0.160834
C14   C     C_R   0.316610 0.903550 0.547586 0.177018
C15   C     C_R   0.188640 0.393076 0.457923 0.188575
C16   C     C_R   0.764319 0.280849 0.517097 0.176432
C17   C     C_R   0.784943 0.836189 0.442061 0.006424
C18   C     C_R   0.259368 0.947689 0.585370 0.093474
C19   C     C_R   0.241399 0.446568 0.416455 0.085555
C20   C     C_R   0.714145 0.341730 0.558669 0.022821
C21   C     C_R   0.837500 0.896508 0.482373 0.210110
C22   C     C_R   0.220754 0.040856 0.554613 0.276451
C23   C     C_R   0.275676 0.550430 0.444496 0.277508
C24   C     C_R   0.663392 0.408897 0.520717 0.205182
C25   C     C_R   0.830368 0.907902 0.556228 -0.043946
C26   C     C_R   0.222252 0.054650 0.480995 -0.097932
C27   C     C_R   0.271950 0.574406 0.517949 -0.102910
C28   C     C_R   0.670162 0.423962 0.447304 -0.055864
C29   C     C_R   0.766351 0.883157 0.589323 -0.049850
C30   C     C_R   0.270683 0.993582 0.438658 -0.049291
C31   C     C_R   0.229012 0.502711 0.562208 -0.058163
C32   C     C_R   0.731879 0.391671 0.412369 -0.076439
C33   C     C_R   0.554604 0.060123 0.982033 0.188230
C34   C     C_R   0.545398 0.069850 0.055396 0.207621
C35   C     C_R   0.054270 0.559788 0.981857 0.183264
C36   C     C_R   0.044991 0.569299 0.055199 0.209466
C37   C     C_R   0.512699 0.173180 0.083873 -0.050569
C38   C     C_R   0.541046 0.161542 0.937407 -0.061175
C39   C     C_R   0.012616 0.672913 0.083801 -0.042380
C40   C     C_R   0.041045 0.661508 0.937363 -0.059641
C41   C     C_R   0.505058 0.278956 0.041485 0.182446
C42   C     C_R   0.516070 0.271747 0.967966 0.180883
C43   C     C_R   0.005279 0.778899 0.041531 0.183440
C44   C     C_R   0.016355 0.771849 0.968018 0.180175
C45   C     C_R   0.562428 0.150006 0.637973 0.556604
C46   C     C_R   0.468890 0.157432 0.352367 0.506714
C47   C     C_R   0.034337 0.651085 0.645538 0.538703
C48   C     C_R   0.938318 0.648050 0.361103 0.553169
C49   C     C_R   0.767497 0.039420 0.975135 -0.085943
C50   C     C_R   0.185878 0.939646 0.042472 -0.132801
C51   C     C_R   0.268255 0.539037 0.974997 -0.091930
C52   C     C_R   0.685690 0.438204 0.042749 -0.137028
C53   C     C_R   0.771714 0.019873 0.047618 -0.089562
C54   C     C_R   0.181282 0.934460 0.969610 -0.134448
C55   C     C_R   0.272427 0.519601 0.047472 -0.080340
C56   C     C_R   0.680994 0.432856 0.969875 -0.132296
C57   C     C_R   0.755007 0.904891 0.074370 0.076506
C58   C     C_R   0.239547 0.904065 0.927927 0.008322
C59   C     C_R   0.254979 0.405052 0.074390 0.074038
C60   C     C_R   0.739363 0.403441 0.928089 0.006696
C61   C     C_R   0.733539 0.809460 0.028593 -0.050863
C62   C     C_R   0.303018 0.879139 0.960435 -0.137741
C63   C     C_R   0.232890 0.309890 0.028720 -0.059169
C64   C     C_R   0.802964 0.379197 0.960505 -0.140949
C65   C     C_R   0.730434 0.828687 0.955575 -0.068779
C66   C     C_R   0.308335 0.888592 0.034107 -0.134824
C67   C     C_R   0.229844 0.328977 0.955682 -0.062740
C68   C     C_R   0.808337 0.388644 0.034170 -0.133696
C69   C     C_R   0.747671 0.943755 0.929031 0.069065
C70   C     C_R   0.249925 0.922261 0.075005 0.007960
C71   C     C_R   0.247740 0.443662 0.929007 0.064521
C72   C     C_R   0.749873 0.421734 0.075159 0.002910
C73   C     C_R   0.744376 0.960099 0.651284 0.557891
C74   C     C_R   0.271881 0.017103 0.360532 0.571717
C75   C     C_R   0.227495 0.521981 0.640167 0.568241
C76   C     C_R   0.755174 0.461850 0.348872 0.529874
C77   C     C_R   0.727800 0.375362 0.853675 0.533970
C78   C     C_R   0.271275 0.375968 0.147080 0.567587
C79   C     C_R   0.227868 0.875552 0.853598 0.543866
C80   C     C_R   0.771339 0.875814 0.147025 0.537386
C81   C     C_R   0.560140 0.153640 0.861472 0.592429
C82   C     C_R   0.471541 0.158644 0.149356 0.575180
C83   C     C_R   0.060151 0.653640 0.861458 0.587120
C84   C     C_R   0.971503 0.658598 0.149323 0.622030
C85   C     C_R   0.740815 0.972808 0.854644 0.544258
C86   C     C_R   0.258950 0.970229 0.146225 0.558531
C87   C     C_R   0.240824 0.472786 0.854634 0.570127
C88   C     C_R   0.758920 0.470079 0.146288 0.529455
C89   C     C_R   0.510107 0.177728 0.416083 0.006776
C90   C     C_R   0.544458 0.155445 0.561462 0.033400
C91   C     C_R   0.963005 0.639181 0.433432 0.029969
C92   C     C_R   0.004874 0.641610 0.574902 -0.024297
C93   C     C_R   0.489385 0.263630 0.466433 0.035170
C94   C     C_R   0.507341 0.254712 0.536786 0.054959
C95   C     C_R   0.992210 0.741837 0.462834 0.037277
C96   C     C_R   0.009178 0.746043 0.533304 0.017999
C97   C     C_R   0.571588 0.073636 0.508335 -0.059832
C98   C     C_R   0.565494 0.103111 0.434403 -0.031438
C99   C     C_R   0.984555 0.523831 0.543535 -0.003147
C100  C     C_R   0.960030 0.526517 0.473226 0.000388
Cr1   Cr    Cr6+3 0.771950 0.169480 0.750100 1.051330
Cr2   Cr    Cr6+3 0.228050 0.169480 0.249900 1.126363
Cr3   Cr    Cr6+3 0.271950 0.669480 0.750100 1.119387
Cr4   Cr    Cr6+3 0.728050 0.669480 0.249900 1.099289
Cr5   Cr    Cr6+3 0.614930 0.323340 0.749170 1.134806
Cr6   Cr    Cr6+3 0.385070 0.323340 0.250830 1.145779
Cr7   Cr    Cr6+3 0.114930 0.823340 0.749170 1.120552
Cr8   Cr    Cr6+3 0.885070 0.823340 0.250830 1.111916
Cr9   Cr    Cr6+3 0.616590 0.010620 0.750610 1.094517
Cr10  Cr    Cr6+3 0.383410 0.010620 0.249390 1.100487
Cr11  Cr    Cr6+3 0.116590 0.510620 0.750610 1.072060
Cr12  Cr    Cr6+3 0.883410 0.510620 0.249390 1.014963
H1    H     H_    0.779563 0.129680 0.954839 0.141208
H2    H     H_    0.140166 0.965327 0.072886 0.202077
H3    H     H_    0.280884 0.629033 0.954636 0.139359
H4    H     H_    0.639942 0.463330 0.073269 0.198704
H5    H     H_    0.789117 0.093135 0.082474 0.131808
H6    H     H_    0.131135 0.951819 0.946302 0.211430
H7    H     H_    0.290394 0.592625 0.082192 0.150148
H8    H     H_    0.630742 0.449478 0.946614 0.209650
H9    H     H_    0.722156 0.718772 0.048931 0.151679
H10   H     H_    0.347933 0.852314 0.929126 0.174777
H11   H     H_    0.220954 0.219473 0.049147 0.147779
H12   H     H_    0.847955 0.353013 0.929120 0.167295
H13   H     H_    0.714518 0.755119 0.920236 0.145022
H14   H     H_    0.358659 0.875676 0.058396 0.181732
H15   H     H_    0.213428 0.255620 0.920434 0.154021
H16   H     H_    0.858756 0.376339 0.058371 0.178366
H17   H     H_    0.044791 0.897004 0.411387 0.227246
H18   H     H_    0.122335 0.779388 0.534355 0.133822
H19   H     H_    0.376404 0.278212 0.463043 0.133954
H20   H     H_    0.449423 0.400987 0.589857 0.219408
H21   H     H_    0.674888 0.770318 0.581856 0.181811
H22   H     H_    0.365831 0.889053 0.443893 0.186044
H23   H     H_    0.144364 0.372967 0.561293 0.194320
H24   H     H_    0.812987 0.261549 0.414722 0.166593
H25   H     H_    0.870873 0.955506 0.585327 0.213034
H26   H     H_    0.185636 0.112546 0.456879 0.235807
H27   H     H_    0.302103 0.648539 0.540214 0.194891
H28   H     H_    0.630055 0.472436 0.419161 0.234731
O1    O     O_R   0.787510 0.042610 0.670410 -0.464107
O2    O     O_R   0.212490 0.042610 0.329590 -0.451455
O3    O     O_R   0.287510 0.542610 0.670410 -0.443488
O4    O     O_R   0.712490 0.542610 0.329590 -0.453042
O5    O     O_R   0.556450 0.252890 0.823790 -0.430487
O6    O     O_R   0.443550 0.252890 0.176210 -0.455158
O7    O     O_R   0.056450 0.752890 0.823790 -0.443148
O8    O     O_R   0.943550 0.752890 0.176210 -0.440974
O9    O     O_R   0.545750 0.051070 0.830560 -0.424310
O10   O     O_R   0.454250 0.051070 0.169440 -0.459801
O11   O     O_R   0.045750 0.551070 0.830560 -0.448395
O12   O     O_R   0.954250 0.551070 0.169440 -0.457466
O13   O     O_R   0.681210 0.959150 0.825320 -0.479959
O14   O     O_R   0.318790 0.959150 0.174680 -0.491988
O15   O     O_R   0.181210 0.459150 0.825320 -0.469513
O16   O     O_R   0.818790 0.459150 0.174680 -0.514717
O17   O     O_3   0.667820 0.167810 0.749960 -0.354671
O18   O     O_3   0.332180 0.167810 0.250040 -0.332972
O19   O     O_3   0.167820 0.667810 0.749960 -0.350368
O20   O     O_3   0.832180 0.667810 0.250040 -0.322981
O21   O     O_R   0.765670 0.292090 0.675090 -0.450568
O22   O     O_R   0.234330 0.292090 0.324910 -0.470514
O23   O     O_R   0.265670 0.792090 0.675090 -0.475136
O24   O     O_R   0.734330 0.792090 0.324910 -0.448682
O25   O     O_R   0.670220 0.409020 0.668560 -0.449525
O26   O     O_R   0.329780 0.409020 0.331440 -0.436844
O27   O     O_R   0.170220 0.909020 0.668560 -0.440938
O28   O     O_R   0.829780 0.909020 0.331440 -0.486358
O29   O     O_R   0.556580 0.251590 0.674980 -0.454951
O30   O     O_R   0.443420 0.251590 0.325020 -0.483315
O31   O     O_R   0.056580 0.751590 0.674980 -0.461609
O32   O     O_R   0.943420 0.751590 0.325020 -0.461044
O33   O     O_R   0.545890 0.049670 0.670030 -0.462629
O34   O     O_R   0.454110 0.049670 0.329970 -0.531718
O35   O     O_R   0.045890 0.549670 0.670030 -0.571020
O36   O     O_R   0.954110 0.549670 0.329970 -0.505848
O37   O     O_R   0.681340 0.957860 0.676500 -0.540089
O38   O     O_R   0.318660 0.957860 0.323500 -0.455154
O39   O     O_R   0.181340 0.457860 0.676500 -0.475950
O40   O     O_R   0.818660 0.457860 0.323500 -0.568722
O41   O     O_R   0.787380 0.044010 0.830940 -0.502118
O42   O     O_R   0.212620 0.044010 0.169060 -0.501433
O43   O     O_R   0.287380 0.544010 0.830940 -0.485305
O44   O     O_R   0.712620 0.544010 0.169060 -0.502888
O45   O     O_R   0.765540 0.293390 0.823910 -0.509064
O46   O     O_R   0.234460 0.293390 0.176090 -0.481912
O47   O     O_R   0.265540 0.793390 0.823910 -0.501955
O48   O     O_R   0.734460 0.793390 0.176090 -0.484522
O49   O     O_R   0.670090 0.410410 0.829090 -0.502556
O50   O     O_R   0.329910 0.410410 0.170910 -0.466233
O51   O     O_R   0.170090 0.910410 0.829090 -0.498185
O52   O     O_R   0.829910 0.910410 0.170910 -0.482934
C101  C     C_3   0.578556 0.939879 0.523690 -0.243053
C102  C     C_3   0.516922 0.869325 0.490705 -0.266792
C103  C     C_3   0.508593 0.738850 0.517726 -0.290821
H29   H     H_    0.455231 0.706465 0.506255 0.243077
H30   H     H_    0.541808 0.676094 0.487744 0.271409
H31   H     H_    0.518833 0.732020 0.575853 0.222603
H32   H     H_    0.469237 0.921426 0.502030 0.217266
H33   H     H_    0.521806 0.864654 0.431800 0.190021
H34   H     H_    0.625882 0.911638 0.497490 0.178950
H35   H     H_    0.583135 0.918978 0.580905 0.192783
C104  C     C_3   0.611141 0.045476 0.376659 -0.235638
C105  C     C_3   0.634199 0.139462 0.319909 -0.300558
C106  C     C_3   0.694683 0.093220 0.274694 -0.402294
H36   H     H_    0.741672 0.084247 0.308198 0.182945
H37   H     H_    0.681204 0.003483 0.250379 0.209930
H38   H     H_    0.706407 0.159474 0.231312 0.139898
H39   H     H_    0.590408 0.159390 0.283589 0.183870
H40   H     H_    0.650159 0.226188 0.345959 0.167086
H41   H     H_    0.658740 0.008128 0.401250 0.174555
H42   H     H_    0.583150 0.969462 0.349629 0.191135
C107  C     C_3   0.987404 0.401871 0.588109 -0.231981
C108  C     C_3   0.986553 0.263909 0.568730 -0.294780
C109  C     C_3   0.978190 0.188610 0.637618 -0.330666
H43   H     H_    0.933509 0.221203 0.670128 0.169764
H44   H     H_    0.966881 0.091582 0.625200 0.232193
H45   H     H_    0.026177 0.194871 0.670108 0.196205
H46   H     H_    0.946048 0.231980 0.533591 0.247568
H47   H     H_    0.036044 0.236789 0.542202 0.244892
H48   H     H_    0.041737 0.396538 0.604660 0.197208
H49   H     H_    0.951452 0.415994 0.634122 0.184697
C110  C     C_3   0.923539 0.414913 0.444171 -0.239963
C111  C     C_3   0.970082 0.329693 0.397860 -0.225718
C112  C     C_3   0.935639 0.260539 0.336287 -0.380078
H50   H     H_    0.897897 0.191277 0.355456 0.189102
H51   H     H_    0.911630 0.322711 0.297641 0.198136
H52   H     H_    0.976395 0.209691 0.306579 0.177843
H53   H     H_    0.012945 0.384030 0.374108 0.270969
H54   H     H_    0.993229 0.258672 0.430998 0.223920
H55   H     H_    0.895019 0.368700 0.486712 0.165710
H56   H     H_    0.880297 0.449768 0.416430 0.175162
Cl1   Cl    Cl    0.435079 0.479305 0.451258 -0.572771
Cl2   Cl    Cl    0.383349 0.209224 0.605394 -0.534170
Cl3   Cl    Cl    0.117078 0.715672 0.392284 -0.555751
Cl4   Cl    Cl    0.059064 0.971836 0.547766 -0.589427
Cl5   Cl    Cl    0.662871 0.703303 0.438800 -0.652190
Cl6   Cl    Cl    0.383007 0.834933 0.596437 -0.612427
Cl7   Cl    Cl    0.126112 0.298093 0.420509 -0.675090
Cl8   Cl    Cl    0.821797 0.180763 0.552996 -0.668104
Cl9   Cl    Cl    0.907855 0.979041 0.444733 -0.605030
Cl10  Cl    Cl    0.175668 0.146970 0.608126 -0.529659
Cl11  Cl    Cl    0.318947 0.655806 0.388258 -0.493542
Cl12  Cl    Cl    0.593772 0.487925 0.560635 -0.612340
Cl13  Cl    Cl    0.575017 0.913513 0.948193 -0.498511
Cl14  Cl    Cl    0.575087 0.950863 0.111544 -0.530364
Cl15  Cl    Cl    0.074448 0.413114 0.947878 -0.510104
Cl16  Cl    Cl    0.074154 0.449510 0.111095 -0.489384
Cl17  Cl    Cl    0.481570 0.422877 0.078337 -0.490019
Cl18  Cl    Cl    0.488743 0.398366 0.916108 -0.469869
Cl19  Cl    Cl    0.982051 0.922866 0.078519 -0.493064
Cl20  Cl    Cl    0.989439 0.898912 0.916287 -0.494545

loop_
_geom_bond_atom_site_label_1
_geom_bond_atom_site_label_2
_ccdc_geom_bond_type
C58   C62   A    
C49   H1    S    
C104  C105  S    
C93   C94   A    
C55   C59   A    
C63   H11   S    
C34   C37   A    
C77   O45   A    
C41   C42   A    
C14   C18   A    
Cr9   O33   S    
C25   H25   S    
C95   C96   A    
C78   O50   A    
C50   C54   A    
C62   H10   S    
C43   C44   A    
Cr9   O17   S    
C111  C112  S    
Cr2   O18   S    
C97   C98   A    
C6    Cl2   S    
C3    O27   A    
C7    C8    S    
C108  H47   S    
C46   C89   S    
C55   H7    S    
C107  C108  S    
C110  H56   S    
C15   C19   A    
C10   H22   S    
Cr2   O46   S    
Cr5   O29   S    
C37   C41   A    
Cr11  O35   S    
Cr6   O26   S    
C35   Cl15  S    
C112  H50   S    
C39   C84   S    
C38   C42   A    
C111  H54   S    
C108  H46   S    
C109  H44   S    
C87   O43   A    
C5    C6    S    
C30   C74   S    
C23   Cl11  S    
C53   H5    S    
C88   O44   A    
C29   C73   S    
Cr10  O38   S    
C15   Cl7   S    
Cr10  O14   S    
C92   C96   A    
C112  H52   S    
C101  H34   S    
C3    C18   S    
C61   H9    S    
C47   C92   S    
C97   C101  S    
C9    C13   A    
C21   C25   A    
C28   H28   S    
C72   C88   S    
C48   O32   A    
Cr1   O1    S    
C44   Cl20  S    
C102  H33   S    
C35   C36   A    
C6    C94   S    
C48   C91   S    
C8    C96   S    
C105  H39   S    
C34   Cl14  S    
C12   H24   S    
C40   C44   A    
C46   O34   A    
C33   Cl13  S    
C78   O46   A    
C23   C27   A    
C91   C100  A    
C75   O39   A    
C2    O26   A    
C90   C97   A    
C51   C55   A    
Cr10  O18   S    
C9    C29   A    
Cr5   O5    S    
Cr12  O40   S    
C103  H31   S    
C73   O37   A    
C83   O7    A    
C52   H4    S    
C102  C103  S    
Cr8   O28   S    
Cr1   O17   S    
C49   C69   A    
C12   C32   A    
Cr11  O39   S    
C56   H8    S    
C40   C83   S    
C104  H41   S    
C11   C15   A    
Cr4   O20   S    
Cr1   O45   S    
C45   O29   A    
C59   C78   S    
C82   O6    A    
C110  H55   S    
C90   C94   A    
C83   O11   A    
C81   O9    A    
C43   Cl19  S    
C25   C29   A    
Cr4   O48   S    
Cr7   O27   S    
C60   C77   S    
C62   C66   A    
Cr6   O30   S    
C27   C31   A    
Cr2   O42   S    
C12   C16   A    
C98   C104  S    
C28   C32   A    
Cr3   O47   S    
C110  C111  S    
C6    H20   S    
C42   Cl18  S    
C10   C14   A    
C109  H45   S    
C107  H48   S    
C14   Cl6   S    
C53   C57   A    
C108  C109  S    
C13   Cl5   S    
C99   C107  S    
C100  C110  S    
C26   H26   S    
Cr6   O18   S    
C91   C95   A    
C17   C21   A    
C101  H35   S    
C4    O28   A    
Cr11  O11   S    
C68   C72   A    
C50   H2    S    
C65   H13   S    
C48   O36   A    
C84   O8    A    
Cr9   O9    S    
C109  H43   S    
C63   C67   A    
C32   C76   S    
C52   C72   A    
C69   C85   S    
C11   H23   S    
Cr7   O7    S    
C107  H49   S    
C10   C30   A    
C80   O52   A    
C47   O31   A    
C102  H32   S    
C74   O38   A    
C1    O25   A    
C16   C20   A    
Cr5   O17   S    
Cr7   O19   S    
C4    O24   A    
C33   C34   A    
C80   O48   A    
C11   C31   A    
C85   O13   A    
C57   C61   A    
C45   C90   S    
C68   H16   S    
C82   O10   A    
C75   O3    A    
C58   C79   S    
C7    Cl3   S    
C71   C87   S    
C4    C17   S    
C84   O12   A    
Cr12  O36   S    
C57   C80   S    
C26   C30   A    
C81   O5    A    
C54   H6    S    
C38   C81   S    
Cr12  O16   S    
C67   H15   S    
C36   Cl16  S    
Cr2   O2    S    
Cr3   O43   S    
C37   C82   S    
C73   O1    A    
Cr6   O50   S    
C105  H40   S    
C70   C86   S    
C64   C68   A    
C8    Cl4   S    
C31   C75   S    
C22   Cl10  S    
Cr9   O13   S    
Cr2   O22   S    
C19   C23   A    
C21   Cl9   S    
C54   C58   A    
C106  H38   S    
C65   C69   A    
C106  H36   S    
C1    C20   S    
C85   O41   A    
Cr12  O20   S    
Cr4   O44   S    
C2    C19   S    
C18   C22   A    
C59   C63   A    
C36   C39   A    
C24   C28   A    
Cr11  O19   S    
C76   O40   A    
Cr3   O3    S    
Cr12  O12   S    
Cr4   O24   S    
C5    C93   S    
C51   C71   A    
C79   O47   A    
Cr8   O20   S    
Cr7   O31   S    
C3    O23   A    
C5    Cl1   S    
C7    C95   S    
C66   C70   A    
Cr3   O23   S    
C33   C38   A    
Cr6   O6    S    
C99   C100  A    
C13   C17   A    
C89   C98   A    
C60   C64   A    
C77   O49   A    
Cr1   O21   S    
C35   C40   A    
C86   O14   A    
C66   H14   S    
C41   Cl17  S    
C74   O2    A    
C64   H12   S    
C111  H53   S    
C8    H18   S    
Cr3   O19   S    
C50   C70   A    
Cr10  O34   S    
Cr10  O10   S    
Cr8   O32   S    
C49   C53   A    
C76   O4    A    
C112  H51   S    
Cr5   O49   S    
Cr5   O25   S    
C24   Cl12  S    
C67   C71   A    
C61   C65   A    
C89   C93   A    
C104  H42   S    
Cr1   O41   S    
C27   H27   S    
C7    H17   S    
Cr4   O4    S    
C51   H3    S    
C1    O21   A    
C103  H29   S    
C46   O30   A    
C45   O33   A    
C5    H19   S    
C56   C60   A    
C105  C106  S    
C16   Cl8   S    
C101  C102  S    
C22   C26   A    
C39   C43   A    
Cr7   O51   S    
C86   O42   A    
Cr9   O37   S    
Cr8   O52   S    
C79   O51   A    
C88   O16   A    
Cr8   O8    S    
C106  H37   S    
Cr11  O15   S    
C20   C24   A    
C47   O35   A    
C87   O15   A    
C52   C56   A    
C92   C99   A    
C2    O22   A    
C103  H30   S    
C9    H21   S    
