data_mof_unit_61685.cif
_audit_creation_date              2012-12-10T17:00:46-0500
_audit_creation_method            fapswitch 2.2
_symmetry_space_group_name_H-M    P1
_symmetry_Int_Tables_number       1
_space_group_crystal_system       triclinic
_cell_length_a                    13.112767
_cell_length_b                    13.126828
_cell_length_c                    19.491252
_cell_angle_alpha                 100.252675
_cell_angle_beta                  80.735016
_cell_angle_gamma                 90.821778
_cell_volume                      3258.01541002

loop_
_atom_site_label
_atom_site_type_symbol
_atom_type_description
_atom_site_fract_x
_atom_site_fract_y
_atom_site_fract_z
_atom_type_partial_charge
C1    C     C_R   0.223290 0.537519 0.525793 0.514161
C2    C     C_2   0.475880 0.521706 0.986722 -0.137996
C3    C     C_2   0.536617 0.459954 0.011131 -0.164938
C4    C     C_R   0.776089 0.462956 0.473263 0.468649
C5    C     C_R   0.515915 0.477888 0.233038 0.006892
C6    C     C_2   0.887171 0.444521 0.461630 0.032533
C7    C     C_2   0.946296 0.518185 0.492242 -0.121144
C8    C     C_2   0.111564 0.555176 0.533867 -0.108915
C9    C     C_2   0.059089 0.508911 0.483747 -0.105719
C10   C     C_2   0.544721 0.887712 0.530101 -0.079129
C11   C     C_2   0.507566 0.940364 0.486833 -0.145737
C12   C     C_R   0.483479 0.524874 0.910972 -0.002075
C13   C     C_2   0.458635 0.110184 0.466772 -0.097910
C14   C     C_2   0.512109 0.053491 0.499695 -0.150889
C15   C     C_R   0.467169 0.223141 0.478865 0.513865
C16   C     C_R   0.533533 0.776246 0.521172 0.510595
C17   C     C_R   0.510291 0.486325 0.309491 0.502444
C18   C     C_R   0.490657 0.514069 0.690401 0.534024
C19   C     C_R   0.490023 0.521250 0.766205 0.050107
C20   C     C_R   0.578428 0.491987 0.791010 0.269888
C21   C     C_R   0.575437 0.497465 0.863593 -0.088231
C22   C     C_3   0.696771 0.363364 0.741256 -0.092386
C23   C     C_R   0.396799 0.555936 0.885934 -0.131907
C24   C     C_2   0.924714 0.340443 0.422629 0.232272
C25   C     C_2   0.349683 0.382186 0.093060 0.220874
C26   C     C_R   0.400235 0.554909 0.814025 -0.170755
C27   C     C_R   0.437526 0.428095 0.126964 0.028214
C28   C     C_R   0.432876 0.437068 0.200160 -0.086399
C29   C     C_R   0.605122 0.508569 0.192362 -0.126468
C30   C     C_R   0.611140 0.499308 0.119750 -0.118798
C31   C     C_R   0.527634 0.461053 0.086966 -0.000379
H1    H     H_    0.680422 0.524158 0.089098 0.125415
H2    H     H_    0.670511 0.539230 0.216600 0.144090
H3    H     H_    0.596820 0.411409 0.976470 0.123420
H4    H     H_    0.325775 0.579147 0.921919 0.125628
H5    H     H_    0.331817 0.577525 0.795493 0.137706
H6    H     H_    0.415776 0.568090 0.023573 0.137669
H7    H     H_    0.645675 0.481492 0.882408 0.113406
H8    H     H_    0.631481 0.311015 0.730149 0.121442
H9    H     H_    0.723697 0.351232 0.790460 0.098871
H10   H     H_    0.761690 0.341561 0.697102 0.158138
H11   H     H_    0.876169 0.294532 0.389088 0.105775
H12   H     H_    0.100021 0.462239 0.435903 0.211035
H13   H     H_    0.355249 0.367110 0.036045 0.121121
H14   H     H_    0.909537 0.587571 0.525564 0.119403
H15   H     H_    0.071975 0.604511 0.581145 0.112524
H16   H     H_    0.559520 0.090981 0.537576 0.160733
H17   H     H_    0.471024 0.900019 0.443597 0.137048
H18   H     H_    0.409633 0.073057 0.429912 0.120096
H19   H     H_    0.575461 0.927678 0.576009 0.094827
H20   H     H_    0.364401 0.412377 0.231705 0.183435
O1    O     O_3   0.500000 0.500000 0.500000 -0.447290
O2    O     O_R   0.441420 0.437150 0.344000 -0.544746
O3    O     O_R   0.438960 0.578560 0.667440 -0.552327
O4    O     O_R   0.575450 0.541060 0.341470 -0.543354
O5    O     O_R   0.544160 0.443230 0.647100 -0.508065
O6    O     O_3   0.670179 0.468162 0.744730 -0.549560
O7    O     O_2   0.006049 0.302647 0.429714 -0.496908
O8    O     O_2   0.269750 0.359897 0.128510 -0.500575
O9    O     O_R   0.530110 0.266880 0.518530 -0.548861
O10   O     O_R   0.465470 0.738830 0.563940 -0.533394
O11   O     O_R   0.266890 0.467300 0.476120 -0.526928
O12   O     O_R   0.737530 0.526990 0.441410 -0.540609
O13   O     O_R   0.276880 0.592620 0.567490 -0.538348
O14   O     O_R   0.718700 0.413090 0.514970 -0.531009
O15   O     O_R   0.414920 0.276880 0.447500 -0.524938
O16   O     O_R   0.589510 0.717410 0.470040 -0.529190
Zn1   Zn    Zn3+2 0.571990 0.407410 0.544380 0.953124
Zn2   Zn    Zn3+2 0.407420 0.421690 0.442900 0.962968
Zn3   Zn    Zn3+2 0.598910 0.570150 0.439280 0.944495
Zn4   Zn    Zn3+2 0.421690 0.600750 0.573440 0.948988

loop_
_geom_bond_atom_site_label_1
_geom_bond_atom_site_label_2
_ccdc_geom_bond_type
C3    C31   S    
C7    C9    S    
C6    C7    D    
C17   O2    A    
C25   C27   S    
C5    C28   A    
C24   H11   S    
C15   O9    A    
C17   O4    A    
C23   H4    S    
C19   C20   A    
O1    Zn1   S    
O12   Zn3   S    
C18   O5    A    
O14   Zn1   S    
C2    C12   S    
C1    O11   A    
O10   Zn4   S    
C22   O6    S    
C2    C3    D    
C20   O6    S    
C22   H9    S    
O13   Zn4   S    
O1    Zn4   S    
C10   C16   S    
O4    Zn3   S    
C30   H1    S    
C15   O15   A    
C2    H6    S    
C11   H17   S    
C29   C30   A    
O15   Zn2   S    
C4    O12   A    
C13   H18   S    
C22   H8    S    
C7    H14   S    
C25   H13   S    
C6    C24   S    
C11   C14   S    
C18   C19   S    
C5    C29   A    
C13   C15   S    
C30   C31   A    
C28   H20   S    
C8    H15   S    
C9    H12   S    
C22   H10   S    
C5    C17   S    
C10   C11   D    
C18   O3    A    
C27   C31   A    
C13   C14   D    
C1    C8    S    
C1    O13   A    
C29   H2    S    
O1    Zn3   S    
C20   C21   A    
O9    Zn1   S    
C24   O7    D    
C4    C6    S    
C16   O10   A    
C23   C26   A    
C26   H5    S    
C27   C28   A    
C16   O16   A    
C19   C26   A    
C4    O14   A    
C3    H3    S    
C12   C23   A    
O1    Zn2   S    
C25   O8    D    
O16   Zn3   S    
O2    Zn2   S    
O5    Zn1   S    
C14   H16   S    
C12   C21   A    
C21   H7    S    
O3    Zn4   S    
O11   Zn2   S    
C8    C9    D    
C10   H19   S    
