data_mof_unit_22749.cif
_audit_creation_date              2012-12-10T19:52:13-0500
_audit_creation_method            fapswitch 2.2
_symmetry_space_group_name_H-M    P1
_symmetry_Int_Tables_number       1
_space_group_crystal_system       triclinic
_cell_length_a                    14.76766
_cell_length_b                    14.125775
_cell_length_c                    10.611699
_cell_angle_alpha                 90.046928
_cell_angle_beta                  89.659727
_cell_angle_gamma                 90.555509
_cell_volume                      2213.50595468

loop_
_atom_site_label
_atom_site_type_symbol
_atom_type_description
_atom_site_fract_x
_atom_site_fract_y
_atom_site_fract_z
_atom_type_partial_charge
C1    C     C_R   0.327233 0.499681 0.502951 0.896526
C2    C     C_R   0.899109 0.581206 0.622960 0.493581
C3    C     C_R   0.819218 0.418325 0.517965 -0.322818
C4    C     C_R   0.808501 0.581661 0.587440 -0.334794
C5    C     C_R   0.769040 0.500989 0.533136 -0.180696
C6    C     C_R   0.951496 0.501399 0.594656 -0.084926
C7    C     C_R   0.445578 0.104283 0.416987 -0.370164
C8    C     C_R   0.419894 0.895087 0.492885 -0.365669
C9    C     C_R   0.495723 0.499948 0.257855 0.942693
C10   C     C_R   0.446327 0.203671 0.418196 -0.005833
C11   C     C_R   0.420633 0.795750 0.492897 -0.021430
C12   C     C_3   0.587122 0.503597 0.922958 -0.441962
C13   C     C_R   0.553686 0.205523 0.582567 -0.112623
C14   C     C_R   0.580416 0.795888 0.498659 -0.099900
C15   C     C_R   0.552893 0.105905 0.588620 0.427123
C16   C     C_R   0.583480 0.895470 0.491807 0.430173
C17   C     C_R   0.499762 0.053406 0.501471 0.006198
C18   C     C_R   0.501517 0.946986 0.495419 0.012730
C19   C     C_R   0.673165 0.500381 0.504964 0.940389
C20   C     C_R   0.489565 0.499960 0.741704 0.869323
C21   C     C_3   0.437894 0.586984 0.075440 -0.593393
C22   C     C_3   0.437817 0.411758 0.075536 -0.470624
C23   C     C_R   0.087997 0.575058 0.501267 0.476958
C24   C     C_3   0.432903 0.587464 0.930675 0.300510
C25   C     C_3   0.437158 0.409081 0.930697 0.340687
C26   C     C_3   0.592150 0.495845 0.068349 0.882534
C27   C     C_3   0.492359 0.499998 0.121809 -0.062181
C28   C     C_3   0.487071 0.500197 0.878781 -0.079906
C29   C     C_3   0.555126 0.015638 0.769811 0.092220
C30   C     C_3   0.589269 0.045189 0.899988 -0.311834
C31   C     C_3   0.537047 0.994838 0.005322 -1.026457
C32   C     C_3   0.677843 0.983722 0.364440 0.100901
C33   C     C_3   0.777838 0.983633 0.327395 -0.320601
C34   C     C_R   0.104803 0.445503 0.652262 0.517182
C35   C     C_3   0.794918 0.039553 0.206406 -0.994239
C36   C     C_3   0.403484 0.749039 0.895857 0.088294
C37   C     C_3   0.328002 0.743940 0.797034 -0.357805
C38   C     C_3   0.284884 0.840515 0.776867 -0.966259
C39   C     C_3   0.415471 0.256559 0.846181 0.141593
C40   C     C_3   0.362652 0.209444 0.954764 -0.426319
C41   C     C_3   0.298859 0.132198 0.906142 -0.950655
C42   C     C_3   0.639960 0.661571 0.096981 0.018967
C43   C     C_3   0.732604 0.706620 0.071767 -0.352869
C44   C     C_3   0.724396 0.810365 0.034322 -0.988957
C45   C     C_R   0.179545 0.570933 0.474156 -0.328960
C46   C     C_3   0.709493 0.395776 0.152986 0.204179
C47   C     C_3   0.788338 0.418386 0.061458 -0.317410
C48   C     C_3   0.864151 0.472273 0.127558 -1.028136
C49   C     C_3   0.004601 0.609607 0.326697 0.090795
C50   C     C_3   0.996878 0.691286 0.233012 -0.364153
C51   C     C_3   0.939659 0.771961 0.285077 -0.760451
C52   C     C_3   0.062800 0.428845 0.859006 0.088716
C53   C     C_3   0.154713 0.432950 0.926211 -0.379885
C54   C     C_3   0.145245 0.469185 0.061134 -1.010084
C55   C     C_3   0.996749 0.329728 0.408678 0.092893
C56   C     C_R   0.194963 0.437720 0.616307 -0.335282
C57   C     C_3   0.946734 0.253265 0.333048 -0.347707
C58   C     C_3   0.990724 0.238035 0.204167 -0.963637
C59   C     C_3   0.906601 0.680697 0.792429 0.083597
C60   C     C_3   0.964371 0.758000 0.854258 -0.316619
C61   C     C_3   0.062502 0.727459 0.870413 -0.828805
C62   C     C_R   0.231729 0.500253 0.527476 -0.168179
C63   C     C_R   0.049667 0.510849 0.589078 -0.088761
C64   C     C_R   0.910847 0.418339 0.546132 0.477598
H1    H     H_    0.465136 0.654706 0.112096 0.202378
H2    H     H_    0.643215 0.757297 0.499145 0.154556
H3    H     H_    0.367627 0.583178 0.114129 0.158279
H4    H     H_    0.367060 0.414186 0.112022 0.120654
H5    H     H_    0.360991 0.576334 0.902607 0.059182
H6    H     H_    0.365054 0.413355 0.899698 0.014380
H7    H     H_    0.623088 0.566547 0.884418 0.153170
H8    H     H_    0.623697 0.443139 0.879142 0.197686
H9    H     H_    0.209200 0.621322 0.408423 0.171957
H10   H     H_    0.236971 0.385274 0.661362 0.167445
H11   H     H_    0.564073 0.938041 0.758761 0.169318
H12   H     H_    0.466461 0.344838 0.112765 0.250130
H13   H     H_    0.481030 0.030071 0.764673 0.099484
H14   H     H_    0.662323 0.028050 0.907981 0.236752
H15   H     H_    0.581718 0.122925 0.911475 0.240800
H16   H     H_    0.463477 0.009074 0.998158 0.274678
H17   H     H_    0.561279 0.020834 0.098065 0.269137
H18   H     H_    0.547916 0.917329 0.000122 0.265054
H19   H     H_    0.655148 0.058319 0.370518 0.165402
H20   H     H_    0.639008 0.947030 0.288374 0.104050
H21   H     H_    0.818893 0.015309 0.404433 0.243240
H22   H     H_    0.799480 0.909372 0.313239 0.223403
H23   H     H_    0.787878 0.354230 0.481988 0.177560
H24   H     H_    0.751729 0.012277 0.128951 0.275588
H25   H     H_    0.866947 0.032415 0.177852 0.268884
H26   H     H_    0.780191 0.115690 0.221795 0.268197
H27   H     H_    0.442040 0.816228 0.883061 0.169158
H28   H     H_    0.373382 0.751879 0.992125 0.118214
H29   H     H_    0.356060 0.717748 0.706747 0.257922
H30   H     H_    0.274203 0.693497 0.828066 0.194301
H31   H     H_    0.254902 0.866642 0.866453 0.264109
H32   H     H_    0.230594 0.834325 0.705299 0.275022
H33   H     H_    0.336254 0.892618 0.742926 0.264709
H34   H     H_    0.769265 0.645136 0.602143 0.175911
H35   H     H_    0.453294 0.200617 0.796192 0.155360
H36   H     H_    0.368757 0.287475 0.775484 0.127113
H37   H     H_    0.411021 0.178107 0.022436 0.238111
H38   H     H_    0.321391 0.262669 0.005531 0.213343
H39   H     H_    0.248472 0.162984 0.840943 0.276790
H40   H     H_    0.262181 0.099097 0.986690 0.266774
H41   H     H_    0.337360 0.076464 0.855938 0.257173
H42   H     H_    0.609474 0.696918 0.180382 0.177380
H43   H     H_    0.596985 0.675530 0.015164 0.197679
H44   H     H_    0.774171 0.701609 0.158088 0.231602
H45   H     H_    0.403990 0.067339 0.348720 0.170975
H46   H     H_    0.767274 0.667350 0.995045 0.214786
H47   H     H_    0.688242 0.816534 0.943229 0.277545
H48   H     H_    0.792831 0.842578 0.023749 0.265471
H49   H     H_    0.686912 0.849771 0.108151 0.270636
H50   H     H_    0.717532 0.321793 0.186204 0.108949
H51   H     H_    0.711382 0.438974 0.240729 0.167604
H52   H     H_    0.815436 0.351405 0.021922 0.200223
H53   H     H_    0.765760 0.462121 0.981050 0.227751
H54   H     H_    0.839426 0.542116 0.159743 0.287177
H55   H     H_    0.921922 0.483812 0.061900 0.252015
H56   H     H_    0.355542 0.931191 0.492468 0.175567
H57   H     H_    0.887369 0.432013 0.210391 0.261835
H58   H     H_    0.936593 0.577214 0.341766 0.145558
H59   H     H_    0.049181 0.555408 0.282422 0.085190
H60   H     H_    0.065663 0.718789 0.209278 0.212602
H61   H     H_    0.965629 0.664363 0.144820 0.172477
H62   H     H_    0.873780 0.744594 0.321374 0.244633
H63   H     H_    0.926989 0.824044 0.209019 0.218250
H64   H     H_    0.975804 0.808620 0.362848 0.290921
H65   H     H_    0.014868 0.386502 0.917649 0.176322
H66   H     H_    0.033461 0.500950 0.851326 0.121229
H67   H     H_    0.404467 0.241990 0.352681 0.138295
H68   H     H_    0.184700 0.361106 0.927873 0.235337
H69   H     H_    0.201649 0.481165 0.874368 0.197419
H70   H     H_    0.114669 0.540557 0.062136 0.257147
H71   H     H_    0.213012 0.474096 0.105349 0.259472
H72   H     H_    0.102356 0.420247 0.117891 0.269695
H73   H     H_    0.068696 0.308715 0.418204 0.175008
H74   H     H_    0.997689 0.398015 0.356151 0.080647
H75   H     H_    0.947435 0.185468 0.386137 0.244145
H76   H     H_    0.875112 0.274018 0.319564 0.203424
H77   H     H_    0.987035 0.303397 0.146779 0.267934
H78   H     H_    0.357020 0.757511 0.488698 0.150457
H79   H     H_    0.954383 0.180727 0.153218 0.272027
H80   H     H_    0.062697 0.217526 0.214820 0.266292
H81   H     H_    0.907842 0.616207 0.853076 0.103896
H82   H     H_    0.835889 0.706813 0.787551 0.112830
H83   H     H_    0.962543 0.823278 0.795943 0.233049
H84   H     H_    0.935525 0.774703 0.948491 0.169224
H85   H     H_    0.065517 0.663299 0.930143 0.227698
H86   H     H_    0.101497 0.784958 0.917226 0.237681
H87   H     H_    0.094287 0.712421 0.777487 0.294888
H88   H     H_    0.595806 0.245721 0.646783 0.175181
N1    N     N_R   0.499980 0.252470 0.500000 -0.119735
N2    N     N_R   0.499980 0.747530 0.500000 -0.112061
O1    O     O_R   0.369070 0.579480 0.500010 -0.645295
O2    O     O_3   0.667415 0.939692 0.483620 -0.616380
O3    O     O_3   0.466546 0.674549 0.881347 -0.621694
O4    O     O_3   0.479674 0.324221 0.889994 -0.598746
O5    O     O_3   0.651902 0.564726 0.125568 -0.690910
O6    O     O_3   0.624103 0.401700 0.093076 -0.662970
O7    O     O_3   0.037239 0.643986 0.443266 -0.571875
O8    O     O_3   0.069791 0.382985 0.740716 -0.602778
O9    O     O_3   0.959451 0.335617 0.531616 -0.597307
O10   O     O_3   0.940103 0.662310 0.669959 -0.575290
O11   O     O_R   0.369070 0.420520 0.500010 -0.631859
O12   O     O_R   0.499990 0.579480 0.314790 -0.625073
O13   O     O_R   0.499990 0.420520 0.314790 -0.622970
O14   O     O_R   0.630940 0.579480 0.499990 -0.622720
O15   O     O_R   0.630940 0.420520 0.499990 -0.623581
O16   O     O_R   0.500020 0.579480 0.685200 -0.565569
O17   O     O_R   0.500020 0.420520 0.685200 -0.599964
O18   O     O_3   0.607839 0.062477 0.676281 -0.612213
Zn1   Zn    Zn3+2 0.500010 0.606140 0.500000 0.938375
Zn2   Zn    Zn3+2 0.500010 0.393860 0.500000 0.933735

loop_
_geom_bond_atom_site_label_1
_geom_bond_atom_site_label_2
_ccdc_geom_bond_type
C7    C10   A    
C20   O16   A    
C34   C56   A    
C23   C45   A    
C4    H34   S    
C42   O5    S    
C22   H12   S    
C43   C44   S    
C1    C62   S    
C39   H36   S    
C31   H16   S    
C3    C64   A    
C25   C28   S    
C9    C27   S    
C26   C27   S    
C29   C30   S    
C31   H18   S    
C41   H41   S    
C46   H51   S    
C12   C28   S    
C53   H69   S    
C52   H65   S    
C9    O12   A    
C64   O9    S    
C30   C31   S    
C59   H81   S    
C49   H58   S    
C54   H70   S    
C45   C62   A    
C57   H75   S    
C45   H9    S    
C6    C64   A    
C1    O1    A    
C33   H21   S    
C10   H67   S    
C34   C63   A    
C59   O10   S    
C22   H4    S    
C11   N2    A    
C40   H37   S    
C32   O2    S    
C58   H79   S    
C7    C17   A    
C22   C25   S    
C38   H31   S    
C16   O2    S    
O15   Zn2   S    
C26   O6    S    
C43   H46   S    
C42   H43   S    
C49   O7    S    
O1    Zn1   S    
C23   C63   A    
C12   H8    S    
C46   O6    S    
C59   C60   S    
C61   H87   S    
C21   H3    S    
C2    C6    A    
C38   H33   S    
C10   N1    A    
C24   H5    S    
C50   C51   S    
C48   H55   S    
O14   Zn1   S    
C32   H20   S    
O17   Zn2   S    
C56   H10   S    
C46   H50   S    
C3    H23   S    
C19   O15   A    
C59   H82   S    
C9    O13   A    
C50   H60   S    
C2    O10   S    
C48   H57   S    
C50   H61   S    
C24   O3    S    
C48   H54   S    
C20   C28   S    
C3    C5    A    
O11   Zn2   S    
C53   C54   S    
N1    Zn2   S    
C8    C18   A    
C41   H39   S    
C57   H76   S    
C12   C26   S    
C60   C61   S    
C6    C63   S    
C2    C4    A    
C33   H22   S    
C35   H26   S    
C37   C38   S    
C42   H42   S    
C35   H24   S    
C39   H35   S    
C47   C48   S    
C1    O11   A    
C54   H72   S    
C17   C18   S    
C14   H2    S    
C37   H29   S    
C26   O5    S    
C53   H68   S    
C55   H74   S    
C13   N1    A    
C36   O3    S    
O13   Zn2   S    
C5    C19   S    
C30   H15   S    
C35   H25   S    
C36   H27   S    
C40   C41   S    
C60   H83   S    
C12   H7    S    
C44   H49   S    
C22   C27   S    
C55   C57   S    
C39   O4    S    
C56   C62   A    
C42   C43   S    
C51   H64   S    
C44   H48   S    
C39   C40   S    
C52   C53   S    
C8    H56   S    
C61   H86   S    
C15   C17   A    
C32   H19   S    
C46   C47   S    
C36   C37   S    
O12   Zn1   S    
N2    Zn1   S    
C21   H1    S    
C51   H62   S    
C24   C28   S    
C13   H88   S    
C4    C5    A    
C34   O8    S    
C55   H73   S    
C29   H11   S    
C31   H17   S    
C41   H40   S    
C51   H63   S    
C32   C33   S    
C13   C15   A    
C55   O9    S    
C52   H66   S    
C58   H77   S    
C36   H28   S    
C57   C58   S    
C8    C11   A    
C54   H71   S    
C47   H52   S    
C33   C35   S    
C37   H30   S    
C14   C16   A    
C43   H44   S    
C29   O18   S    
C21   C27   S    
C11   H78   S    
C40   H38   S    
C15   O18   S    
C30   H14   S    
C44   H47   S    
C58   H80   S    
C47   H53   S    
C20   O17   A    
C29   H13   S    
C16   C18   A    
C49   C50   S    
C19   O14   A    
C21   C24   S    
C38   H32   S    
C25   O4    S    
C7    H45   S    
C25   H6    S    
C60   H84   S    
C61   H85   S    
C14   N2    A    
C52   O8    S    
C23   O7    S    
O16   Zn1   S    
C49   H59   S    
