data_mof_unit_65198.cif
_audit_creation_date              2012-12-10T18:04:02-0500
_audit_creation_method            fapswitch 2.2
_symmetry_space_group_name_H-M    P1
_symmetry_Int_Tables_number       1
_space_group_crystal_system       monoclinic
_cell_length_a                    18.372913
_cell_length_b                    30.692335
_cell_length_c                    30.7909
_cell_angle_alpha                 90.0
_cell_angle_beta                  90.617594
_cell_angle_gamma                 90.0
_cell_volume                      17362.2138547

loop_
_atom_site_label
_atom_site_type_symbol
_atom_type_description
_atom_site_fract_x
_atom_site_fract_y
_atom_site_fract_z
_atom_type_partial_charge
C1    C     C_R   0.500502 0.690523 0.309300 0.798474
C2    C     C_R   0.555543 0.623387 0.595441 -0.046907
C3    C     C_R   0.139742 0.749841 0.250041 0.828923
C4    C     C_R   0.360258 0.249840 0.749959 0.828923
C5    C     C_R   0.360258 0.250159 0.249988 0.839773
C6    C     C_R   0.639742 0.250159 0.750012 0.839778
C7    C     C_R   0.639742 0.249840 0.250041 0.828923
C8    C     C_3   0.394287 0.897698 0.182564 -0.433781
C9    C     C_3   0.605714 0.897698 0.817436 -0.433783
C10   C     C_3   0.894275 0.397693 0.182559 -0.433789
C11   C     C_3   0.105696 0.397706 0.817428 -0.433768
C12   C     C_3   0.894295 0.897702 0.682568 -0.433775
C13   C     C_R   0.944451 0.123383 0.404554 -0.046902
C14   C     C_3   0.105707 0.897701 0.317433 -0.433776
C15   C     C_3   0.394281 0.397695 0.682561 -0.433788
C16   C     C_3   0.605708 0.397701 0.317433 -0.433777
C17   C     C_R   0.499701 0.940579 0.940606 0.833809
C18   C     C_R   0.500299 0.940579 0.059394 0.833809
C19   C     C_R   0.999701 0.440579 0.940606 0.833809
C20   C     C_R   0.000299 0.440579 0.059394 0.833808
C21   C     C_R   0.999701 0.940579 0.440606 0.833809
C22   C     C_R   0.000299 0.940579 0.559393 0.833808
C23   C     C_R   0.499701 0.440579 0.440606 0.833810
C24   C     C_R   0.055542 0.123388 0.595441 -0.046907
C25   C     C_R   0.500299 0.440579 0.559393 0.833808
C26   C     C_R   0.499675 0.559381 0.440431 0.799042
C27   C     C_R   0.500325 0.559381 0.559569 0.799043
C28   C     C_R   0.999675 0.059381 0.440431 0.799042
C29   C     C_R   0.000325 0.059381 0.559569 0.799042
C30   C     C_R   0.999675 0.559381 0.940431 0.799042
C31   C     C_R   0.000325 0.559381 0.059569 0.799043
C32   C     C_R   0.499675 0.059381 0.940431 0.799043
C33   C     C_R   0.500325 0.059381 0.059569 0.799043
C34   C     C_R   0.500435 0.809307 0.190726 0.848514
C35   C     C_R   0.944455 0.623386 0.904557 -0.046903
C36   C     C_R   0.499565 0.809307 0.809274 0.848514
C37   C     C_R   0.000435 0.309307 0.190726 0.848518
C38   C     C_R   0.999565 0.309307 0.809274 0.848507
C39   C     C_R   0.000435 0.809307 0.690726 0.848510
C40   C     C_R   0.999565 0.809307 0.309274 0.848511
C41   C     C_R   0.500435 0.309307 0.690726 0.848516
C42   C     C_R   0.499565 0.309307 0.309274 0.848512
C43   C     C_1   0.282663 0.749548 0.249948 -0.129931
C44   C     C_1   0.282663 0.750449 0.749961 -0.130616
C45   C     C_1   0.717336 0.750449 0.250039 -0.130618
C46   C     C_R   0.055545 0.623386 0.095442 -0.046903
C47   C     C_1   0.717337 0.749548 0.750052 -0.129939
C48   C     C_1   0.782663 0.249548 0.249948 -0.129933
C49   C     C_1   0.782663 0.250449 0.749961 -0.130618
C50   C     C_1   0.217336 0.250449 0.250039 -0.130614
C51   C     C_1   0.217337 0.249548 0.750052 -0.129938
C52   C     C_1   0.782663 0.749548 0.749948 -0.129938
C53   C     C_1   0.782663 0.750449 0.249961 -0.130617
C54   C     C_1   0.217336 0.750449 0.750039 -0.130617
C55   C     C_1   0.217337 0.749548 0.250052 -0.129933
C56   C     C_1   0.282663 0.249548 0.749948 -0.129937
C57   C     C_R   0.444454 0.123386 0.904557 -0.046905
C58   C     C_1   0.282663 0.250449 0.249961 -0.130616
C59   C     C_1   0.717337 0.250449 0.750039 -0.130616
C60   C     C_1   0.717337 0.249548 0.250052 -0.129934
C61   C     C_R   0.445792 0.655895 0.373495 -0.025066
C62   C     C_R   0.554200 0.655900 0.626500 -0.025061
C63   C     C_R   0.945793 0.155896 0.373496 -0.025065
C64   C     C_R   0.054200 0.155900 0.626499 -0.025061
C65   C     C_R   0.945798 0.655899 0.873499 -0.025065
C66   C     C_R   0.054202 0.655899 0.126501 -0.025065
C67   C     C_R   0.445797 0.155898 0.873498 -0.025063
C68   C     C_R   0.555546 0.123386 0.095443 -0.046904
C69   C     C_R   0.554203 0.155898 0.126502 -0.025062
C70   C     C_R   0.499617 0.656559 0.341911 -0.068135
C71   C     C_R   0.500384 0.656559 0.658088 -0.068144
C72   C     C_R   0.999617 0.156559 0.341911 -0.068137
C73   C     C_R   0.000383 0.156559 0.658088 -0.068145
C74   C     C_R   0.999616 0.656559 0.841912 -0.068141
C75   C     C_R   0.000383 0.656559 0.158088 -0.068141
C76   C     C_R   0.499617 0.156559 0.841912 -0.068141
C77   C     C_R   0.500383 0.156559 0.158088 -0.068141
C78   C     C_R   0.547766 0.621084 0.339153 -0.175449
C79   C     C_3   0.421015 0.653870 0.439542 -0.511130
C80   C     C_R   0.452244 0.621080 0.660851 -0.175445
C81   C     C_R   0.047763 0.121083 0.339152 -0.175449
C82   C     C_R   0.952245 0.121079 0.660851 -0.175444
C83   C     C_R   0.047758 0.621080 0.839149 -0.175444
C84   C     C_R   0.952242 0.621081 0.160850 -0.175445
C85   C     C_R   0.547759 0.121081 0.839150 -0.175447
C86   C     C_R   0.452241 0.121081 0.160850 -0.175446
C87   C     C_R   0.547922 0.588870 0.371396 -0.188010
C88   C     C_R   0.452088 0.588865 0.628608 -0.188010
C89   C     C_R   0.047919 0.088868 0.371395 -0.188010
C90   C     C_3   0.578958 0.653877 0.560450 -0.511145
C91   C     C_R   0.952089 0.088865 0.628608 -0.188013
C92   C     C_R   0.047913 0.588866 0.871393 -0.188013
C93   C     C_R   0.952086 0.588866 0.128607 -0.188009
C94   C     C_R   0.547915 0.088867 0.871394 -0.188010
C95   C     C_R   0.452085 0.088867 0.128606 -0.188011
C96   C     C_R   0.498145 0.591211 0.405658 -0.033008
C97   C     C_R   0.501856 0.591211 0.594342 -0.032998
C98   C     C_R   0.998144 0.091211 0.405658 -0.033005
C99   C     C_R   0.001856 0.091211 0.594342 -0.032996
C100  C     C_R   0.998144 0.591211 0.905658 -0.032999
C101  C     C_3   0.921022 0.153872 0.439544 -0.511133
C102  C     C_R   0.001856 0.591211 0.094342 -0.033000
C103  C     C_R   0.498144 0.091211 0.905658 -0.033001
C104  C     C_R   0.501856 0.091211 0.094342 -0.033001
C105  C     C_R   0.499498 0.690523 0.690700 0.798473
C106  C     C_3   0.078957 0.153878 0.560449 -0.511146
C107  C     C_3   0.921035 0.653876 0.939548 -0.511140
C108  C     C_3   0.078964 0.653876 0.060451 -0.511139
C109  C     C_3   0.421033 0.153875 0.939547 -0.511140
C110  C     C_3   0.578967 0.153875 0.060453 -0.511139
C111  C     C_3   0.423202 0.689677 0.405530 1.140866
C112  C     C_3   0.576771 0.689685 0.594462 1.140880
C113  C     C_3   0.923209 0.189679 0.405532 1.140870
C114  C     C_3   0.076769 0.189685 0.594461 1.140882
C115  C     C_3   0.923223 0.689683 0.905536 1.140875
C116  C     C_R   0.000502 0.190523 0.309300 0.798473
C117  C     C_3   0.076776 0.689683 0.094464 1.140877
C118  C     C_3   0.423220 0.189682 0.905535 1.140877
C119  C     C_3   0.576780 0.189682 0.094465 1.140877
C120  C     C_R   0.455232 0.877469 0.158284 0.039704
C121  C     C_R   0.544768 0.877469 0.841716 0.039704
C122  C     C_R   0.955227 0.377467 0.158282 0.039700
C123  C     C_R   0.044760 0.377472 0.841712 0.039711
C124  C     C_R   0.955236 0.877471 0.658286 0.039707
C125  C     C_R   0.044765 0.877470 0.341715 0.039707
C126  C     C_R   0.455230 0.377468 0.658283 0.039702
C127  C     C_R   0.999498 0.190523 0.690700 0.798474
C128  C     C_R   0.544765 0.377470 0.341715 0.039707
C129  C     C_R   0.502489 0.842316 0.157531 -0.207781
C130  C     C_R   0.497511 0.842316 0.842469 -0.207781
C131  C     C_R   0.002489 0.342316 0.157531 -0.207777
C132  C     C_R   0.997511 0.342316 0.842469 -0.207788
C133  C     C_R   0.002489 0.842316 0.657531 -0.207785
C134  C     C_R   0.997511 0.842316 0.342469 -0.207783
C135  C     C_R   0.502489 0.342316 0.657531 -0.207778
C136  C     C_R   0.497511 0.342316 0.342469 -0.207783
C137  C     C_R   0.551734 0.839745 0.122670 0.611130
C138  C     C_R   0.000502 0.690523 0.809300 0.798473
C139  C     C_R   0.448266 0.839745 0.877330 0.611128
C140  C     C_R   0.051739 0.339747 0.122672 0.611126
C141  C     C_R   0.948274 0.339742 0.877334 0.611135
C142  C     C_R   0.051730 0.839743 0.622668 0.611133
C143  C     C_R   0.948269 0.839744 0.377331 0.611132
C144  C     C_R   0.551736 0.339746 0.622671 0.611127
C145  C     C_R   0.448269 0.339744 0.377331 0.611132
C146  C     C_R   0.551909 0.872431 0.090469 -0.269226
C147  C     C_R   0.448091 0.872431 0.909530 -0.269225
C148  C     C_R   0.051914 0.372433 0.090472 -0.269224
C149  C     C_R   0.999498 0.690523 0.190700 0.798473
C150  C     C_R   0.948099 0.372428 0.909534 -0.269229
C151  C     C_R   0.051905 0.872429 0.590468 -0.269228
C152  C     C_R   0.948094 0.872430 0.409532 -0.269227
C153  C     C_R   0.551911 0.372432 0.590471 -0.269225
C154  C     C_R   0.448094 0.372430 0.409532 -0.269227
C155  C     C_R   0.501422 0.907038 0.092119 -0.174729
C156  C     C_R   0.498577 0.907038 0.907881 -0.174729
C157  C     C_R   0.001423 0.407038 0.092119 -0.174733
C158  C     C_R   0.998578 0.407038 0.907881 -0.174721
C159  C     C_R   0.001422 0.907038 0.592119 -0.174725
C160  C     C_R   0.500502 0.190523 0.809300 0.798474
C161  C     C_R   0.998577 0.907038 0.407881 -0.174726
C162  C     C_R   0.501422 0.407038 0.592119 -0.174731
C163  C     C_R   0.498578 0.407038 0.407881 -0.174726
C164  C     C_R   0.453676 0.907812 0.126623 0.123524
C165  C     C_R   0.546325 0.907812 0.873377 0.123525
C166  C     C_R   0.953671 0.407809 0.126621 0.123526
C167  C     C_R   0.046317 0.407815 0.873374 0.123521
C168  C     C_R   0.953679 0.907814 0.626624 0.123523
C169  C     C_R   0.046322 0.907813 0.373376 0.123523
C170  C     C_R   0.453673 0.407811 0.626622 0.123526
C171  C     C_R   0.499498 0.190523 0.190700 0.798473
C172  C     C_R   0.546322 0.407813 0.373376 0.123524
C173  C     C_3   0.393040 0.932662 0.146604 -0.436173
C174  C     C_3   0.606961 0.932661 0.853396 -0.436174
C175  C     C_3   0.893028 0.432656 0.146599 -0.436160
C176  C     C_3   0.106943 0.432670 0.853388 -0.436193
C177  C     C_3   0.893048 0.932666 0.646608 -0.436183
C178  C     C_3   0.106954 0.932664 0.353393 -0.436181
C179  C     C_3   0.393034 0.432659 0.646601 -0.436167
C180  C     C_3   0.606955 0.432664 0.353394 -0.436180
C181  C     C_R   0.360258 0.749841 0.249959 0.828927
C182  C     C_R   0.444449 0.623382 0.404553 -0.046900
C183  C     C_R   0.360258 0.750159 0.749988 0.839776
C184  C     C_R   0.639742 0.750159 0.250012 0.839774
C185  C     C_R   0.639742 0.749841 0.750041 0.828922
C186  C     C_R   0.860258 0.249840 0.249959 0.828925
C187  C     C_R   0.860258 0.250159 0.749988 0.839770
C188  C     C_R   0.139742 0.250159 0.250012 0.839778
C189  C     C_R   0.139742 0.249840 0.750041 0.828922
C190  C     C_R   0.860258 0.749841 0.749959 0.828923
C191  C     C_R   0.860258 0.750159 0.249988 0.839773
C192  C     C_R   0.139742 0.750159 0.750012 0.839772
Cu1   Cu    Cu3+1 0.500000 0.780890 0.280900 1.056543
Cu2   Cu    Cu3+1 0.500000 0.719080 0.780910 1.034774
Cu3   Cu    Cu3+1 1.000000 0.219080 0.219090 1.034773
Cu4   Cu    Cu3+1 1.000000 0.219080 0.780910 1.034779
Cu5   Cu    Cu3+1 0.000000 0.719080 0.719090 1.034776
Cu6   Cu    Cu3+1 1.000000 0.719080 0.280910 1.034780
Cu7   Cu    Cu3+1 0.500000 0.219080 0.719090 1.034772
Cu8   Cu    Cu3+1 0.500000 0.219080 0.280910 1.034778
Cu9   Cu    Cu3+1 0.427490 0.999980 0.000000 0.985011
Cu10  Cu    Cu3+1 0.572510 0.999980 0.000000 0.985011
Cu11  Cu    Cu3+1 0.927490 0.499980 0.000000 0.985010
Cu12  Cu    Cu3+1 0.500000 0.780890 0.719100 1.056548
Cu13  Cu    Cu3+1 0.072510 0.499980 0.000000 0.985013
Cu14  Cu    Cu3+1 0.927490 0.999980 0.500000 0.985011
Cu15  Cu    Cu3+1 0.072510 0.999980 0.500000 0.985011
Cu16  Cu    Cu3+1 0.427490 0.499980 0.500000 0.985010
Cu17  Cu    Cu3+1 0.572510 0.499980 0.500000 0.985010
Cu18  Cu    Cu3+1 1.000000 0.280890 0.280900 1.056546
Cu19  Cu    Cu3+1 1.000000 0.280890 0.719100 1.056546
Cu20  Cu    Cu3+1 1.000000 0.780890 0.780900 1.056546
Cu21  Cu    Cu3+1 0.000000 0.780890 0.219100 1.056547
Cu22  Cu    Cu3+1 0.500000 0.280890 0.780900 1.056546
Cu23  Cu    Cu3+1 0.500000 0.280890 0.219100 1.056547
Cu24  Cu    Cu3+1 0.500000 0.719080 0.219090 1.034776
F1    F     F_    0.355569 0.707263 0.395929 -0.649193
F2    F     F_    0.023709 0.720739 0.086258 -0.627911
F3    F     F_    0.976290 0.720739 0.913742 -0.627911
F4    F     F_    0.144407 0.707275 0.104059 -0.649188
F5    F     F_    0.355589 0.207272 0.895939 -0.649189
F6    F     F_    0.523714 0.220738 0.086258 -0.627913
F7    F     F_    0.476286 0.220738 0.913741 -0.627913
F8    F     F_    0.644411 0.207273 0.104061 -0.649191
F9    F     F_    0.600130 0.806443 0.120194 -0.637143
F10   F     F_    0.399869 0.806443 0.879806 -0.637143
F11   F     F_    0.100140 0.306447 0.120198 -0.637145
F12   F     F_    0.523701 0.720739 0.586257 -0.627913
F13   F     F_    0.899884 0.306436 0.879814 -0.637139
F14   F     F_    0.100123 0.806439 0.620190 -0.637140
F15   F     F_    0.899875 0.806441 0.379809 -0.637143
F16   F     F_    0.600135 0.306445 0.620196 -0.637144
F17   F     F_    0.399874 0.306441 0.379808 -0.637143
F18   F     F_    0.476261 0.720737 0.413740 -0.627912
F19   F     F_    0.644401 0.707278 0.604056 -0.649188
F20   F     F_    0.855577 0.207267 0.395933 -0.649192
F21   F     F_    0.023699 0.220739 0.586257 -0.627913
F22   F     F_    0.976270 0.220738 0.413740 -0.627912
F23   F     F_    0.144399 0.207278 0.604055 -0.649188
F24   F     F_    0.855592 0.707275 0.895941 -0.649188
H1    H     H_    0.587355 0.619447 0.313383 0.149579
H2    H     H_    0.412446 0.562783 0.629940 0.147352
H3    H     H_    0.087567 0.062789 0.370066 0.147359
H4    H     H_    0.912447 0.062783 0.629940 0.147351
H5    H     H_    0.087558 0.562784 0.870061 0.147353
H6    H     H_    0.912442 0.562785 0.129938 0.147353
H7    H     H_    0.587560 0.062786 0.870063 0.147355
H8    H     H_    0.412440 0.062786 0.129937 0.147355
H9    H     H_    0.365218 0.646416 0.450999 0.209187
H10   H     H_    0.537221 0.657569 0.534305 0.185456
H11   H     H_    0.462744 0.657566 0.465690 0.185454
H12   H     H_    0.412662 0.619438 0.686625 0.149585
H13   H     H_    0.634754 0.646429 0.548987 0.209187
H14   H     H_    0.865225 0.146419 0.451002 0.209187
H15   H     H_    0.037219 0.157569 0.534305 0.185454
H16   H     H_    0.962753 0.157567 0.465691 0.185453
H17   H     H_    0.134752 0.146430 0.548987 0.209187
H18   H     H_    0.865239 0.646427 0.951010 0.209188
H19   H     H_    0.037228 0.657569 0.034306 0.185452
H20   H     H_    0.962771 0.657569 0.965694 0.185453
H21   H     H_    0.134760 0.646427 0.048990 0.209187
H22   H     H_    0.365237 0.146425 0.951008 0.209187
H23   H     H_    0.087351 0.119445 0.313381 0.149580
H24   H     H_    0.537233 0.157568 0.034307 0.185453
H25   H     H_    0.462767 0.157568 0.965693 0.185454
H26   H     H_    0.634763 0.146425 0.048992 0.209187
H27   H     H_    0.590370 0.870319 0.064133 0.192466
H28   H     H_    0.409630 0.870319 0.935867 0.192466
H29   H     H_    0.090379 0.370323 0.064137 0.192469
H30   H     H_    0.909644 0.370313 0.935874 0.192462
H31   H     H_    0.090363 0.870316 0.564130 0.192464
H32   H     H_    0.909635 0.870317 0.435869 0.192465
H33   H     H_    0.590374 0.370321 0.564135 0.192468
H34   H     H_    0.912663 0.119438 0.686625 0.149585
H35   H     H_    0.409634 0.370317 0.435869 0.192464
H36   H     H_    0.410598 0.965423 0.158005 0.188072
H37   H     H_    0.657221 0.932051 0.873803 0.211666
H38   H     H_    0.342780 0.932052 0.126197 0.211665
H39   H     H_    0.589403 0.965423 0.841995 0.188072
H40   H     H_    0.910579 0.465419 0.158001 0.188070
H41   H     H_    0.157208 0.432064 0.873791 0.211664
H42   H     H_    0.842771 0.432044 0.126190 0.211665
H43   H     H_    0.089376 0.465430 0.841988 0.188073
H44   H     H_    0.910611 0.965427 0.658008 0.188072
H45   H     H_    0.087341 0.619440 0.813376 0.149583
H46   H     H_    0.157216 0.932056 0.373799 0.211664
H47   H     H_    0.842786 0.932058 0.626203 0.211664
H48   H     H_    0.089393 0.965426 0.341993 0.188074
H49   H     H_    0.410588 0.465421 0.658003 0.188070
H50   H     H_    0.657216 0.432055 0.373799 0.211665
H51   H     H_    0.342775 0.432047 0.626193 0.211665
H52   H     H_    0.589394 0.465425 0.341993 0.188074
H53   H     H_    0.412064 0.910330 0.214803 0.208893
H54   H     H_    0.655044 0.876729 0.817301 0.200806
H55   H     H_    0.344956 0.876730 0.182699 0.200805
H56   H     H_    0.912659 0.619440 0.186623 0.149583
H57   H     H_    0.587937 0.910330 0.785198 0.208894
H58   H     H_    0.912045 0.410326 0.214798 0.208892
H59   H     H_    0.155031 0.376742 0.817289 0.200803
H60   H     H_    0.844947 0.376721 0.182692 0.200807
H61   H     H_    0.087909 0.410337 0.785191 0.208895
H62   H     H_    0.912077 0.910334 0.714806 0.208894
H63   H     H_    0.155040 0.876734 0.317297 0.200805
H64   H     H_    0.844962 0.876736 0.682705 0.200804
H65   H     H_    0.087927 0.910332 0.285195 0.208894
H66   H     H_    0.412054 0.410328 0.714800 0.208893
H67   H     H_    0.587344 0.119441 0.813378 0.149583
H68   H     H_    0.655040 0.376733 0.317297 0.200805
H69   H     H_    0.344952 0.376725 0.682695 0.200807
H70   H     H_    0.587928 0.410332 0.285195 0.208894
H71   H     H_    0.412656 0.119441 0.186622 0.149582
H72   H     H_    0.587571 0.562791 0.370068 0.147361
O1    O     O_R   0.500000 0.731000 0.321180 -0.523683
O2    O     O_R   0.500000 0.678810 0.731020 -0.600095
O3    O     O_R   1.000000 0.178810 0.268980 -0.600093
O4    O     O_R   1.000000 0.178810 0.731020 -0.600095
O5    O     O_R   1.000000 0.678810 0.768980 -0.600095
O6    O     O_R   0.000000 0.678810 0.231020 -0.600094
O7    O     O_R   0.500000 0.178810 0.768980 -0.600094
O8    O     O_R   0.500000 0.178810 0.231020 -0.600094
O9    O     O_R   0.394200 0.776090 0.276090 -0.572301
O10   O     O_R   0.394200 0.776090 0.723910 -0.574360
O11   O     O_R   0.605800 0.776090 0.276090 -0.574362
O12   O     O_R   0.500000 0.731000 0.678820 -0.523682
O13   O     O_R   0.605800 0.776090 0.723910 -0.572302
O14   O     O_R   0.894200 0.276090 0.276090 -0.572301
O15   O     O_R   0.894200 0.276090 0.723910 -0.574358
O16   O     O_R   0.105800 0.276090 0.276090 -0.574362
O17   O     O_R   0.105800 0.276090 0.723910 -0.572303
O18   O     O_R   0.894200 0.776090 0.776090 -0.572302
O19   O     O_R   0.894200 0.776090 0.223910 -0.574359
O20   O     O_R   0.105800 0.776090 0.776090 -0.574359
O21   O     O_R   0.105800 0.776090 0.223910 -0.572303
O22   O     O_R   0.394200 0.276090 0.776090 -0.572301
O23   O     O_R   0.000000 0.231000 0.321180 -0.523683
O24   O     O_R   0.394200 0.276090 0.223910 -0.574358
O25   O     O_R   0.605800 0.276090 0.776090 -0.574362
O26   O     O_R   0.605800 0.276090 0.223910 -0.572303
O27   O     O_R   0.394210 0.723900 0.223890 -0.578560
O28   O     O_R   0.394210 0.723900 0.776110 -0.572814
O29   O     O_R   0.605790 0.723900 0.223890 -0.572814
O30   O     O_R   0.605790 0.723900 0.776110 -0.578559
O31   O     O_R   0.894210 0.223900 0.223890 -0.578560
O32   O     O_R   0.894210 0.223900 0.776110 -0.572815
O33   O     O_R   0.105790 0.223900 0.223890 -0.572814
O34   O     O_R   1.000000 0.231000 0.678820 -0.523681
O35   O     O_R   0.105790 0.223900 0.776110 -0.578558
O36   O     O_R   0.894210 0.723900 0.723890 -0.578560
O37   O     O_R   0.894210 0.723900 0.276110 -0.572816
O38   O     O_R   0.105790 0.723900 0.723890 -0.572814
O39   O     O_R   0.105790 0.723900 0.276110 -0.578556
O40   O     O_R   0.394210 0.223900 0.723890 -0.578561
O41   O     O_R   0.394210 0.223900 0.276110 -0.572816
O42   O     O_R   0.605790 0.223900 0.723890 -0.572813
O43   O     O_R   0.605790 0.223900 0.276110 -0.578557
O44   O     O_R   0.500000 0.821170 0.231010 -0.599360
O45   O     O_R   1.000000 0.731000 0.821180 -0.523682
O46   O     O_R   0.500000 0.821170 0.768990 -0.599360
O47   O     O_R   1.000000 0.321170 0.231010 -0.599359
O48   O     O_R   1.000000 0.321170 0.768990 -0.599362
O49   O     O_R   0.000000 0.821170 0.731010 -0.599361
O50   O     O_R   1.000000 0.821170 0.268990 -0.599361
O51   O     O_R   0.500000 0.321170 0.731010 -0.599359
O52   O     O_R   0.500000 0.321170 0.268990 -0.599360
O53   O     O_R   0.500000 0.768980 0.178810 -0.538595
O54   O     O_R   0.500000 0.768980 0.821190 -0.538595
O55   O     O_R   0.000000 0.268980 0.178810 -0.538601
O56   O     O_R   1.000000 0.731000 0.178820 -0.523682
O57   O     O_R   1.000000 0.268980 0.821190 -0.538586
O58   O     O_R   1.000000 0.768980 0.678810 -0.538590
O59   O     O_R   1.000000 0.768980 0.321190 -0.538591
O60   O     O_R   0.500000 0.268980 0.678810 -0.538598
O61   O     O_R   0.500000 0.268980 0.321190 -0.538592
O62   O     O_R   0.438730 0.954890 0.954890 -0.582177
O63   O     O_R   0.438730 0.954890 0.045110 -0.584890
O64   O     O_R   0.561270 0.954890 0.954890 -0.584890
O65   O     O_R   0.561270 0.954890 0.045110 -0.582177
O66   O     O_R   0.938730 0.454890 0.954890 -0.582176
O67   O     O_R   0.500000 0.231000 0.821180 -0.523682
O68   O     O_R   0.938730 0.454890 0.045110 -0.584891
O69   O     O_R   0.061270 0.454890 0.954890 -0.584888
O70   O     O_R   0.061270 0.454890 0.045110 -0.582178
O71   O     O_R   0.938730 0.954890 0.454890 -0.582177
O72   O     O_R   0.938730 0.954890 0.545110 -0.584889
O73   O     O_R   0.061270 0.954890 0.454890 -0.584889
O74   O     O_R   0.061270 0.954890 0.545110 -0.582176
O75   O     O_R   0.438730 0.454890 0.454890 -0.582177
O76   O     O_R   0.438730 0.454890 0.545110 -0.584890
O77   O     O_R   0.561270 0.454890 0.454890 -0.584889
O78   O     O_R   0.500000 0.231000 0.178820 -0.523682
O79   O     O_R   0.561270 0.454890 0.545110 -0.582177
O80   O     O_R   0.438760 0.545060 0.454900 -0.572782
O81   O     O_R   0.438760 0.545060 0.545100 -0.589775
O82   O     O_R   0.561240 0.545060 0.454900 -0.589777
O83   O     O_R   0.561240 0.545060 0.545100 -0.572782
O84   O     O_R   0.938760 0.045060 0.454900 -0.572783
O85   O     O_R   0.938760 0.045060 0.545100 -0.589774
O86   O     O_R   0.061240 0.045060 0.454900 -0.589776
O87   O     O_R   0.061240 0.045060 0.545100 -0.572782
O88   O     O_R   0.938760 0.545060 0.954900 -0.572783
O89   O     O_R   0.500000 0.678810 0.268980 -0.600092
O90   O     O_R   0.938760 0.545060 0.045100 -0.589775
O91   O     O_R   0.061240 0.545060 0.954900 -0.589774
O92   O     O_R   0.061240 0.545060 0.045100 -0.572782
O93   O     O_R   0.438760 0.045060 0.954900 -0.572782
O94   O     O_R   0.438760 0.045060 0.045100 -0.589775
O95   O     O_R   0.561240 0.045060 0.954900 -0.589775
O96   O     O_R   0.561240 0.045060 0.045100 -0.572782

loop_
_geom_bond_atom_site_label_1
_geom_bond_atom_site_label_2
_ccdc_geom_bond_type
C61   C70   A    
C112  F12   S    
Cu6   O59   S    
Cu7   Cu22  S    
C101  C113  S    
C7    C60   S    
Cu3   O31   S    
C74   C83   A    
C29   O85   A    
C23   O75   A    
C90   H10   S    
C21   O73   A    
C124  C133  A    
C107  H18   S    
C82   H34   S    
C176  H43   S    
C5    O41   A    
Cu2   O2    S    
C11   H61   S    
C8    H53   S    
Cu2   O28   S    
C184  O11   A    
Cu8   Cu23  S    
C42   C136  S    
C2    C90   S    
C191  O37   A    
C9    H54   S    
C131  C140  A    
C185  O13   A    
C134  C143  A    
C124  C168  A    
C57   C109  S    
C16   H68   S    
C187  O15   A    
C26   O82   A    
C171  O78   A    
C9    C121  S    
C89   H3    S    
Cu9   O63   S    
C125  C169  A    
C94   H7    S    
C88   C97   A    
C85   H67   S    
Cu21  O56   S    
C4    C56   S    
Cu13  O92   S    
C109  C118  S    
Cu10  O95   S    
C20   O68   A    
C29   C99   S    
C18   O65   A    
C137  C146  A    
C175  H40   S    
Cu14  Cu15  S    
C69   C119  S    
C82   C91   A    
C180  H50   S    
Cu14  O84   S    
C142  C151  A    
C36   C130  S    
C181  O9    A    
C28   O84   A    
Cu3   O33   S    
C12   H64   S    
Cu4   O35   S    
C164  C173  S    
C68   C110  S    
C163  C172  A    
C15   H69   S    
Cu8   O41   S    
Cu23  O26   S    
C40   O59   A    
Cu11  O88   S    
C29   O87   A    
C30   O88   A    
C36   O46   A    
C173  H38   S    
Cu20  O18   S    
C27   C97   S    
C187  O32   A    
C10   C122  S    
C105  O2    A    
C11   H59   S    
C47   C52   T    
Cu16  O76   S    
C8    H55   S    
C112  F19   S    
C1    C70   S    
C79   C182  S    
C178  H48   S    
Cu20  O49   S    
C80   C88   A    
Cu2   O54   S    
C40   C134  S    
Cu13  O70   S    
C84   C93   A    
C146  H27   S    
C67   C118  S    
Cu15  O86   S    
C35   C107  S    
C86   C95   A    
Cu16  O81   S    
C63   C113  S    
C129  C137  A    
C22   C159  S    
C37   O47   A    
C38   O57   A    
C153  H33   S    
C109  H22   S    
C76   C85   A    
C45   C184  S    
C38   C132  S    
C78   C87   A    
C113  F20   S    
C20   O70   A    
C15   C179  S    
C123  C132  A    
C33   C104  S    
Cu10  O64   S    
C69   C77   A    
C121  C130  A    
Cu18  O47   S    
C50   C188  S    
C150  H30   S    
C192  O38   A    
C11   C176  S    
C54   C192  S    
C5    C58   S    
C180  H52   S    
C139  F10   S    
C31   O92   A    
C40   O50   A    
Cu7   O60   S    
Cu17  O82   S    
C75   C84   A    
C142  F14   S    
C28   O86   A    
C30   C100  S    
C111  F18   S    
Cu18  O23   S    
C137  F9    S    
Cu15  O74   S    
C3    C55   S    
Cu8   O43   S    
C46   C108  S    
C105  O12   A    
C64   C73   A    
C152  C161  A    
Cu14  O72   S    
Cu20  O20   S    
C186  O14   A    
C174  H39   S    
C45   C53   T    
Cu7   O7    S    
C65   C115  S    
Cu3   O3    S    
C141  C150  A    
C26   C96   S    
C86   H71   S    
C78   H1    S    
C64   C114  S    
Cu24  O29   S    
Cu21  O19   S    
C120  C129  A    
C30   O91   A    
C34   C129  S    
C109  H25   S    
C34   O53   A    
C177  H47   S    
Cu9   O93   S    
C165  C174  S    
C42   O52   A    
C43   C181  S    
C65   C74   A    
C37   C131  S    
C151  C159  A    
C19   O66   A    
C126  C170  A    
C160  O67   A    
Cu2   Cu12  S    
Cu22  O22   S    
C49   C187  S    
C44   C183  S    
C14   C178  S    
C145  C154  A    
C43   C55   T    
C113  F22   S    
C81   H23   S    
Cu12  O46   S    
C14   H65   S    
C24   C106  S    
Cu11  O68   S    
C122  C131  A    
C41   C135  S    
Cu5   O38   S    
C15   H66   S    
C132  C141  A    
C38   O48   A    
Cu7   O40   S    
C189  O17   A    
C19   C158  S    
C6    C59   S    
C32   O93   A    
Cu22  O51   S    
C127  O34   A    
C147  H28   S    
C83   H45   S    
C110  C119  S    
C128  C172  A    
C21   O71   A    
C121  C165  A    
C49   C59   T    
C89   C98   A    
C17   C156  S    
C13   C98   A    
C75   C149  S    
C35   C100  A    
C62   C71   A    
Cu1   O9    S    
C148  C157  A    
Cu23  O24   S    
C120  C164  A    
C116  O23   A    
C44   C54   T    
C183  O10   A    
C91   H4    S    
C80   H12   S    
Cu5   O5    S    
C108  H19   S    
Cu9   O62   S    
C111  F1    S    
C91   C99   A    
C19   O69   A    
C138  O45   A    
Cu15  O87   S    
C16   C180  S    
C125  C134  A    
Cu2   O30   S    
C145  F17   S    
Cu13  O91   S    
C181  O27   A    
C39   O58   A    
C178  H46   S    
C5    O24   A    
Cu18  O16   S    
C74   C138  S    
Cu23  O78   S    
Cu10  O96   S    
C166  C175  S    
C17   O62   A    
C46   C66   A    
Cu12  O13   S    
C128  C136  A    
C88   H2    S    
Cu11  Cu13  S    
C35   C65   A    
C41   O60   A    
C141  F13   S    
C168  C177  S    
C3    O21   A    
C10   C175  S    
Cu14  O85   S    
C39   O49   A    
C190  O18   A    
C183  O28   A    
C22   O72   A    
C146  C155  A    
C2    C97   A    
Cu16  Cu17  S    
C66   C117  S    
C158  C167  A    
C106  H17   S    
C42   O61   A    
C14   H63   S    
C175  H42   S    
C47   C185  S    
Cu11  O66   S    
C33   O96   A    
C9    H57   S    
C72   C81   A    
C51   C189  S    
C81   C89   A    
C172  C180  S    
C24   C64   A    
C188  O33   A    
C31   O90   A    
C140  C148  A    
C32   O95   A    
C57   C103  A    
C130  C139  A    
C148  H29   S    
C25   O79   A    
C16   H70   S    
C26   O80   A    
C50   C58   T    
C31   C102  S    
C7    O26   A    
Cu3   Cu18  S    
C3    O39   A    
C73   C127  S    
Cu23  O52   S    
Cu1   O11   S    
C190  O36   A    
Cu8   O61   S    
Cu17  O77   S    
C173  H36   S    
C177  H44   S    
C1    O89   A    
C162  C170  A    
Cu4   O57   S    
Cu19  O17   S    
C133  C142  A    
C32   C103  S    
C117  F2    S    
C52   C190  S    
C147  C156  A    
C53   C191  S    
C191  O19   A    
C143  C152  A    
C126  C135  A    
C20   C157  S    
C71   C105  S    
C155  C164  A    
Cu7   O42   S    
Cu5   O58   S    
C73   C82   A    
C110  H26   S    
C39   C133  S    
C28   C98   S    
C87   H72   S    
C150  C158  A    
C17   O64   A    
C118  F7    S    
C4    O40   A    
C79   H11   S    
C144  F16   S    
C11   C123  S    
C68   C104  A    
C96   C182  A    
C93   C102  A    
C92   H5    S    
C84   H56   S    
C72   C116  S    
C153  C162  A    
C101  H14   S    
Cu5   Cu20  S    
C22   O74   A    
C156  C165  A    
C66   C75   A    
C108  C117  S    
Cu3   O55   S    
C119  F8    S    
Cu21  O50   S    
Cu1   O1    S    
C93   H6    S    
C10   H60   S    
Cu15  O73   S    
C62   C112  S    
C63   C72   A    
Cu4   O4    S    
C7    O43   A    
Cu6   Cu21  S    
C27   O83   A    
C18   C155  S    
Cu1   O44   S    
C114  F23   S    
Cu24  O89   S    
C4    O22   A    
C122  C166  A    
C1    O1    A    
C70   C78   A    
C24   C99   A    
Cu9   Cu10  S    
C90   C112  S    
Cu10  O65   S    
Cu6   O39   S    
Cu16  O75   S    
C83   C92   A    
C46   C102  A    
C139  C147  A    
C184  O29   A    
C14   C125  S    
C106  C114  S    
Cu17  O79   S    
Cu11  O90   S    
C36   O54   A    
C115  F24   S    
C116  O3    A    
Cu19  O15   S    
Cu22  O67   S    
C159  C168  A    
Cu6   O6    S    
C117  F4    S    
C51   C56   T    
C144  C153  A    
C41   O51   A    
C68   C69   A    
Cu4   Cu19  S    
C189  O35   A    
C12   C177  S    
Cu24  O27   S    
C13   C63   A    
C179  H51   S    
Cu12  O12   S    
C110  H24   S    
C136  C145  A    
C77   C171  S    
C123  C167  A    
C186  O31   A    
C127  O4    A    
C118  F5    S    
C79   H9    S    
C115  F3    S    
C171  O8    A    
C57   C67   A    
C71   C80   A    
C48   C60   T    
C23   C163  S    
C37   O55   A    
C21   C161  S    
C188  O16   A    
C154  C163  A    
C108  H21   S    
C101  H16   S    
C185  O30   A    
Cu17  O83   S    
C23   O77   A    
C8    C173  S    
C25   O76   A    
C18   O63   A    
C15   C126  S    
C119  F6    S    
C107  H20   S    
C176  H41   S    
C48   C186  S    
C95   H8    S    
C10   H58   S    
Cu5   O36   S    
C85   C94   A    
C12   C124  S    
Cu22  O25   S    
C25   C162  S    
C87   C96   A    
C174  H37   S    
Cu21  O21   S    
C9    C174  S    
Cu20  O45   S    
C16   C128  S    
C107  C115  S    
C27   O81   A    
Cu12  O10   S    
C114  F21   S    
Cu14  O71   S    
C135  C144  A    
C90   H13   S    
C77   C86   A    
Cu18  O14   S    
Cu19  O48   S    
C13   C101  S    
C61   C111  S    
C6    O42   A    
C169  C178  S    
Cu6   O37   S    
C95   C104  A    
C92   C100  A    
Cu1   Cu24  S    
C8    C120  S    
C76   C160  S    
C140  F11   S    
C170  C179  S    
C106  H15   S    
C61   C182  A    
C157  C166  A    
C94   C103  A    
C34   O44   A    
Cu9   O94   S    
C79   C111  S    
C33   O94   A    
C143  F15   S    
C192  O20   A    
C161  C169  A    
C6    O25   A    
C151  H31   S    
C149  O6    A    
Cu16  O80   S    
C152  H32   S    
Cu24  O53   S    
Cu8   O8    S    
C179  H49   S    
C154  H35   S    
Cu4   O32   S    
C138  O5    A    
C149  O56   A    
Cu13  O69   S    
C12   H62   S    
Cu19  O34   S    
C67   C76   A    
C2    C62   A    
C160  O7    A    
C167  C176  S    
