data_mof_unit_42025.cif
_audit_creation_date              2012-12-10T17:50:50-0500
_audit_creation_method            fapswitch 2.2
_symmetry_space_group_name_H-M    P1
_symmetry_Int_Tables_number       1
_space_group_crystal_system       triclinic
_cell_length_a                    14.726227
_cell_length_b                    14.782061
_cell_length_c                    15.839305
_cell_angle_alpha                 76.053252
_cell_angle_beta                  102.344718
_cell_angle_gamma                 115.502892
_cell_volume                      2996.34673105

loop_
_atom_site_label
_atom_site_type_symbol
_atom_type_description
_atom_site_fract_x
_atom_site_fract_y
_atom_site_fract_z
_atom_type_partial_charge
C1    C     C_R   0.879891 0.311956 0.516904 0.814431
C2    C     C_R   0.119457 0.688036 0.488609 0.816170
C3    C     C_R   0.776031 0.028975 0.606807 -0.297322
C4    C     C_R   0.216214 0.976254 0.449990 -0.295267
C5    C     C_R   0.845986 0.127170 0.579162 0.503954
C6    C     C_R   0.148803 0.874290 0.452746 0.503768
C7    C     C_R   0.706225 0.179073 0.519891 -0.321461
C8    C     C_R   0.284506 0.823574 0.530633 -0.358484
C9    C     C_R   0.635084 0.081416 0.548650 0.087750
C10   C     C_R   0.354554 0.925507 0.525066 0.093382
C11   C     C_R   0.671675 0.005656 0.591603 0.096403
C12   C     C_R   0.318527 0.002141 0.483642 0.093112
C13   C     C_R   0.528671 0.056390 0.533664 0.082061
C14   C     C_R   0.460180 0.953091 0.554053 0.086528
C15   C     C_R   0.500105 0.880839 0.600274 -0.236684
C16   C     C_R   0.488382 0.130994 0.498809 -0.225875
C17   C     C_R   0.603854 0.907070 0.618960 -0.208585
C18   C     C_R   0.385116 0.104050 0.474787 -0.201793
C19   C     C_R   0.696584 0.631115 0.330069 -0.444490
C20   C     C_R   0.277701 0.324962 0.644096 -0.425590
C21   C     C_R   0.790016 0.623613 0.365422 0.631987
C22   C     C_R   0.201360 0.362180 0.625282 0.628282
C23   C     C_R   0.999474 0.499853 0.659936 0.817036
C24   C     C_R   0.000516 0.500133 0.340047 0.823620
C25   C     C_R   0.716066 0.513245 0.492583 0.527871
C26   C     C_R   0.284054 0.484895 0.507447 0.532238
C27   C     C_R   0.618487 0.514227 0.457037 -0.125789
C28   C     C_R   0.360578 0.445378 0.521119 -0.125873
C29   C     C_R   0.611755 0.576576 0.374901 0.053221
C30   C     C_R   0.357789 0.367270 0.593592 0.037803
C31   C     C_R   0.528489 0.458940 0.500068 0.090288
C32   C     C_R   0.441403 0.482497 0.468184 0.091964
C33   C     C_R   0.436096 0.537754 0.382769 -0.206433
C34   C     C_R   0.519628 0.377497 0.570417 -0.205530
C35   C     C_R   0.519819 0.584014 0.337184 -0.175847
C36   C     C_R   0.434951 0.331462 0.615144 -0.172005
C37   C     C_3   0.948866 0.404559 0.039359 -0.157151
C38   C     C_3   0.050816 0.595213 0.960482 -0.162505
C39   C     C_3   0.903527 0.464758 0.961163 -0.159193
C40   C     C_3   0.096157 0.535018 0.038670 -0.155350
C41   C     C_1   0.998702 0.499963 0.749563 -0.183384
C42   C     C_1   0.001202 0.499939 0.250371 -0.158050
C43   C     C_3   0.044456 0.439748 0.993715 -0.158806
C44   C     C_3   0.955228 0.560028 0.006123 -0.157294
C45   C     C_3   0.999119 0.499945 0.917080 0.194407
C46   C     C_3   0.000568 0.499832 0.082775 0.192205
C47   C     C_1   0.998616 0.499973 0.825200 -0.094342
C48   C     C_1   0.001166 0.499855 0.174700 -0.076848
C49   C     C_R   0.810804 0.203877 0.537346 -0.161515
C50   C     C_R   0.184848 0.796992 0.489433 -0.154065
Cu1   Cu    Cu3+1 0.081740 0.475690 0.522610 1.020263
Cu2   Cu    Cu3+1 0.918260 0.524310 0.477390 1.022480
H1    H     H_    0.366843 0.544621 0.349211 0.196008
H2    H     H_    0.574946 0.344434 0.589655 0.198558
H3    H     H_    0.513083 0.628056 0.272449 0.139890
H4    H     H_    0.431265 0.269018 0.668782 0.145102
N1    N     N_R   0.795440 0.560790 0.443380 -0.253944
N2    N     N_R   0.204560 0.439210 0.556620 -0.258311
O1    O     O_R   0.977900 0.338120 0.529810 -0.508272
O2    O     O_R   0.022100 0.661880 0.470190 -0.511985
O3    O     O_R   0.839850 0.379180 0.491620 -0.579845
O4    O     O_R   0.160150 0.620820 0.508380 -0.559109
O5    O     O_R   0.069010 0.479460 0.640020 -0.558870
O6    O     O_R   0.930990 0.520540 0.359980 -0.537417
O7    O     O_R   0.930960 0.520530 0.601820 -0.546139
O8    O     O_R   0.069040 0.479470 0.398180 -0.557550
H5    H     H_    0.824491 0.435981 0.927908 0.126609
H6    H     H_    0.175219 0.563828 0.071860 0.129424
O9    O     O_3   0.291022 0.572828 0.448842 -0.561237
C51   C     C_3   0.368860 0.656697 0.484200 -0.302767
H7    H     H_    0.445227 0.664989 0.476541 0.159626
H8    H     H_    0.365751 0.651293 0.554926 0.134222
H9    H     H_    0.360299 0.727084 0.447313 0.200173
O10   O     O_3   0.734210 0.468219 0.577705 -0.564495
C52   C     C_3   0.750646 0.536462 0.633874 -0.314773
H10   H     H_    0.681034 0.548664 0.633078 0.146120
H11   H     H_    0.814401 0.610947 0.616848 0.157392
H12   H     H_    0.771327 0.503153 0.701958 0.188569
O11   O     O_3   0.118219 0.316478 0.671160 -0.497630
C53   C     C_3   0.149512 0.323177 0.760963 -0.278675
H13   H     H_    0.082341 0.307688 0.791989 0.187013
H14   H     H_    0.206292 0.400547 0.771370 0.133089
H15   H     H_    0.179448 0.264664 0.794714 0.141672
O12   O     O_3   0.876763 0.672628 0.322828 -0.515408
C54   C     C_3   0.877088 0.757218 0.258250 -0.276662
H16   H     H_    0.955165 0.801160 0.240466 0.207591
H17   H     H_    0.856241 0.809281 0.282900 0.150381
H18   H     H_    0.827108 0.731977 0.197719 0.134281
H19   H     H_    0.687973 0.677068 0.266922 0.154416
H20   H     H_    0.273655 0.261989 0.697175 0.165021
H21   H     H_    0.907071 0.326299 0.073120 0.127135
H22   H     H_    0.092604 0.673464 0.926702 0.127753
H23   H     H_    0.918629 0.609409 0.012610 0.129252
H24   H     H_    0.081046 0.390384 0.987163 0.123695
H25   H     H_    0.631159 0.848997 0.653630 0.136159
H26   H     H_    0.357640 0.163485 0.446289 0.150575
H27   H     H_    0.305794 0.762617 0.565227 0.163297
H28   H     H_    0.681933 0.237655 0.482678 0.178774
O13   O     O_3   0.049755 0.851003 0.413903 -0.553056
C55   C     C_3   0.995557 0.864327 0.470076 -0.306738
H29   H     H_    0.022824 0.945851 0.475182 0.135691
H30   H     H_    0.999831 0.817804 0.536403 0.149883
H31   H     H_    0.914468 0.838211 0.442163 0.176842
O14   O     O_3   0.948526 0.149322 0.599767 -0.524672
C56   C     C_3   0.978744 0.115227 0.539027 -0.291796
H32   H     H_    0.962529 0.151606 0.470573 0.143140
H33   H     H_    0.941995 0.030951 0.545215 0.129410
H34   H     H_    0.061922 0.137225 0.553178 0.190386
H35   H     H_    0.803736 0.971034 0.640929 0.145298
H36   H     H_    0.188972 0.035241 0.418543 0.145097
H37   H     H_    0.453315 0.803193 0.624189 0.130547
H38   H     H_    0.534545 0.211412 0.489625 0.145570

loop_
_geom_bond_atom_site_label_1
_geom_bond_atom_site_label_2
_ccdc_geom_bond_type
C7    H28   S    
C27   C29   A    
C24   C42   S    
C52   H10   S    
C20   C30   A    
C54   H16   S    
C40   C46   S    
C56   H33   S    
C36   H4    S    
C19   C21   A    
C22   O11   S    
Cu2   O3    S    
C1    O1    A    
C2    O2    A    
C38   H22   S    
C43   H24   S    
C18   H26   S    
C15   C17   A    
C25   O10   S    
C45   C47   S    
C52   H11   S    
C9    C13   A    
C38   C45   S    
C44   H23   S    
C2    C50   S    
C26   N2    A    
C40   C43   S    
C31   C32   A    
C51   H7    S    
C17   H25   S    
C4    C12   A    
Cu2   O2    S    
C24   O8    A    
C39   C45   S    
C23   O5    A    
C5    O14   S    
C24   O6    A    
C13   C14   A    
C5    C49   A    
Cu1   O4    S    
C25   N1    A    
C53   H15   S    
O14   C56   S    
C44   C46   S    
C54   H17   S    
C33   H1    S    
C56   H34   S    
C46   C48   S    
O10   C52   S    
C37   H21   S    
C35   H3    S    
Cu1   Cu2   S    
C15   H37   S    
C28   C32   A    
Cu1   O5    S    
O12   C54   S    
C7    C49   A    
C4    C6    A    
Cu2   O6    S    
C27   C31   A    
C55   H31   S    
Cu1   O8    S    
C37   C43   S    
C8    H27   S    
C38   C44   S    
C19   H19   S    
C43   C45   S    
O13   C55   S    
C21   O12   S    
C51   H9    S    
C55   H30   S    
C41   C47   T    
C31   C34   A    
Cu1   N2    S    
C42   C48   T    
C6    C50   A    
C9    C11   A    
C10   C12   A    
C53   H14   S    
C20   C22   A    
C34   H2    S    
C10   C14   A    
Cu1   O1    S    
C19   C29   A    
C8    C50   A    
C16   H38   S    
C54   H18   S    
C7    C9    A    
C4    H36   S    
C11   C17   A    
C39   H5    S    
C8    C10   A    
C53   H13   S    
C3    C5    A    
C1    O3    A    
C22   N2    A    
C39   C44   S    
C25   C27   A    
C56   H32   S    
C29   C35   A    
C26   C28   A    
C23   C41   S    
C30   C36   A    
C6    O13   S    
C23   O7    A    
C28   C30   A    
C37   C39   S    
C32   C33   A    
C38   C40   S    
C20   H20   S    
C3    H35   S    
C55   H29   S    
C33   C35   A    
C34   C36   A    
O9    C51   S    
C52   H12   S    
C3    C11   A    
Cu2   N1    S    
O11   C53   S    
C21   N1    A    
C16   C18   A    
C40   H6    S    
C13   C16   A    
C12   C18   A    
C26   O9    S    
C14   C15   A    
C51   H8    S    
C37   C46   S    
C1    C49   S    
Cu2   O7    S    
C2    O4    A    
