data_mof_unit_56672.cif
_audit_creation_date              2012-12-10T16:53:32-0500
_audit_creation_method            fapswitch 2.2
_symmetry_space_group_name_H-M    P1
_symmetry_Int_Tables_number       1
_space_group_crystal_system       triclinic
_cell_length_a                    7.802422
_cell_length_b                    8.578526
_cell_length_c                    13.643545
_cell_angle_alpha                 92.195148
_cell_angle_beta                  78.641194
_cell_angle_gamma                 93.88648
_cell_volume                      892.970569756

loop_
_atom_site_label
_atom_site_type_symbol
_atom_type_description
_atom_site_fract_x
_atom_site_fract_y
_atom_site_fract_z
_atom_type_partial_charge
C1    C     C_R   0.546294 0.794758 0.497487 0.960299
C2    C     C_1   0.564299 0.480492 0.120858 -0.040148
C3    C     C_2   0.570559 0.958347 0.496048 -0.380685
C4    C     C_2   0.429441 0.041653 0.503952 -0.380685
C5    C     C_3   0.266719 0.580670 0.050999 -0.414814
C6    C     C_3   0.139360 0.443128 0.088560 -0.848221
C7    C     C_3   0.733268 0.419302 0.949005 -0.414797
C8    C     C_3   0.860636 0.556847 0.911462 -0.848249
C9    C     C_R   0.453706 0.205242 0.502513 0.960300
C10   C     C_R   0.470650 0.503901 0.686965 0.904230
C11   C     C_R   0.529350 0.496099 0.313035 0.904227
C12   C     C_1   0.549644 0.487761 0.208941 -0.205926
C13   C     C_1   0.450353 0.512228 0.791059 -0.205932
C14   C     C_2   0.569114 0.475171 0.016678 0.156786
C15   C     C_2   0.430873 0.524793 0.983324 0.156800
C16   C     C_1   0.435693 0.519486 0.879143 -0.040167
H1    H     H_    0.703710 0.009683 0.488509 0.180359
H2    H     H_    0.802102 0.631871 0.863874 0.259472
H3    H     H_    0.893822 0.628078 0.975609 0.259735
H4    H     H_    0.982967 0.512684 0.866316 0.260504
H5    H     H_    0.799516 0.340993 0.990799 0.205836
H6    H     H_    0.700642 0.348813 0.884389 0.211346
H7    H     H_    0.296290 0.990317 0.511491 0.180359
H8    H     H_    0.024733 0.379139 0.425919 0.190856
H9    H     H_    0.975267 0.620861 0.574081 0.190856
H10   H     H_    0.106096 0.371932 0.024418 0.259729
H11   H     H_    0.197938 0.368061 0.136105 0.259463
H12   H     H_    0.017071 0.487300 0.133755 0.260510
H13   H     H_    0.299355 0.651178 0.115605 0.211346
H14   H     H_    0.200458 0.658962 0.009203 0.205845
N1    N     N_2   0.954190 0.457600 0.473930 -0.170928
N2    N     N_2   0.045810 0.542400 0.526070 -0.170927
O1    O     O_R   0.388300 0.738660 0.506400 -0.612049
O2    O     O_R   0.611700 0.261340 0.493600 -0.612048
O3    O     O_R   0.679920 0.711490 0.489690 -0.628901
O4    O     O_R   0.320080 0.288510 0.510310 -0.628900
O5    O     O_R   0.333200 0.515510 0.649910 -0.612039
O6    O     O_R   0.666800 0.484490 0.350090 -0.612044
O7    O     O_R   0.624820 0.488340 0.633200 -0.617405
O8    O     O_R   0.375180 0.511660 0.366800 -0.617402
Zn1   Zn    Zn3+2 0.305280 0.518140 0.511160 0.941706
Zn2   Zn    Zn3+2 0.694720 0.481860 0.488840 0.941702

loop_
_geom_bond_atom_site_label_1
_geom_bond_atom_site_label_2
_ccdc_geom_bond_type
C11   O6    A    
N2    Zn1   S    
C3    H1    S    
N1    Zn2   S    
C9    O4    A    
C7    H6    S    
N1    N2    D    
O2    Zn2   S    
C11   C12   S    
O1    Zn1   S    
H9    N2    S    
H8    N1    S    
C1    O1    A    
C7    C8    S    
C6    H10   S    
O4    Zn1   S    
C8    H4    S    
C10   O5    A    
C5    C6    S    
O8    Zn1   S    
O6    Zn2   S    
O7    Zn2   S    
C5    H13   S    
O5    Zn1   S    
C9    O2    A    
C2    C14   S    
C6    H12   S    
C5    C15   S    
C8    H3    S    
C15   C16   S    
C11   O8    A    
C1    O3    A    
C2    C12   T    
C5    H14   S    
C13   C16   T    
C4    H7    S    
O3    Zn2   S    
C14   C15   D    
C4    C9    S    
C7    H5    S    
C7    C14   S    
C8    H2    S    
C3    C4    D    
C6    H11   S    
C10   O7    A    
C1    C3    S    
C10   C13   S    
