data_mof_unit_53248.cif
_audit_creation_date              2012-12-11T17:43:40-0500
_audit_creation_method            fapswitch 2.2
_symmetry_space_group_name_H-M    P1
_symmetry_Int_Tables_number       1
_space_group_crystal_system       triclinic
_cell_length_a                    15.049275
_cell_length_b                    15.195929
_cell_length_c                    16.930594
_cell_angle_alpha                 109.00757
_cell_angle_beta                  106.067468
_cell_angle_gamma                 109.292816
_cell_volume                      3118.18792754

loop_
_atom_site_label
_atom_site_type_symbol
_atom_type_description
_atom_site_fract_x
_atom_site_fract_y
_atom_site_fract_z
_atom_type_partial_charge
C1    C     C_R   0.085030 0.290509 0.080035 -0.155056
C2    C     C_R   0.090393 0.100798 0.075899 -0.244051
C3    C     C_R   0.002983 0.923521 0.050862 0.067930
C4    C     C_R   0.998671 0.109374 0.065184 0.061305
C5    C     C_R   0.092710 0.008115 0.064536 0.032811
C6    C     C_R   0.909719 0.026678 0.054696 0.035305
C7    C     C_R   0.720492 0.950727 0.954290 -0.194670
C8    C     C_R   0.281658 0.058636 0.141124 -0.192078
C9    C     C_R   0.618661 0.039132 0.991953 0.303557
C10   C     C_R   0.360668 0.967549 0.061138 0.281572
C11   C     C_R   0.462891 0.564633 0.267605 -0.209900
C12   C     C_R   0.909736 0.723210 0.968271 -0.133256
C13   C     C_R   0.514960 0.313814 0.648814 -0.206627
C14   C     C_R   0.463469 0.550829 0.181648 0.223592
C15   C     C_R   0.496936 0.318876 0.726931 0.212122
C16   C     C_R   0.935463 0.519216 0.746824 -0.139222
C17   C     C_R   0.064329 0.548230 0.265541 -0.125492
C18   C     C_R   0.439951 0.450654 0.116241 0.054716
C19   C     C_R   0.475370 0.399716 0.773863 0.069499
C20   C     C_R   0.419833 0.367509 0.139455 -0.224605
C21   C     C_R   0.468431 0.470628 0.738895 -0.212300
C22   C     C_R   0.419631 0.382563 0.225239 -0.114718
C23   C     C_R   0.026512 0.579468 0.745107 0.064488
C24   C     C_R   0.484967 0.463399 0.660318 -0.106611
C25   C     C_R   0.440916 0.480949 0.289153 -0.124711
C26   C     C_R   0.508775 0.385565 0.615704 -0.118446
C27   C     C_R   0.520562 0.418413 0.012817 -0.258747
C28   C     C_R   0.378593 0.424177 0.870770 -0.267624
C29   C     C_R   0.538371 0.418165 0.936494 0.099939
C30   C     C_R   0.367574 0.436363 0.952622 0.088056
C31   C     C_R   0.464374 0.414030 0.861287 0.041975
C32   C     C_R   0.438656 0.431251 0.023918 0.051448
C33   C     C_R   0.626908 0.956663 0.931613 -0.233060
C34   C     C_R   0.971996 0.533387 0.274862 0.058392
C35   C     C_R   0.367397 0.041640 0.141375 -0.251847
C36   C     C_R   0.962827 0.577514 0.361592 0.129441
C37   C     C_R   0.034173 0.620783 0.678665 0.130243
C38   C     C_R   0.138464 0.694098 0.608250 -0.222562
C39   C     C_R   0.857755 0.559340 0.446365 -0.225568
C40   C     C_R   0.776197 0.203415 0.812009 -0.140844
C41   C     C_R   0.279664 0.784539 0.177203 -0.161224
C42   C     C_R   0.132031 0.677474 0.682922 -0.182586
C43   C     C_R   0.864636 0.544191 0.363210 -0.170192
C44   C     C_R   0.943059 0.593664 0.604324 -0.283793
C45   C     C_R   0.760374 0.197824 0.725445 0.054259
C46   C     C_R   0.053336 0.641150 0.445265 -0.278339
C47   C     C_R   0.948847 0.605023 0.527469 0.188548
C48   C     C_R   0.047333 0.651079 0.527912 0.190224
C49   C     C_R   0.720210 0.102493 0.639426 0.133941
C50   C     C_R   0.443851 0.856836 0.323194 0.124876
C51   C     C_R   0.591559 0.028770 0.392402 -0.232339
C52   C     C_R   0.615560 0.913926 0.555161 -0.232128
C53   C     C_R   0.498919 0.947853 0.317790 -0.166210
C54   C     C_R   0.684758 0.003786 0.638037 -0.171662
C55   C     C_R   0.489538 0.841921 0.398635 -0.301429
C56   C     C_R   0.335310 0.782793 0.256224 0.060120
C57   C     C_R   0.701682 0.108273 0.555870 -0.287372
C58   C     C_R   0.580283 0.923167 0.474259 0.200840
C59   C     C_R   0.628181 0.019531 0.473214 0.192482
C60   C     C_R   0.704287 0.112189 0.078352 -0.162053
C61   C     C_R   0.269795 0.918918 0.977959 -0.140881
C62   C     C_R   0.798276 0.106163 0.101255 -0.202781
C63   C     C_R   0.184267 0.936793 0.977489 -0.187485
C64   C     C_R   0.260331 0.534180 0.950167 -0.124562
C65   C     C_R   0.700354 0.405829 0.997150 -0.155484
C66   C     C_R   0.807813 0.026989 0.038087 0.121358
C67   C     C_R   0.285515 0.458980 0.965422 0.057730
C68   C     C_R   0.187931 0.002404 0.060274 0.111213
C69   C     C_R   0.782571 0.298060 0.734589 -0.142828
C70   C     C_R   0.273593 0.690247 0.253615 -0.144947
C71   C     C_R   0.241482 0.431149 0.019837 -0.133280
C72   C     C_R   0.705263 0.502544 0.922451 -0.147616
C73   C     C_R   0.108264 0.602826 0.823804 -0.143146
C74   C     C_R   0.890224 0.462941 0.187772 -0.133319
C75   C     C_R   0.913206 0.203125 0.997224 -0.136791
C76   C     C_R   0.082307 0.803719 0.054910 -0.112575
C77   C     C_R   0.997413 0.197718 0.049588 0.066759
C78   C     C_R   0.642563 0.439178 0.947966 0.073373
C79   C     C_R   0.996884 0.820587 0.030318 0.048045
C80   C     C_3   0.590989 0.691889 0.175780 -0.907983
C81   C     C_3   0.402322 0.162473 0.736224 -0.923899
C82   C     C_3   0.529340 0.144033 0.972231 -0.971047
C83   C     C_3   0.421960 0.835967 0.013947 -0.982052
C84   C     C_R   0.914521 0.935286 0.049904 -0.246439
H1    H     H_    0.162189 0.319254 0.132613 0.104633
H2    H     H_    0.452620 0.533273 0.773826 0.124221
H3    H     H_    0.402936 0.317861 0.242144 0.115669
H4    H     H_    0.480324 0.518966 0.634496 0.107983
H5    H     H_    0.577829 0.421741 0.070732 0.133290
H6    H     H_    0.321297 0.424120 0.815322 0.136874
H7    H     H_    0.129511 0.672594 0.445996 0.118323
H8    H     H_    0.866909 0.553590 0.600991 0.115253
H9    H     H_    0.793002 0.499511 0.300273 0.117894
H10   H     H_    0.203973 0.702931 0.740621 0.107335
H11   H     H_    0.214606 0.731475 0.610105 0.124422
H12   H     H_    0.829976 0.707221 0.933645 0.096977
H13   H     H_    0.781535 0.526064 0.445551 0.127614
H14   H     H_    0.856763 0.499278 0.703928 0.087778
H15   H     H_    0.143200 0.597421 0.318644 0.095166
H16   H     H_    0.561415 0.898164 0.865721 0.112870
H17   H     H_    0.437872 0.083466 0.205320 0.113431
H18   H     H_    0.733513 0.183003 0.555274 0.120139
H19   H     H_    0.449674 0.772317 0.404241 0.111304
H20   H     H_    0.702509 0.995781 0.700885 0.117385
H21   H     H_    0.467669 0.960170 0.259164 0.114120
H22   H     H_    0.628841 0.101625 0.389933 0.123848
H23   H     H_    0.726073 0.888794 0.904728 0.125678
H24   H     H_    0.581680 0.839474 0.556105 0.123781
H25   H     H_    0.698932 0.174204 0.127851 0.119117
H26   H     H_    0.263567 0.865531 0.913735 0.114905
H27   H     H_    0.864466 0.165005 0.166609 0.132273
H28   H     H_    0.113284 0.895069 0.913901 0.132638
H29   H     H_    0.765066 0.140221 0.829976 0.097197
H30   H     H_    0.309451 0.836754 0.149953 0.109654
H31   H     H_    0.284029 0.574272 0.911618 0.106878
H32   H     H_    0.672855 0.346914 0.018807 0.106987
H33   H     H_    0.778107 0.323119 0.681563 0.098813
H34   H     H_    0.286609 0.111675 0.205024 0.126903
H35   H     H_    0.297204 0.654563 0.295623 0.087873
H36   H     H_    0.242402 0.372456 0.041991 0.116873
H37   H     H_    0.682502 0.534949 0.876891 0.106272
H38   H     H_    0.188749 0.660181 0.852016 0.089507
H39   H     H_    0.807805 0.433503 0.168917 0.090814
H40   H     H_    0.831804 0.149396 0.967878 0.120028
H41   H     H_    0.160699 0.859403 0.105745 0.125491
H42   H     H_    0.846689 0.870828 0.040631 0.133027
H43   H     H_    0.158415 0.162319 0.082273 0.131614
H44   H     H_    0.457422 0.686944 0.189325 0.177442
H45   H     H_    0.440886 0.492563 0.355703 0.109614
H46   H     H_    0.598753 0.753838 0.153166 0.251379
H47   H     H_    0.614435 0.637593 0.135359 0.259334
H48   H     H_    0.643966 0.729507 0.250616 0.251544
H49   H     H_    0.550821 0.213708 0.742287 0.173883
H50   H     H_    0.414287 0.110074 0.766252 0.251691
H51   H     H_    0.356897 0.114916 0.659910 0.252114
H52   H     H_    0.357266 0.196939 0.765553 0.264288
H53   H     H_    0.462092 0.981385 0.906464 0.167334
H54   H     H_    0.449865 0.137767 0.949300 0.262939
H55   H     H_    0.563511 0.164065 0.926287 0.255837
H56   H     H_    0.522286 0.380681 0.555208 0.108672
H57   H     H_    0.576338 0.207245 0.044633 0.245684
H58   H     H_    0.507898 0.983284 0.130086 0.163771
H59   H     H_    0.495201 0.828770 0.030277 0.264052
H60   H     H_    0.385452 0.809594 0.938410 0.240485
H61   H     H_    0.369594 0.784342 0.032808 0.252806
H62   H     H_    0.480726 0.640648 0.318245 0.118284
H63   H     H_    0.532924 0.253446 0.613095 0.120200
H64   H     H_    0.402807 0.290580 0.090367 0.141960
N1    N     N_R   0.055660 0.348550 0.045620 -0.037917
N2    N     N_R   0.185200 0.638170 0.176300 -0.036189
N3    N     N_R   0.201680 0.494570 0.045620 -0.043244
N4    N     N_R   0.798320 0.505430 0.954380 -0.037454
N5    N     N_R   0.068420 0.560530 0.871650 -0.036351
N6    N     N_R   0.931580 0.439470 0.128350 -0.038725
N7    N     N_R   0.948070 0.295860 0.997670 -0.039216
N8    N     N_R   0.051930 0.704140 0.002330 -0.042682
N9    N     N_2   0.484149 0.636408 0.160140 -0.114439
N10   N     N_2   0.502462 0.243864 0.758585 -0.117425
N11   N     N_2   0.522889 0.044957 0.966501 -0.103845
N12   N     N_R   0.944340 0.651450 0.954380 -0.040104
N13   N     N_2   0.445964 0.944325 0.065506 -0.107553
N14   N     N_R   0.960830 0.507850 0.823700 -0.037586
N15   N     N_R   0.039170 0.492150 0.176300 -0.040642
N16   N     N_R   0.811290 0.303410 0.871650 -0.039745
N17   N     N_R   0.188710 0.696590 0.128350 -0.039073
N18   N     N_R   0.205200 0.552990 0.997670 -0.043722
N19   N     N_R   0.794800 0.447010 0.002330 -0.037776
N20   N     N_R   0.814800 0.361830 0.823700 -0.039643
Ni1   Ni    Ni4+2 0.119340 0.493420 0.109960 0.213513
Ni2   Ni    Ni4+2 0.880660 0.506580 0.890040 0.214284
Ni3   Ni    Ni4+2 0.872590 0.372590 0.000000 0.216280
Ni4   Ni    Ni4+2 0.127410 0.627410 0.000000 0.211365

loop_
_geom_bond_atom_site_label_1
_geom_bond_atom_site_label_2
_ccdc_geom_bond_type
C75   N7    A    
C30   C32   A    
N18   Ni4   S    
C80   H48   S    
C72   H37   S    
C27   C29   A    
C1    C77   A    
N4    Ni2   S    
C14   C18   A    
C70   N2    A    
C76   C79   A    
C41   H30   S    
C19   C31   S    
H58   N13   S    
C8    H34   S    
C81   H50   S    
C15   C19   A    
C57   H18   S    
C71   H36   S    
N1    Ni1   S    
C54   H20   S    
C19   C21   A    
C24   C26   A    
C38   C42   A    
C26   H56   S    
C82   H57   S    
C83   H60   S    
C11   C14   A    
C57   C59   A    
N2    Ni1   S    
C9    N11   S    
C49   C54   A    
C12   C79   A    
C55   H19   S    
C63   H28   S    
C49   C57   A    
C74   N6    A    
C60   C62   A    
H49   N10   S    
C37   C42   A    
C61   C63   A    
C72   C78   A    
C60   H25   S    
C17   N15   A    
C83   H61   S    
C71   N3    A    
C29   C78   S    
C40   H29   S    
C72   N4    A    
C22   C25   A    
C41   N17   A    
C38   H11   S    
C67   C71   A    
C64   N18   A    
C20   H64   S    
C1    N1    A    
C10   C35   A    
C65   C78   A    
C38   C48   A    
C30   C67   S    
C44   H8    S    
C44   C47   A    
C2    H43   S    
N17   Ni4   S    
N20   Ni2   S    
C74   H39   S    
C83   N13   S    
C25   H45   S    
C80   H47   S    
C9    C33   A    
C76   H41   S    
C7    C33   A    
C23   C73   A    
C5    C68   S    
C61   H26   S    
C52   C54   A    
H44   N9    S    
C81   H51   S    
C84   H42   S    
C40   C45   A    
C46   C48   A    
C50   C53   A    
C6    C84   A    
C62   C66   A    
C14   N9    S    
C45   C69   A    
C75   H40   S    
C64   C67   A    
N6    N15   A    
N8    N12   A    
C80   H46   S    
C15   N10   S    
C4    C6    A    
H53   N11   S    
C39   C43   A    
C46   H7    S    
C3    C5    A    
C58   C59   A    
C23   C37   S    
N2    N17   A    
N8    Ni4   S    
C50   C56   S    
C51   C53   A    
C8    C35   A    
C2    C4    A    
C41   C56   A    
C82   H55   S    
N7    Ni3   S    
C17   H15   S    
C47   C48   A    
N14   Ni2   S    
C45   C49   S    
C70   H35   S    
C12   N12   A    
C22   H3    S    
C62   H27   S    
C36   C46   A    
C75   C77   A    
C3    C79   S    
C52   C58   A    
C34   C74   A    
N16   N20   A    
C20   C22   A    
C8    C68   A    
C10   N13   S    
C56   C70   A    
C13   C15   A    
C65   H32   S    
C7    H23   S    
C13   C26   A    
C21   C24   A    
C1    H1    S    
C51   C59   A    
C17   C34   A    
C13   H63   S    
N4    N19   A    
C81   H52   S    
C39   C47   A    
C65   N19   A    
C21   H2    S    
N12   Ni2   S    
C81   N10   S    
C27   C32   A    
C42   H10   S    
C24   H4    S    
C28   C31   A    
C35   H17   S    
N19   Ni3   S    
C2    C5    A    
C11   H62   S    
C40   N16   A    
C16   C23   A    
N3    N18   A    
C63   C68   A    
C50   C55   A    
N3    Ni1   S    
N5    N14   A    
C33   H16   S    
C16   N14   A    
C9    C60   A    
C37   C44   A    
C28   C30   A    
N1    N7    A    
C69   N20   A    
C4    C77   S    
C82   H54   S    
C7    C66   A    
C83   H59   S    
C82   N11   S    
C16   H14   S    
C80   N9    S    
C51   H22   S    
N5    Ni4   S    
C69   H33   S    
C43   H9    S    
C34   C36   S    
C76   N8    A    
N6    Ni3   S    
C27   H5    S    
C18   C20   A    
N15   Ni1   S    
C39   H13   S    
C10   C61   A    
C53   H21   S    
C6    C66   S    
C18   C32   S    
C52   H24   S    
C29   C31   A    
C73   H38   S    
C55   C58   A    
C73   N5    A    
C3    C84   A    
C64   H31   S    
C11   C25   A    
C12   H12   S    
C36   C43   A    
C28   H6    S    
N16   Ni3   S    
