data_mof_unit_57828.cif
_audit_creation_date              2013-03-05T15:56:47-0500
_audit_creation_method            fapswitch 2.2
_symmetry_space_group_name_H-M    P1
_symmetry_Int_Tables_number       1
_space_group_crystal_system       triclinic
_cell_length_a                    6.930654
_cell_length_b                    14.535469
_cell_length_c                    16.082212
_cell_angle_alpha                 89.971094
_cell_angle_beta                  90.117031
_cell_angle_gamma                 90.137388
_cell_volume                      1620.11872437

loop_
_atom_site_label
_atom_site_type_symbol
_atom_site_description
_atom_site_fract_x
_atom_site_fract_y
_atom_site_fract_z
_atom_type_partial_charge
O1    O     O_R   0.638180 0.333920 0.163320 -0.599941
O2    O     O_R   0.361820 0.666080 0.836680 -0.599940
O3    O     O_R   0.308470 0.344960 0.336080 -0.603174
O4    O     O_R   0.691530 0.655040 0.663920 -0.603174
O5    O     O_R   0.138140 0.166110 0.336680 -0.593973
O6    O     O_R   0.861860 0.833890 0.663320 -0.593973
C1    C     C_R   0.477685 0.367092 0.365113 0.910617
C2    C     C_R   0.522315 0.632908 0.634887 0.910617
O7    O     O_R   0.308460 0.344950 0.163930 -0.604368
O8    O     O_R   0.691540 0.655050 0.836070 -0.604368
O9    O     O_R   0.138140 0.166100 0.163310 -0.580703
O10   O     O_R   0.861860 0.833900 0.836690 -0.580704
C3    C     C_R   0.477517 0.367187 0.134983 0.926026
C4    C     C_R   0.522483 0.632813 0.865017 0.926025
O11   O     O_R   0.638180 0.333930 0.336700 -0.607693
O12   O     O_R   0.361820 0.666070 0.663300 -0.607693
O13   O     O_3   0.471670 0.191340 0.250000 -0.232516
O14   O     O_3   0.528330 0.808660 0.750000 -0.232516
V1    V     V_3+5 0.196830 0.260900 0.250000 1.174454
V2    V     V_3+5 0.803170 0.739100 0.750000 1.174454
O15   O     O_R   0.808420 0.155070 0.163920 -0.557420
O16   O     O_R   0.191580 0.844930 0.836080 -0.557420
C5    C     C_R   0.976763 0.132121 0.135600 0.984053
C6    C     C_R   0.023237 0.867879 0.864400 0.984055
O17   O     O_R   0.808420 0.155080 0.336070 -0.586508
O18   O     O_R   0.191580 0.844920 0.663930 -0.586508
C7    C     C_R   0.977261 0.133122 0.364687 0.936454
C8    C     C_R   0.022739 0.866878 0.635313 0.936455
V3    V     V_3+5 0.696830 0.239130 0.250000 1.211406
V4    V     V_3+5 0.303170 0.760870 0.750000 1.211406
O19   O     O_3   0.971850 0.308690 0.250010 -0.294760
O20   O     O_3   0.028150 0.691310 0.749990 -0.294761
H1    H     H_    0.285412 0.849267 0.267230 0.155349
H2    H     H_    0.714588 0.150733 0.732770 0.155349
C9    C     C_R   0.828075 0.173846 0.528774 -0.171828
C10   C     C_R   0.171924 0.826154 0.471226 -0.171828
C11   C     C_R   0.756424 0.195971 0.607101 -0.132776
C12   C     C_R   0.243576 0.804029 0.392899 -0.132776
C13   C     C_R   0.769097 0.132936 0.671835 -0.052001
C14   C     C_R   0.230903 0.867063 0.328165 -0.052002
C15   C     C_R   0.853449 0.047273 0.658737 -0.115737
C16   C     C_R   0.146551 0.952727 0.341263 -0.115737
C17   C     C_R   0.925327 0.022224 0.579563 0.099931
C18   C     C_R   0.074672 0.977776 0.420436 0.099931
C19   C     C_R   0.912515 0.086919 0.513155 0.121794
C20   C     C_R   0.087485 0.913081 0.486845 0.121794
C21   C     C_R   0.012664 0.935225 0.566453 -0.301011
C22   C     C_R   0.987336 0.064775 0.433547 -0.301011
H3    H     H_    0.817600 0.226073 0.481084 0.116502
H4    H     H_    0.182400 0.773926 0.518916 0.116502
H5    H     H_    0.692054 0.262730 0.617738 0.129444
H6    H     H_    0.307946 0.737270 0.382262 0.129444
H7    H     H_    0.863016 0.001552 0.711652 0.123290
H8    H     H_    0.136984 0.998448 0.288348 0.123290
C23   C     C_R   0.152150 0.007338 0.942578 0.401801
C24   C     C_R   0.847850 0.992662 0.057422 0.401801
C25   C     C_R   0.136214 0.070171 0.008423 -0.178823
C26   C     C_R   0.863786 0.929829 0.991577 -0.178823
H9    H     H_    0.242120 0.124869 0.013603 0.176439
H10   H     H_    0.757880 0.875130 0.986397 0.176439
C27   C     C_R   0.985631 0.063978 0.066566 -0.362697
C28   C     C_R   0.014369 0.936022 0.933434 -0.362697
C29   C     C_R   0.321461 0.478114 0.464432 -0.139881
C30   C     C_R   0.678539 0.521886 0.535568 -0.139880
H11   H     H_    0.181410 0.462464 0.437955 0.121810
H12   H     H_    0.818590 0.537536 0.562044 0.121810
C31   C     C_R   0.332401 0.541915 0.529487 -0.147281
C32   C     C_R   0.667599 0.458085 0.470513 -0.147281
H13   H     H_    0.200361 0.573643 0.550945 0.121291
H14   H     H_    0.799639 0.426357 0.449055 0.121291
C33   C     C_R   0.511072 0.564622 0.566029 -0.118078
C34   C     C_R   0.488928 0.435378 0.433971 -0.118078
C35   C     C_R   0.320482 0.474633 0.032412 -0.134154
C36   C     C_R   0.679518 0.525367 0.967588 -0.134154
H15   H     H_    0.179692 0.456114 0.056298 0.119938
H16   H     H_    0.820308 0.543886 0.943702 0.119938
C37   C     C_R   0.331617 0.538240 0.967189 -0.123973
C38   C     C_R   0.668383 0.461760 0.032811 -0.123973
H17   H     H_    0.198847 0.566939 0.942996 0.122134
H18   H     H_    0.801153 0.433061 0.057004 0.122134
C39   C     C_R   0.511289 0.564471 0.933842 -0.125872
C40   C     C_R   0.488711 0.435529 0.066158 -0.125871
N1    N     N_R   0.305201 0.019367 0.884006 0.229953
O21   O     O_R   0.306141 0.091416 0.836019 -0.432346
O22   O     O_R   0.461565 0.970742 0.891409 -0.385173
N2    N     N_R   0.694799 0.980632 0.115994 0.229953
O23   O     O_R   0.693858 0.908584 0.163980 -0.432346
O24   O     O_R   0.538435 0.029259 0.108591 -0.385174

loop_
_geom_bond_atom_site_label_1
_geom_bond_atom_site_label_2
_geom_bond_distance
_ccdc_geom_bond_type
C7    C22   1.488998 S    
C26   C28   1.405377 A    
V4    O20   2.155493 S    
C29   H11   1.082847 S    
C8    C21   1.488998 S    
O13   V3    1.706611 S    
O4    C2    1.301150 A    
V1    O19   1.708514 S    
C13   C15   1.393132 A    
O9    V1    2.001216 S    
C36   H16   1.082734 S    
C30   C32   1.400245 A    
C9    C11   1.393029 A    
O3    C1    1.301150 A    
C11   H5    1.082805 S    
C38   H18   1.082754 S    
C25   H9    1.083905 S    
C12   H6    1.082805 S    
O12   V4    2.003771 S    
C23   C28   1.415233 A    
C30   C33   1.406795 A    
O7    C3    1.301643 A    
O5    C7    1.294324 A    
O7    V1    2.001317 S    
O6    C8    1.294324 A    
O8    V2    2.001315 S    
C9    H3    1.081324 S    
O3    V1    2.000207 S    
O14   V4    1.706611 S    
C31   C33   1.408173 A    
C1    O11   1.297419 A    
C2    O12   1.297419 A    
V3    O19   2.155494 S    
C15   C17   1.416305 A    
C16   C18   1.416305 A    
C18   C20   1.425409 A    
O11   V3    2.003770 S    
C37   H17   1.082755 S    
O17   V3    2.001287 S    
C29   C31   1.400245 A    
H1    C14   1.082686 S    
N2    O24   1.300466 A    
H2    C13   1.082688 S    
O8    C4    1.301643 A    
C1    C34   1.489296 S    
N2    O23   1.300589 A    
O15   V3    2.004523 S    
C3    C40   1.488910 S    
C31   H13   1.082909 S    
C30   H12   1.082847 S    
C38   C40   1.408496 A    
C24   N2    1.430411 S    
N1    O21   1.300588 A    
C37   C39   1.408496 A    
C32   C34   1.408173 A    
O10   V2    2.001218 S    
O1    V3    2.001324 S    
C10   C20   1.416531 A    
C17   C19   1.425409 A    
C15   H7    1.081504 S    
N1    O22   1.300466 A    
O18   V4    2.001288 S    
C23   C25   1.403424 A    
O16   C6    1.297748 A    
O1    C3    1.296790 A    
C35   H15   1.082734 S    
C36   C39   1.406163 A    
C23   N1    1.430410 S    
C10   C12   1.393029 A    
C9    C19   1.416531 A    
C35   C40   1.406163 A    
C10   H4    1.081324 S    
V2    O20   1.708513 S    
C19   C22   1.419696 A    
C20   C21   1.419696 A    
C2    C33   1.489296 S    
C6    C28   1.489676 S    
O16   V4    2.004524 S    
C14   C16   1.393132 A    
C25   C27   1.405377 A    
O5    V1    2.001193 S    
O17   C7    1.297090 A    
O6    V2    2.001195 S    
O10   C6    1.299608 A    
O18   C8    1.297090 A    
O2    V4    2.001321 S    
O15   C5    1.297749 A    
C11   C13   1.389270 A    
C16   H8    1.081504 S    
C12   C14   1.389270 A    
C17   C21   1.419308 A    
O9    C5    1.299610 A    
O13   V1    2.158675 S    
C24   C26   1.403424 A    
O14   V2    2.158675 S    
O2    C4    1.296792 A    
O4    V2    2.000209 S    
C5    C27   1.489676 S    
C29   C34   1.406795 A    
C32   H14   1.082909 S    
C36   C38   1.400010 A    
C35   C37   1.400010 A    
C24   C27   1.415233 A    
C4    C39   1.488910 S    
C26   H10   1.083905 S    
C18   C22   1.419308 A    
