data_mof_unit_23622.cif
_audit_creation_date              2013-03-05T16:50:03-0500
_audit_creation_method            fapswitch 2.2
_symmetry_space_group_name_H-M    P1
_symmetry_Int_Tables_number       1
_space_group_crystal_system       triclinic
_cell_length_a                    27.766
_cell_length_b                    10.896974
_cell_length_c                    26.459094
_cell_angle_alpha                 91.057391
_cell_angle_beta                  90.403317
_cell_angle_gamma                 90.273365
_cell_volume                      8003.94810339

loop_
_atom_site_label
_atom_site_type_symbol
_atom_site_description
_atom_site_fract_x
_atom_site_fract_y
_atom_site_fract_z
_atom_type_partial_charge
O1    O     O_R   0.500000 0.319660 0.542350 -0.586392
O2    O     O_R   0.500000 0.680340 0.457650 -0.589986
O3    O     O_R   0.500000 0.319630 0.457650 -0.584678
O4    O     O_R   0.500000 0.680370 0.542350 -0.575159
C1    C     C_R   0.500005 0.261794 0.499411 0.776922
C2    C     C_R   0.499035 0.738029 0.500551 0.857289
O5    O     O_R   0.430260 0.500030 0.542340 -0.583331
O6    O     O_R   0.569740 0.499970 0.457660 -0.603321
O7    O     O_R   0.430270 0.500010 0.457650 -0.597093
O8    O     O_R   0.569730 0.499990 0.542350 -0.585230
C3    C     C_R   0.407324 0.500238 0.499792 0.842855
C4    C     C_R   0.592719 0.500818 0.500175 0.785988
Cu1   Cu    Cu3+1 0.500000 0.500020 0.550150 0.955376
Cu2   Cu    Cu3+1 0.500000 0.499980 0.449850 0.943467
O9    O     O_2   0.420015 0.573125 0.784678 -0.551493
O10   O     O_2   0.574280 0.402956 0.215133 -0.548589
C5    C     C_R   0.422049 0.602317 0.055670 -0.212364
C6    C     C_R   0.579608 0.413913 0.944338 -0.209757
H1    H     H_    0.442921 0.370476 0.627977 0.121484
H2    H     H_    0.564829 0.603252 0.371165 0.130137
C7    C     C_R   0.177961 0.399803 0.484288 0.534172
C8    C     C_R   0.822570 0.608851 0.508116 0.536334
O11   O     O_2   0.202749 0.294832 0.476882 -0.563057
O12   O     O_2   0.797994 0.714277 0.515269 -0.539393
N1    N     N_R   0.202059 0.506674 0.494946 -0.471294
N2    N     N_R   0.798185 0.500735 0.501487 -0.472115
C9    C     C_R   0.178355 0.615464 0.501139 0.579703
C10   C     C_R   0.821723 0.391677 0.495437 0.574706
C11   C     C_R   0.279625 0.536191 0.453591 -0.142124
C12   C     C_R   0.721474 0.505848 0.455349 -0.126645
C13   C     C_R   0.329756 0.533818 0.454612 -0.225350
C14   C     C_R   0.671279 0.506659 0.454952 -0.236536
C15   C     C_R   0.328090 0.471419 0.542171 -0.248555
C16   C     C_R   0.671303 0.498359 0.546571 -0.223528
C17   C     C_R   0.277841 0.473467 0.540997 -0.111487
C18   C     C_R   0.721520 0.498128 0.546843 -0.106579
C19   C     C_R   0.253587 0.505877 0.496690 0.359565
C20   C     C_R   0.746642 0.501579 0.501254 0.357701
C21   C     C_R   0.102098 0.509382 0.488206 -0.124496
C22   C     C_R   0.898358 0.500627 0.498603 -0.114868
C23   C     C_R   0.127590 0.398895 0.481198 0.033649
C24   C     C_R   0.872992 0.610713 0.507234 0.027303
C25   C     C_R   0.102375 0.290961 0.469437 -0.197926
C26   C     C_R   0.898416 0.719700 0.516221 -0.197915
C27   C     C_R   0.127791 0.620353 0.495414 -0.198849
C28   C     C_R   0.872583 0.388855 0.493891 -0.200658
C29   C     C_R   0.354420 0.501815 0.498970 -0.013711
C30   C     C_R   0.645722 0.502213 0.500578 -0.048515
H3    H     H_    0.346304 0.445292 0.576640 0.142087
H4    H     H_    0.652572 0.495001 0.582285 0.164954
H5    H     H_    0.257743 0.449666 0.574367 0.135481
H6    H     H_    0.740962 0.494820 0.582406 0.140802
H7    H     H_    0.121057 0.206805 0.460002 0.176571
H8    H     H_    0.879918 0.803910 0.526234 0.197216
C31   C     C_R   0.974972 0.391140 0.489456 -0.151094
C32   C     C_R   0.025522 0.620153 0.492720 -0.146497
C33   C     C_R   0.974638 0.616430 0.499340 0.103346
C34   C     C_R   0.025818 0.394955 0.483123 0.115888
C35   C     C_R   0.949461 0.502725 0.495168 0.013782
C36   C     C_R   0.050961 0.508282 0.488314 0.013348
C37   C     C_R   0.948706 0.279242 0.493912 0.305885
C38   C     C_R   0.052208 0.731750 0.488067 0.317783
C39   C     C_R   0.898374 0.277994 0.490103 0.387779
C40   C     C_R   0.102572 0.732339 0.493706 0.414355
H9    H     H_    0.391936 0.648111 0.038607 0.140365
H10   H     H_    0.612888 0.385464 0.961550 0.141756
H11   H     H_    0.441257 0.366134 0.721312 0.144722
H12   H     H_    0.565792 0.607638 0.277950 0.154614
O13   O     O_2   0.795772 0.286936 0.491488 -0.514163
O14   O     O_2   0.203823 0.717728 0.512987 -0.516806
C41   C     C_R   0.052461 0.289857 0.469046 -0.180348
C42   C     C_R   0.948238 0.721853 0.513508 -0.182713
H13   H     H_    0.652539 0.509923 0.418969 0.150894
H14   H     H_    0.349187 0.558050 0.420846 0.159926
H15   H     H_    0.740878 0.508572 0.420030 0.128987
H16   H     H_    0.260908 0.561247 0.419282 0.131944
H17   H     H_    0.035558 0.205929 0.456123 0.200168
H18   H     H_    0.965339 0.807029 0.524246 0.202597
H19   H     H_    0.546202 0.202590 0.266144 0.173555
H20   H     H_    0.432338 0.749808 0.721673 0.208561
C43   C     C_R   0.493000 0.164549 0.321789 -0.188415
C44   C     C_R   0.483581 0.859724 0.682933 -0.203262
H21   H     H_    0.463216 0.178308 0.295945 0.148780
H22   H     H_    0.505479 0.876008 0.716414 0.163527
C45   C     C_R   0.484038 0.131736 0.371484 -0.189573
C46   C     C_R   0.497539 0.908244 0.636942 -0.228450
H23   H     H_    0.447168 0.119272 0.383577 0.147705
H24   H     H_    0.530368 0.962102 0.635291 0.165621
C47   C     C_R   0.522313 0.110598 0.404965 0.009442
C48   C     C_R   0.469714 0.886771 0.593181 0.003633
C49   C     C_R   0.570294 0.123354 0.388275 0.444460
C50   C     C_R   0.426482 0.818052 0.596182 0.451774
C51   C     C_R   0.579179 0.157044 0.337755 0.119640
C52   C     C_R   0.413146 0.766047 0.642716 0.128296
C53   C     C_R   0.540163 0.178385 0.305089 -0.185204
C54   C     C_R   0.441931 0.788469 0.685779 -0.175795
C55   C     C_R   0.510786 0.930960 0.457028 -0.203039
C56   C     C_R   0.487210 0.068570 0.542974 -0.266641
H25   H     H_    0.520336 0.878231 0.423409 0.164037
H26   H     H_    0.477324 0.121593 0.576388 0.162238
C57   C     C_R   0.498080 0.871654 0.501442 -0.069950
C58   C     C_R   0.499679 0.127908 0.498411 -0.098518
C59   C     C_R   0.485537 0.941297 0.545016 0.046661
C60   C     C_R   0.511352 0.057838 0.454694 0.053985
H27   H     H_    0.383853 0.603625 0.962801 0.163486
H28   H     H_    0.604768 0.341851 0.036822 0.164086
C61   C     C_R   0.462275 0.554696 0.188122 0.538213
C62   C     C_R   0.538558 0.457644 0.811815 0.541351
O15   O     O_2   0.426173 0.609411 0.213769 -0.552452
O16   O     O_2   0.577730 0.419462 0.786166 -0.547668
N3    N     N_R   0.499757 0.503354 0.214072 -0.452283
N4    N     N_R   0.498765 0.496558 0.785857 -0.452107
C63   C     C_R   0.537257 0.449627 0.188571 0.538071
C64   C     C_R   0.458284 0.533437 0.811276 0.539666
C65   C     C_R   0.536722 0.561148 0.296951 -0.224358
C66   C     C_R   0.466895 0.424754 0.702605 -0.248020
C67   C     C_R   0.536242 0.558198 0.349854 0.033917
C68   C     C_R   0.467887 0.427139 0.649718 0.028488
C69   C     C_R   0.463058 0.445779 0.348160 0.063867
C70   C     C_R   0.531811 0.571867 0.652190 0.064415
C71   C     C_R   0.462054 0.447184 0.295219 -0.243049
C72   C     C_R   0.532116 0.571910 0.705201 -0.227834
C73   C     C_R   0.499448 0.504361 0.268930 0.353556
C74   C     C_R   0.499296 0.497745 0.731030 0.354982
C75   C     C_R   0.499189 0.496816 0.107781 -0.107838
C76   C     C_R   0.497801 0.494059 0.892091 -0.107233
C77   C     C_R   0.461315 0.552395 0.134835 0.003829
C78   C     C_R   0.538835 0.455873 0.865104 0.002511
C79   C     C_R   0.423282 0.605406 0.108246 -0.156074
C80   C     C_R   0.579464 0.416924 0.891775 -0.151335
C81   C     C_R   0.537397 0.442916 0.134902 -0.145575
C82   C     C_R   0.456657 0.531945 0.864908 -0.143039
N5    N     N_R   0.500000 0.499970 0.374520 -0.169079
N6    N     N_R   0.500000 0.500030 0.625480 -0.170616
H29   H     H_    0.434452 0.400107 0.368107 0.126478
H30   H     H_    0.556879 0.629731 0.632377 0.129498
H31   H     H_    0.432806 0.402177 0.274806 0.144058
H32   H     H_    0.557336 0.630074 0.725981 0.147986
H33   H     H_    0.393996 0.650125 0.128059 0.182933
H34   H     H_    0.611708 0.388445 0.872037 0.184776
C83   C     C_R   0.457566 0.538854 0.973098 -0.038076
C84   C     C_R   0.538084 0.444539 0.026747 -0.038625
C85   C     C_R   0.538948 0.450101 0.972821 0.088107
C86   C     C_R   0.458995 0.545807 0.027083 0.088797
C87   C     C_R   0.498047 0.494122 0.946179 0.069568
C88   C     C_R   0.498733 0.495468 0.053692 0.069091
C89   C     C_R   0.416573 0.573722 0.944946 -0.279866
C90   C     C_R   0.575044 0.387800 0.054798 -0.279078
C91   C     C_R   0.415169 0.566766 0.892168 0.504936
C92   C     C_R   0.574244 0.382896 0.107543 0.508492
O17   O     O_3   0.971006 0.169910 0.505442 -0.579216
C93   C     C_3   0.982046 0.170618 0.557722 0.075483
H35   H     H_    0.948632 0.155727 0.579822 0.165211
H36   H     H_    0.999382 0.258207 0.570842 0.139631
C94   C     C_3   0.017198 0.067792 0.568713 -0.697489
H37   H     H_    0.050162 0.078137 0.545591 0.270520
H38   H     H_    0.027481 0.070671 0.609349 0.187371
H39   H     H_    0.000217 0.977851 0.559826 0.256721
O18   O     O_3   0.030658 0.840794 0.474678 -0.578742
C95   C     C_3   0.015897 0.831842 0.423397 0.046552
H40   H     H_    0.985832 0.764952 0.418226 0.160690
H41   H     H_    0.046180 0.803470 0.398390 0.113178
C96   C     C_3   0.998083 0.956159 0.406546 -0.779319
H42   H     H_    0.028311 0.023054 0.406760 0.230021
H43   H     H_    0.982973 0.948416 0.367647 0.191250
H44   H     H_    0.969626 0.989162 0.432560 0.286359
O19   O     O_3   0.608240 0.089667 0.419126 -0.592123
C97   C     C_3   0.622525 0.191493 0.449481 0.033787
H45   H     H_    0.596859 0.205327 0.481016 0.147304
H46   H     H_    0.624877 0.277541 0.427487 0.134309
C98   C     C_3   0.672006 0.166537 0.471965 -0.686324
H47   H     H_    0.698870 0.156135 0.441290 0.252529
H48   H     H_    0.683177 0.243953 0.497305 0.223686
H49   H     H_    0.670996 0.081134 0.494208 0.253637
O20   O     O_3   0.399334 0.794105 0.553056 -0.606625
C99   C     C_3   0.366068 0.890206 0.546710 0.010308
H50   H     H_    0.384994 0.976159 0.536186 0.155829
H51   H     H_    0.344774 0.907638 0.581641 0.152818
C100  C     C_3   0.331068 0.854873 0.504392 -0.721699
H52   H     H_    0.310325 0.771864 0.514861 0.273144
H53   H     H_    0.305546 0.931216 0.497921 0.208220
H54   H     H_    0.351056 0.835449 0.468939 0.241246
C101  C     C_3   0.629847 0.166247 0.317702 -0.382101
C102  C     C_3   0.650686 0.039288 0.306721 -0.793493
H55   H     H_    0.653327 0.985614 0.341875 0.283869
H56   H     H_    0.627628 0.988623 0.278808 0.240332
H57   H     H_    0.687347 0.048981 0.290731 0.235450
H58   H     H_    0.630254 0.219028 0.282128 0.217283
H59   H     H_    0.653357 0.216821 0.345147 0.209067
C103  C     C_3   0.369216 0.684487 0.646941 -0.391309
C104  C     C_3   0.330981 0.742736 0.680794 -0.818353
H60   H     H_    0.344530 0.753541 0.720213 0.271852
H61   H     H_    0.320511 0.833949 0.666385 0.245586
H62   H     H_    0.298532 0.682799 0.681062 0.247977
H63   H     H_    0.352647 0.665380 0.609367 0.244239
H64   H     H_    0.380097 0.594805 0.662642 0.211947
O21   O     O_3   0.373131 0.601015 0.867900 -0.551567
C105  C     C_3   0.344372 0.495720 0.857300 0.139850
H65   H     H_    0.365609 0.410309 0.850412 0.121132
H66   H     H_    0.323996 0.512394 0.821834 0.185853
C106  C     C_3   0.307976 0.475258 0.899266 -0.877610
H67   H     H_    0.287939 0.561273 0.907377 0.264613
H68   H     H_    0.281949 0.402530 0.887278 0.218845
H69   H     H_    0.326527 0.445267 0.934168 0.239091
O22   O     O_3   0.611482 0.322879 0.131688 -0.548634
C107  C     C_3   0.597172 0.201102 0.142438 0.129622
H70   H     H_    0.557823 0.190846 0.149856 0.117940
H71   H     H_    0.615983 0.173815 0.177647 0.181299
C108  C     C_3   0.612225 0.112557 0.100187 -0.864897
H72   H     H_    0.651096 0.124603 0.091895 0.263930
H73   H     H_    0.605832 0.016613 0.111988 0.219778
H74   H     H_    0.590773 0.128930 0.065440 0.239599
O23   O     O_3   0.874928 0.165777 0.487850 -0.511720
C109  C     C_3   0.871207 0.128199 0.436539 0.115379
H75   H     H_    0.906757 0.130512 0.417280 0.114266
H76   H     H_    0.845808 0.188481 0.415889 0.150651
C110  C     C_3   0.852088 0.997298 0.433368 -0.719881
H77   H     H_    0.816860 0.991020 0.452811 0.278520
H78   H     H_    0.847260 0.968651 0.393153 0.183053
H79   H     H_    0.878084 0.934424 0.451430 0.241086
O24   O     O_3   0.126736 0.843642 0.498365 -0.516203
C111  C     C_3   0.139264 0.886190 0.449982 0.099083
H80   H     H_    0.108659 0.937745 0.433769 0.158353
H81   H     H_    0.149550 0.810673 0.423137 0.107437
C112  C     C_3   0.181847 0.974182 0.455126 -0.698160
H82   H     H_    0.214921 0.923574 0.465561 0.264393
H83   H     H_    0.188053 0.020244 0.418636 0.190174
H84   H     H_    0.174608 0.044829 0.484821 0.270804

loop_
_geom_bond_atom_site_label_1
_geom_bond_atom_site_label_2
_geom_bond_distance
_ccdc_geom_bond_type
C98   H47   1.110796 S    
C103  C104  1.526770 S    
C31   C35   1.416346 A    
C94   H38   1.110346 S    
C106  H68   1.110404 S    
Cu1   N6    1.993162 S    
C84   C88   1.418536 A    
C3    C29   1.469122 S    
C96   H42   1.108960 S    
C107  C108  1.525139 S    
C41   H17   1.075032 S    
C68   N6    1.362843 A    
O7    Cu2   1.948539 S    
C67   N5    1.363665 A    
O10   C63   1.348079 S    
C108  H74   1.109613 S    
C52   C103  1.511761 S    
C21   C23   1.409499 A    
C11   H16   1.082859 S    
O23   C109  1.413739 S    
C102  H55   1.110036 S    
C110  H79   1.109381 S    
O5    C3    1.289560 A    
C98   H48   1.109551 S    
C10   C28   1.413499 A    
C69   N5    1.362429 A    
C5    C86   1.415429 A    
O1    C1    1.289174 A    
C8    O12   1.350014 S    
C49   O19   1.383406 S    
C6    C85   1.415378 A    
C17   C19   1.399651 A    
C90   C92   1.397921 A    
N4    C74   1.451152 S    
C75   C88   1.430922 A    
C43   C53   1.393407 A    
C46   H24   1.083337 S    
C34   C41   1.412013 A    
C33   C35   1.421865 A    
C15   H3    1.083089 S    
C56   C59   1.389504 A    
H27   C89   1.076071 S    
H11   C66   1.082633 S    
C112  H84   1.109850 S    
H28   C90   1.076460 S    
C32   C33   1.425364 A    
C12   C20   1.398647 A    
C106  H67   1.110567 S    
C2    C57   1.456238 S    
C71   H31   1.082573 S    
O4    Cu1   1.979859 S    
C37   C39   1.400411 A    
C42   H18   1.073220 S    
N1    C19   1.431227 S    
C25   H7    1.081793 S    
C97   C98   1.521015 S    
C10   O13   1.348892 S    
H1    C68   1.081604 S    
C102  H56   1.111337 S    
C65   C67   1.400884 A    
C38   C40   1.405289 A    
O17   C93   1.414609 S    
C99   H50   1.112644 S    
C105  H65   1.116977 S    
O22   C107  1.417809 S    
C47   C49   1.413480 A    
C63   C81   1.420606 A    
C23   C25   1.394956 A    
C110  H78   1.110372 S    
C70   N6    1.362580 A    
C18   H6    1.082768 S    
C103  H64   1.111275 S    
C21   C27   1.410280 A    
C100  H54   1.110812 S    
C69   C71   1.401243 A    
C9    C27   1.412430 A    
C22   C24   1.409777 A    
C80   H34   1.083427 S    
C51   C53   1.404034 A    
C22   C35   1.422574 A    
C13   C29   1.405067 A    
Cu1   Cu2   2.653842 S    
C94   H39   1.106199 S    
C82   C91   1.413148 A    
C14   C30   1.406133 A    
O2    C2    1.287895 A    
C24   C26   1.394470 A    
C77   C79   1.397921 A    
O2    Cu2   1.972393 S    
C38   O18   1.383763 S    
C101  H59   1.110074 S    
N4    C64   1.371929 A    
H2    C67   1.081100 S    
C55   H25   1.085182 S    
C76   C87   1.431075 A    
C70   C72   1.402575 A    
C108  H72   1.110538 S    
C61   O15   1.349511 S    
C99   C100  1.520378 S    
C50   O20   1.383251 S    
C98   H49   1.110597 S    
C16   H4    1.082950 S    
C44   C54   1.393116 A    
C45   H23   1.083414 S    
N3    C73   1.451432 S    
C104  H60   1.110301 S    
C95   C96   1.517955 S    
C84   C90   1.413688 A    
C96   H44   1.108450 S    
C65   C73   1.403540 A    
C72   H32   1.082526 S    
C86   C88   1.422346 A    
C46   C48   1.402886 A    
C83   C86   1.429257 A    
C14   H13   1.083023 S    
C45   C47   1.401371 A    
C109  H75   1.114421 S    
N2    C20   1.431176 S    
C13   H14   1.083097 S    
C111  C112  1.522487 S    
C110  H77   1.110783 S    
C44   C46   1.392473 A    
C5    C79   1.391081 A    
C109  C110  1.520293 S    
C69   H29   1.081180 S    
C32   C36   1.415171 A    
C70   H30   1.081660 S    
C95   H41   1.114951 S    
C22   C28   1.412808 A    
C101  C102  1.525898 S    
C104  H61   1.110404 S    
H19   C53   1.082382 S    
O24   C111  1.414725 S    
C26   H8    1.083286 S    
C5    H9    1.076541 S    
C49   C51   1.415750 A    
C37   O17   1.383353 S    
C61   N3    1.370119 A    
C75   C81   1.412865 A    
C48   C50   1.415248 A    
O18   C95   1.416150 S    
C79   H33   1.083442 S    
C93   C94   1.520253 S    
C76   C82   1.413060 A    
O6    C4    1.289218 A    
C105  C106  1.525340 S    
C50   C52   1.415753 A    
C112  H82   1.109315 S    
O9    C64   1.347752 S    
N3    C63   1.372323 A    
C39   O23   1.382693 S    
C52   C54   1.404207 A    
O7    C3    1.288084 A    
C32   C38   1.428710 A    
C9    O14   1.347815 S    
O8    C4    1.289624 A    
C103  H63   1.108347 S    
C66   C68   1.400507 A    
C7    C23   1.400384 A    
O4    C2    1.282194 A    
C97   H45   1.109765 S    
C93   H36   1.115467 S    
C44   H22   1.082380 S    
C7    O11   1.349699 S    
C47   C60   1.478641 S    
C17   H5    1.082703 S    
C15   C29   1.405054 A    
C106  H69   1.109505 S    
O6    Cu2   1.945950 S    
C6    C80   1.391761 A    
H20   C54   1.080586 S    
C72   C74   1.404545 A    
C16   C30   1.406129 A    
O19   C97   1.411391 S    
C76   C78   1.409306 A    
C85   C87   1.422371 A    
C7    N1    1.364273 A    
C1    C58   1.458688 S    
C111  H81   1.116588 S    
C25   C41   1.385879 A    
C66   C74   1.403310 A    
C96   H43   1.110328 S    
C107  H70   1.116852 S    
C64   C82   1.420481 A    
C92   O22   1.384724 S    
O3    C1    1.282120 A    
O8    Cu1   1.948537 S    
C78   C80   1.398283 A    
C43   H21   1.082117 S    
Cu2   N5    1.993162 S    
O3    Cu2   1.979861 S    
N1    C9    1.366453 A    
C89   C91   1.397384 A    
C27   C40   1.411115 A    
N2    C10   1.366360 A    
C102  H57   1.110403 S    
C58   C60   1.414586 A    
C28   C39   1.409638 A    
C95   H40   1.111670 S    
C18   C20   1.398670 A    
C109  H76   1.113394 S    
C61   C77   1.409740 A    
C11   C13   1.392382 A    
O20   C99   1.411217 S    
C56   C58   1.399995 A    
C101  H58   1.112188 S    
C12   C14   1.393743 A    
C12   H15   1.082783 S    
C51   C101  1.510602 S    
C15   C17   1.395657 A    
C8    C24   1.400435 A    
C21   C36   1.419903 A    
C31   C37   1.425003 A    
C97   H46   1.114550 S    
C83   C87   1.418437 A    
C112  H83   1.110496 S    
C4    C30   1.471621 S    
C62   O16   1.349421 S    
C40   O24   1.386340 S    
C26   C42   1.385826 A    
C16   C18   1.394322 A    
C33   C42   1.411941 A    
O21   C105  1.417404 S    
C6    H10   1.076733 S    
C56   H26   1.084849 S    
C43   C45   1.392770 A    
C48   C59   1.484424 S    
C71   C73   1.403573 A    
C55   C60   1.385120 A    
C83   C89   1.413272 A    
H12   C65   1.082633 S    
C100  H52   1.110486 S    
C62   N4    1.369985 A    
O5    Cu1   1.945950 S    
O1    Cu1   1.972393 S    
C93   H35   1.112974 S    
C57   C59   1.415042 A    
C8    N2    1.363933 A    
C31   C34   1.423374 A    
C11   C19   1.398349 A    
C94   H37   1.110941 S    
C75   C77   1.409187 A    
C108  H73   1.110459 S    
C84   C85   1.429617 A    
C81   C92   1.413443 A    
C105  H66   1.110642 S    
C62   C78   1.410413 A    
C107  H71   1.110844 S    
C34   C36   1.419648 A    
C111  H80   1.109107 S    
C55   C57   1.398129 A    
C104  H62   1.110430 S    
C91   O21   1.384358 S    
C99   H51   1.114520 S    
C100  H53   1.110286 S    
