data_mof_unit_20897.cif
_audit_creation_date              2012-10-26T20:40:17-0400
_audit_creation_method            fapswitch 2.2
_symmetry_space_group_name_H-M    P1
_symmetry_Int_Tables_number       1
_space_group_crystal_system       triclinic
_cell_length_a                    14.998325
_cell_length_b                    10.898266
_cell_length_c                    9.66949
_cell_angle_alpha                 87.904664
_cell_angle_beta                  89.096852
_cell_angle_gamma                 95.496995
_cell_volume                      1571.91828151

loop_
_atom_site_label
_atom_site_type_symbol
_atom_type_description
_atom_site_fract_x
_atom_site_fract_y
_atom_site_fract_z
_atom_type_partial_charge
C1    C     C_R   0.501951 0.262250 0.503757 0.553400
C2    C     C_R   0.178768 0.397305 0.468845 -0.147103
C3    C     C_R   0.232881 0.502038 0.502027 0.038040
C4    C     C_R   0.329182 0.498971 0.500761 0.573400
C5    C     C_R   0.196163 0.611270 0.531201 0.377667
C6    C     C_R   0.460184 0.095483 0.766337 -0.043112
C7    C     C_R   0.417775 0.018931 0.872047 0.133288
C8    C     C_R   0.383324 0.900292 0.844433 -0.063446
C9    C     C_R   0.399974 0.852969 0.716732 -0.032608
C10   C     C_R   0.452220 0.923887 0.613688 -0.033172
C11   C     C_R   0.471890 0.051809 0.630882 -0.059788
C12   C     C_R   0.913241 0.616183 0.537364 -0.006466
C13   C     C_R   0.505042 0.127346 0.513182 -0.054051
C14   C     C_R   0.535648 0.071179 0.395468 0.409625
C15   C     C_R   0.528417 0.944221 0.388186 0.440769
C16   C     C_R   0.495081 0.736462 0.498121 0.654057
C17   C     C_R   0.487653 0.869458 0.496644 -0.023909
C18   C     C_R   0.640903 0.640695 0.133317 0.436323
C19   C     C_R   0.718015 0.684627 0.059526 0.072964
C20   C     C_R   0.717803 0.685359 0.918131 -0.130927
C21   C     C_R   0.641231 0.642188 0.850480 0.400573
C22   C     C_R   0.568914 0.568936 0.921059 0.043109
C23   C     C_R   0.940570 0.295882 0.421518 0.111635
C24   C     C_R   0.568830 0.568656 0.070451 0.010830
C25   C     C_R   0.435080 0.435397 0.079425 0.519303
C26   C     C_R   0.434206 0.435439 0.932658 0.191676
C27   C     C_R   0.670828 0.501531 0.498853 0.640643
C28   C     C_R   0.819071 0.613240 0.530167 0.413219
C29   C     C_R   0.767589 0.505563 0.496239 0.007964
C30   C     C_R   0.807195 0.401437 0.459737 -0.182587
C31   C     C_R   0.900067 0.401369 0.459939 0.016199
C32   C     C_R   0.953583 0.508827 0.500452 -0.036585
C33   C     C_R   0.032985 0.295740 0.426538 -0.064972
C34   C     C_R   0.086343 0.400074 0.466200 -0.006869
C35   C     C_R   0.047296 0.508268 0.502441 -0.022094
C36   C     C_R   0.102329 0.615132 0.538696 0.019637
C37   C     C_R   0.062209 0.720868 0.581421 0.133765
C38   C     C_R   0.967816 0.721271 0.581214 0.126481
Cu1   Cu    Cu3+1 0.499990 0.499990 0.640660 1.073834
Cu2   Cu    Cu3+1 0.500010 0.500010 0.359340 1.214990
F1    F     F_    0.775343 0.714788 0.547310 -0.530354
F2    F     F_    0.562879 0.895071 0.274580 -0.509402
F3    F     F_    0.368769 0.368670 0.153939 -0.581559
F4    F     F_    0.635742 0.687827 0.258454 -0.509439
F5    F     F_    0.637763 0.692058 0.722566 -0.536203
F6    F     F_    0.253830 0.713672 0.540741 -0.649168
F7    F     F_    0.577217 0.139573 0.288540 -0.553748
H1    H     H_    0.488268 0.184361 0.797178 0.174449
H2    H     H_    0.347196 0.842317 0.924134 0.150089
H3    H     H_    0.372973 0.759211 0.701804 0.204467
H4    H     H_    0.773508 0.733703 0.860158 0.207642
H5    H     H_    0.764221 0.320757 0.432759 0.168784
H6    H     H_    0.063400 0.213834 0.397593 0.158624
H7    H     H_    0.209059 0.314264 0.443238 0.154793
I1    I     I_    0.407467 0.076830 0.076698 -0.119050
I2    I     I_    0.829318 0.774860 0.159110 -0.098234
I3    I     I_    0.321658 0.329601 0.850954 -0.202990
I4    I     I_    0.868322 0.133200 0.350338 -0.147185
I5    I     I_    0.141443 0.879040 0.659180 -0.181614
I6    I     I_    0.910831 0.880819 0.658080 -0.109907
N1    N     N_R   0.500860 0.501210 0.147910 -0.245141
N2    N     N_R   0.500890 0.501290 0.852040 -0.284565
O1    O     O_R   0.499990 0.319640 0.618810 -0.548875
O2    O     O_R   0.500000 0.319660 0.381240 -0.409808
O3    O     O_R   0.370250 0.499960 0.618800 -0.505078
O4    O     O_R   0.370260 0.499980 0.381230 -0.454215
O5    O     O_R   0.500000 0.680340 0.618760 -0.454739
O6    O     O_R   0.500010 0.680360 0.381190 -0.387214
O7    O     O_R   0.629740 0.500020 0.618770 -0.448917
O8    O     O_R   0.629750 0.500040 0.381200 -0.457147

loop_
_geom_bond_atom_site_label_1
_geom_bond_atom_site_label_2
_ccdc_geom_bond_type
C19   I2    S    
C23   I4    S    
C1    O2    A    
C6    C7    A    
C16   O6    A    
C18   F4    S    
C22   N2    A    
C29   C30   A    
Cu1   O1    S    
C9    C10   A    
Cu2   O8    S    
C31   C32   A    
C27   O7    A    
C7    I1    S    
C30   C31   A    
C34   C35   A    
C5    C36   A    
C2    C34   A    
C33   C34   A    
C26   N2    A    
C7    C8    A    
C16   O5    A    
Cu2   O4    S    
C21   C22   A    
C12   C32   A    
C4    O4    A    
Cu1   O3    S    
C25   F3    S    
C37   I5    S    
C27   O8    A    
C6    H1    S    
C12   C28   A    
C24   N1    A    
C38   I6    S    
C1    O1    A    
C16   C17   S    
C28   C29   A    
C37   C38   A    
C2    C3    A    
C20   H4    S    
C21   F5    S    
Cu1   O7    S    
C4    O3    A    
C33   H6    S    
C26   I3    S    
C22   C24   A    
C12   C38   A    
C27   C29   S    
C10   C11   A    
Cu2   N1    S    
C10   C17   A    
Cu2   O6    S    
C3    C4    S    
Cu1   Cu2   S    
C32   C35   A    
C3    C5    A    
C28   F1    S    
C11   C13   A    
C1    C13   S    
C20   C21   A    
C18   C24   A    
C18   C19   A    
C2    H7    S    
C6    C11   A    
C15   C17   A    
Cu1   N2    S    
C30   H5    S    
C14   C15   A    
C36   C37   A    
C25   N1    A    
C23   C33   A    
C25   C26   A    
C13   C14   A    
C14   F7    S    
Cu1   O5    S    
C8    H2    S    
C9    H3    S    
C19   C20   A    
C15   F2    S    
C23   C31   A    
C8    C9    A    
C5    F6    S    
C35   C36   A    
Cu2   O2    S    
