data_mof_unit_53503.cif
_audit_creation_date              2012-12-11T16:32:23-0500
_audit_creation_method            fapswitch 2.2
_symmetry_space_group_name_H-M    P1
_symmetry_Int_Tables_number       1
_space_group_crystal_system       triclinic
_cell_length_a                    6.939309
_cell_length_b                    14.443424
_cell_length_c                    15.866617
_cell_angle_alpha                 90.037439
_cell_angle_beta                  89.766642
_cell_angle_gamma                 90.039457
_cell_volume                      1590.255582

loop_
_atom_site_label
_atom_site_type_symbol
_atom_type_description
_atom_site_fract_x
_atom_site_fract_y
_atom_site_fract_z
_atom_type_partial_charge
O1    O     O_R   0.361630 0.167340 0.164570 -0.536775
O2    O     O_R   0.638370 0.832660 0.835430 -0.536775
O3    O     O_R   0.690860 0.157560 0.338690 -0.538654
O4    O     O_R   0.309140 0.842440 0.661310 -0.538655
O5    O     O_R   0.861260 0.336420 0.339380 -0.541306
O6    O     O_R   0.138740 0.663580 0.660620 -0.541307
C1    C     C_R   0.521511 0.134609 0.367952 0.662053
C2    C     C_R   0.478489 0.865391 0.632048 0.662053
O7    O     O_R   0.691330 0.156310 0.165190 -0.537794
O8    O     O_R   0.308670 0.843690 0.834810 -0.537795
O9    O     O_R   0.861730 0.335160 0.164640 -0.536634
O10   O     O_R   0.138270 0.664840 0.835360 -0.536635
C3    C     C_R   0.522719 0.134176 0.136406 0.700271
C4    C     C_R   0.477281 0.865823 0.863594 0.700271
O11   O     O_R   0.361150 0.168600 0.339320 -0.538991
O12   O     O_R   0.638850 0.831400 0.660680 -0.538991
O13   O     O_3   0.527950 0.310560 0.252000 -0.365755
O14   O     O_3   0.472050 0.689440 0.748000 -0.365755
V1    V     V_3+5 0.802770 0.240990 0.251980 1.409161
V2    V     V_3+5 0.197230 0.759010 0.748020 1.409161
O15   O     O_R   0.191450 0.346190 0.165260 -0.538110
O16   O     O_R   0.808550 0.653810 0.834740 -0.538110
C5    C     C_R   0.022955 0.367889 0.136566 0.702557
C6    C     C_R   0.977045 0.632110 0.863434 0.702557
O17   O     O_R   0.190980 0.347440 0.338770 -0.540861
O18   O     O_R   0.809020 0.652560 0.661230 -0.540861
C7    C     C_R   0.021747 0.369529 0.367665 0.668038
C8    C     C_R   0.978253 0.630471 0.632335 0.668039
V3    V     V_3+5 0.302780 0.262760 0.251980 1.409102
V4    V     V_3+5 0.697220 0.737240 0.748020 1.409102
O19   O     O_3   0.027730 0.193200 0.251960 -0.366657
O20   O     O_3   0.972270 0.806800 0.748040 -0.366657
C9    C     C_3   0.821529 0.471982 0.479965 -0.111329
C10   C     C_3   0.178471 0.528018 0.520035 -0.111329
C11   C     C_3   0.916441 0.460599 0.567566 -0.150642
C12   C     C_3   0.083559 0.539401 0.432434 -0.150642
H1    H     H_    0.847719 0.428637 0.623775 0.099464
H2    H     H_    0.152281 0.571363 0.376225 0.099464
H3    H     H_    0.674023 0.448726 0.463177 0.109300
H4    H     H_    0.325977 0.551274 0.536823 0.109301
C13   C     C_3   0.989937 0.560909 0.562108 -0.001411
C14   C     C_3   0.010062 0.439091 0.437892 -0.001411
C15   C     C_3   0.895130 0.573124 0.475314 -0.144700
C16   C     C_3   0.104870 0.426876 0.524686 -0.144700
H5    H     H_    0.808380 0.633803 0.455439 0.094757
H6    H     H_    0.191620 0.366197 0.544561 0.094757
H7    H     H_    0.184111 0.330272 0.754276 0.109656
H8    H     H_    0.815889 0.669728 0.245724 0.109656
C17   C     C_R   0.879913 0.683911 0.034042 -0.148062
C18   C     C_R   0.120087 0.316089 0.965958 -0.148062
C19   C     C_R   0.835597 0.711154 0.116131 -0.112679
C20   C     C_R   0.164403 0.288846 0.883869 -0.112679
C21   C     C_R   0.849550 0.648136 0.181989 -0.142564
C22   C     C_R   0.150450 0.351864 0.818011 -0.142564
C23   C     C_R   0.907699 0.557387 0.166209 -0.140931
C24   C     C_R   0.092301 0.442613 0.833791 -0.140931
C25   C     C_R   0.952800 0.527640 0.083395 0.069521
C26   C     C_R   0.047200 0.472360 0.916605 0.069521
C27   C     C_R   0.938968 0.592110 0.016093 0.056643
C28   C     C_R   0.061032 0.407890 0.983907 0.056643
C29   C     C_R   0.013517 0.435671 0.067109 -0.185898
C30   C     C_R   0.986483 0.564329 0.932891 -0.185898
H9    H     H_    0.868264 0.735733 0.985114 0.113163
H10   H     H_    0.131736 0.264267 0.014886 0.113164
H11   H     H_    0.791204 0.781687 0.128727 0.133744
H12   H     H_    0.208796 0.218313 0.871273 0.133744
H13   H     H_    0.917977 0.511179 0.219655 0.097265
H14   H     H_    0.082023 0.488821 0.780345 0.097265
C31   C     C_3   0.321619 0.028063 0.480117 -0.109810
C32   C     C_3   0.678381 0.971937 0.519882 -0.109810
C33   C     C_3   0.396017 0.927017 0.474110 -0.141288
C34   C     C_3   0.603983 0.072983 0.525890 -0.141288
H15   H     H_    0.309870 0.866765 0.452535 0.093855
H16   H     H_    0.690130 0.133235 0.547465 0.093855
H17   H     H_    0.173604 0.050967 0.463937 0.107418
H18   H     H_    0.826396 0.949033 0.536063 0.107418
C35   C     C_3   0.490164 0.937215 0.561569 -0.009549
C36   C     C_3   0.509835 0.062784 0.438431 -0.009549
C37   C     C_3   0.415841 0.037606 0.568205 -0.145571
C38   C     C_3   0.584159 0.962394 0.431795 -0.145570
H19   H     H_    0.346362 0.068805 0.624607 0.098765
H20   H     H_    0.653638 0.931195 0.375393 0.098765
H21   H     H_    0.313742 0.832817 0.246612 0.109426
H22   H     H_    0.686258 0.167183 0.753388 0.109426
C39   C     C_R   0.620511 0.183560 0.964868 -0.147806
C40   C     C_R   0.379488 0.816440 0.035132 -0.147806
C41   C     C_R   0.665419 0.209940 0.882631 -0.112668
C42   C     C_R   0.334580 0.790060 0.117369 -0.112668
C43   C     C_R   0.652051 0.146220 0.817224 -0.142449
C44   C     C_R   0.347949 0.853780 0.182776 -0.142449
C45   C     C_R   0.593824 0.055585 0.833552 -0.140977
C46   C     C_R   0.406176 0.944415 0.166448 -0.140977
C47   C     C_R   0.547949 0.026626 0.916464 0.070666
C48   C     C_R   0.452051 0.973374 0.083536 0.070666
C49   C     C_R   0.561256 0.091964 0.983465 0.057635
C50   C     C_R   0.438744 0.908036 0.016535 0.057635
C51   C     C_R   0.486952 0.934653 0.933034 -0.186551
C52   C     C_R   0.513048 0.065347 0.066966 -0.186551
H23   H     H_    0.631787 0.235915 0.013411 0.112773
H24   H     H_    0.368213 0.764085 0.986589 0.112773
H25   H     H_    0.709878 0.280370 0.869561 0.133677
H26   H     H_    0.290122 0.719630 0.130439 0.133677
H27   H     H_    0.584075 0.008830 0.780419 0.097512
H28   H     H_    0.415925 0.991170 0.219581 0.097512

loop_
_geom_bond_atom_site_label_1
_geom_bond_atom_site_label_2
_ccdc_geom_bond_type
C26   C30   A    
C17   H9    S    
C18   H10   S    
C12   C14   S    
O4    C2    A    
V1    O19   S    
C49   C52   A    
O9    V1    S    
C9    H3    S    
C10   H4    S    
C9    C14   S    
C11   H1    S    
C34   C37   S    
O3    C1    A    
C40   C42   A    
C25   C27   A    
C48   C52   A    
O12   V4    S    
C8    C13   S    
O13   V3    S    
C23   H13   S    
C19   H11   S    
C3    C52   S    
C31   C33   S    
O7    C3    A    
C34   C36   S    
C9    C11   S    
O5    C7    A    
O7    V1    S    
O6    C8    A    
C16   H6    S    
C17   C19   A    
C18   C20   A    
O3    V1    S    
O14   V4    S    
C43   C45   A    
C40   H24   S    
O14   V2    S    
C21   C23   A    
C2    O12   A    
C41   H25   S    
C32   C35   S    
C13   C15   S    
C31   C36   S    
C10   C13   S    
C14   C16   S    
C11   C13   S    
O1    V3    S    
C33   C38   S    
C20   C22   A    
O11   V3    S    
C35   C37   S    
O17   V3    S    
H8    C21   S    
C22   C24   A    
C39   C41   A    
C32   C38   S    
C9    C15   S    
C10   C16   S    
C34   H16   S    
O8    C4    A    
O8    V2    S    
C37   H19   S    
C1    O11   A    
C24   H14   S    
O15   V3    S    
C28   C29   A    
C19   C21   A    
C39   H23   S    
C45   C47   A    
C44   C46   A    
C50   C51   A    
O10   V2    S    
C46   C48   A    
C23   C25   A    
C48   C50   A    
C11   C16   S    
C15   H5    S    
C40   C50   A    
C1    C36   S    
C38   H20   S    
C42   C44   A    
O18   V4    S    
H7    C22   S    
C32   H18   S    
C2    C35   S    
O16   C6    A    
C31   C37   S    
O1    C3    A    
H22   C43   S    
C12   H2    S    
C47   C51   A    
C33   C35   S    
C20   H12   S    
C4    C51   S    
C33   H15   S    
V2    O20   S    
H21   C44   S    
C27   C30   A    
C6    C30   S    
O16   V4    S    
C45   H27   S    
C42   H26   S    
C25   C29   A    
O5    V1    S    
O17   C7    A    
O6    V2    S    
O10   C6    A    
O18   C8    A    
C17   C27   A    
O2    V4    S    
C18   C28   A    
O15   C5    A    
V3    O19   S    
V4    O20   S    
C39   C49   A    
C7    C14   S    
O9    C5    A    
O13   V1    S    
C10   C12   S    
C24   C26   A    
C31   H17   S    
C36   C38   S    
O2    C4    A    
C46   H28   S    
O4    V2    S    
C5    C29   S    
C47   C49   A    
C41   C43   A    
C12   C15   S    
C32   C34   S    
C26   C28   A    
