data_mof_unit_66941.cif
_audit_creation_date              2013-03-05T15:57:30-0500
_audit_creation_method            fapswitch 2.2
_symmetry_space_group_name_H-M    P1
_symmetry_Int_Tables_number       1
_space_group_crystal_system       triclinic
_cell_length_a                    17.922138
_cell_length_b                    19.279795
_cell_length_c                    8.7917
_cell_angle_alpha                 90.092242
_cell_angle_beta                  102.818365
_cell_angle_gamma                 91.170268
_cell_volume                      2961.45653802

loop_
_atom_site_label
_atom_site_type_symbol
_atom_site_description
_atom_site_fract_x
_atom_site_fract_y
_atom_site_fract_z
_atom_type_partial_charge
P1    P     P_3+3 0.834140 0.419320 0.003900 1.021297
P2    P     P_3+3 0.834140 0.580680 0.503900 1.018860
P3    P     P_3+3 0.334140 0.919320 0.003900 1.021575
P4    P     P_3+3 0.334140 0.080680 0.503900 1.015292
O1    O     O_2   0.841960 0.394640 0.833410 -0.500646
O2    O     O_2   0.841960 0.605360 0.333410 -0.474412
O3    O     O_2   0.341960 0.894640 0.833410 -0.499283
O4    O     O_2   0.341960 0.105360 0.333410 -0.480340
O5    O     O_3   0.907950 0.463080 0.102990 -0.437653
O6    O     O_3   0.907950 0.536920 0.602990 -0.432840
O7    O     O_3   0.407950 0.963080 0.102990 -0.437935
O8    O     O_3   0.407950 0.036920 0.602990 -0.423271
O9    O     O_3   0.972780 0.329600 0.629720 -0.467750
O10   O     O_3   0.972780 0.670400 0.129720 -0.452036
O11   O     O_3   0.472780 0.829600 0.629720 -0.477806
O12   O     O_3   0.472780 0.170400 0.129720 -0.439043
O13   O     O_2   0.843488 0.275405 0.689020 -0.427970
O14   O     O_2   0.843191 0.715630 0.185533 -0.435350
O15   O     O_2   0.343500 0.775599 0.690208 -0.419948
O16   O     O_2   0.343473 0.215908 0.184760 -0.439111
O17   O     O_3   0.764361 0.483335 0.968154 -0.619458
O18   O     O_3   0.757294 0.521339 0.470723 -0.610188
O19   O     O_3   0.264785 0.983632 0.967661 -0.613846
O20   O     O_3   0.257534 0.020989 0.470581 -0.613448
O21   O     O_3   0.933985 0.192035 0.594671 -0.586929
O22   O     O_3   0.939422 0.805359 0.129444 -0.583669
O23   O     O_3   0.433026 0.692004 0.593681 -0.571788
O24   O     O_3   0.440637 0.305636 0.130959 -0.582262
H1    H     H_    0.048745 0.218538 0.658434 0.119806
H2    H     H_    0.036848 0.790329 0.045541 0.077742
H3    H     H_    0.547905 0.717907 0.657576 0.152167
H4    H     H_    0.537345 0.291940 0.043761 0.083039
C1    C     C_3   0.029672 0.120372 0.537239 -0.314966
C2    C     C_3   0.011094 0.899239 0.063353 -0.335831
C3    C     C_3   0.528379 0.620373 0.533759 -0.386969
C4    C     C_3   0.511309 0.400541 0.065420 -0.339512
H5    H     H_    0.537563 0.589742 0.641336 0.232750
H6    H     H_    0.530979 0.409120 0.192512 0.134419
H7    H     H_    0.083883 0.120732 0.498182 0.114290
H8    H     H_    0.027724 0.909284 0.190331 0.138356
H9    H     H_    0.039817 0.090795 0.646291 0.188804
H10   H     H_    0.963248 0.933470 0.012269 0.056277
H11   H     H_    0.482666 0.594090 0.445697 0.060631
H12   H     H_    0.462455 0.434663 0.021304 0.075662
P5    P     P_3+3 0.165830 0.418670 0.685610 1.053345
P6    P     P_3+3 0.165830 0.581330 0.185610 1.091919
P7    P     P_3+3 0.665830 0.918670 0.685610 1.038859
P8    P     P_3+3 0.665830 0.081330 0.185610 1.099432
P9    P     P_3+3 0.099621 0.268947 0.120490 1.136306
P10   P     P_3+3 0.101930 0.731662 0.614243 1.057937
P11   P     P_3+3 0.599740 0.769197 0.120069 1.106773
P12   P     P_3+3 0.601078 0.232054 0.615134 1.056587
O25   O     O_2   0.157990 0.394030 0.856030 -0.424304
O26   O     O_2   0.157990 0.605970 0.356030 -0.418461
O27   O     O_2   0.657990 0.894030 0.856030 -0.427742
O28   O     O_2   0.657990 0.105970 0.356030 -0.411463
O29   O     O_3   0.027110 0.329490 0.059550 -0.379670
O30   O     O_3   0.027110 0.670510 0.559550 -0.479036
O31   O     O_3   0.527110 0.829490 0.059550 -0.375417
O32   O     O_3   0.527110 0.170510 0.559550 -0.475631
O33   O     O_2   0.156660 0.282573 0.015335 -0.411656
O34   O     O_2   0.155074 0.719387 0.501566 -0.356599
O35   O     O_2   0.656672 0.782698 0.014661 -0.403339
O36   O     O_2   0.654916 0.219573 0.503970 -0.356828
O37   O     O_3   0.257786 0.457451 0.741555 -0.602341
O38   O     O_3   0.255895 0.543008 0.231051 -0.618587
O39   O     O_3   0.757796 0.957887 0.740432 -0.599617
O40   O     O_3   0.755911 0.042755 0.231482 -0.622707
O41   O     O_3   0.058600 0.188618 0.047479 -0.494638
O42   O     O_3   0.064507 0.812222 0.546489 -0.593122
O43   O     O_3   0.558574 0.689123 0.046778 -0.468691
O44   O     O_3   0.563640 0.312421 0.546154 -0.588593
C5    C     C_3   0.021022 0.157058 0.155477 0.451811
C6    C     C_3   0.017701 0.837064 0.642387 0.372769
C7    C     C_3   0.520361 0.657831 0.153958 0.164903
C8    C     C_3   0.517154 0.337739 0.642181 0.380100
H13   H     H_    0.051329 0.169632 0.274318 -0.187907
H14   H     H_    0.040318 0.822840 0.765353 -0.186709
H15   H     H_    0.550377 0.670323 0.273047 0.128415
H16   H     H_    0.539758 0.323733 0.765243 -0.191674
C9    C     C_3   0.020326 0.076871 0.139881 0.329642
C10   C     C_3   0.014372 0.917606 0.635241 0.285752
C11   C     C_3   0.519482 0.577619 0.138279 0.337124
C12   C     C_3   0.514169 0.418264 0.634204 0.280915
H17   H     H_    0.461101 0.556780 0.088270 0.045433
H18   H     H_    0.456988 0.437476 0.575550 0.005665
H19   H     H_    0.963170 0.055816 0.079621 -0.027136
H20   H     H_    0.957548 0.936918 0.574911 0.007661
C13   C     C_3   0.265911 0.472707 0.263302 0.174908
C14   C     C_3   0.274036 0.528457 0.765777 0.106735
C15   C     C_3   0.765886 0.972386 0.264595 0.169889
C16   C     C_3   0.774404 0.028906 0.766109 0.126967
C17   C     C_3   0.350070 0.460697 0.253656 -0.280754
C18   C     C_3   0.357929 0.536842 0.746794 -0.192247
C19   C     C_3   0.849992 0.959991 0.254490 -0.278730
C20   C     C_3   0.857434 0.038000 0.741950 -0.163901
H21   H     H_    0.387823 0.499641 0.328834 0.065905
H22   H     H_    0.392602 0.494401 0.810094 0.115025
H23   H     H_    0.887969 0.998800 0.329647 0.063302
H24   H     H_    0.892740 0.994773 0.800033 0.103274
H25   H     H_    0.357281 0.468849 0.133125 0.065500
H26   H     H_    0.360230 0.531914 0.622336 0.095146
H27   H     H_    0.857471 0.968054 0.134162 0.069225
H28   H     H_    0.857812 0.035088 0.616264 0.089639
Ba1   Ba    Ba6+2 1.000000 0.447380 0.844850 1.816861
Ba2   Ba    Ba6+2 0.000000 0.552620 0.344850 1.839730
Ba3   Ba    Ba6+2 0.500000 0.947380 0.844850 1.800184
Ba4   Ba    Ba6+2 0.500000 0.052620 0.344850 1.844976
C21   C     C_3   0.757166 0.509884 0.817080 0.299088
C22   C     C_3   0.772123 0.463453 0.388440 0.284927
C23   C     C_3   0.259383 0.011025 0.817903 0.309315
C24   C     C_3   0.271546 0.964706 0.382535 0.285821
H29   H     H_    0.745070 0.468888 0.726589 0.085912
H30   H     H_    0.804355 0.477615 0.298401 0.076461
H31   H     H_    0.247674 0.970396 0.726440 0.085729
H32   H     H_    0.303579 0.980237 0.293108 0.079586
H33   H     H_    0.809659 0.538332 0.807768 0.022344
H34   H     H_    0.805234 0.427410 0.474581 0.027055
H35   H     H_    0.312494 0.039518 0.812104 0.013243
H36   H     H_    0.304817 0.927509 0.465178 0.023628
C25   C     C_3   0.689249 0.556932 0.779524 -0.261574
C26   C     C_3   0.695534 0.430205 0.305341 -0.342320
C27   C     C_3   0.191687 0.058216 0.778749 -0.259701
C28   C     C_3   0.194732 0.932205 0.298058 -0.311025
H37   H     H_    0.680188 0.571729 0.655511 0.088993
H38   H     H_    0.691703 0.429391 0.177734 0.107315
H39   H     H_    0.183835 0.073945 0.655530 0.083124
H40   H     H_    0.192377 0.929485 0.171208 0.128654
H41   H     H_    0.637480 0.529229 0.799410 0.200071
H42   H     H_    0.647378 0.460997 0.326941 0.161333
H43   H     H_    0.139572 0.030107 0.795126 0.182507
H44   H     H_    0.146584 0.964699 0.313400 0.184743
O45   O     O_3   0.092100 0.536880 0.086720 -0.442370
O46   O     O_3   0.092100 0.463120 0.586720 -0.484277
O47   O     O_3   0.592100 0.036880 0.086720 -0.415748
O48   O     O_3   0.592100 0.963120 0.586720 -0.487482
P13   P     P_3+3 0.895981 0.726187 0.070828 1.022064
P14   P     P_3+3 0.893772 0.273149 0.566882 1.057578
P15   P     P_3+3 0.396670 0.226707 0.070833 1.018364
P16   P     P_3+3 0.393350 0.773429 0.567288 1.041225
C29   C     C_3   0.006576 0.194308 0.560176 0.467547
C30   C     C_3   0.986428 0.824308 0.029357 0.293322
C31   C     C_3   0.505574 0.694207 0.558873 0.208926
C32   C     C_3   0.486763 0.325619 0.029765 0.285106
H45   H     H_    0.006602 0.224349 0.452558 -0.267962
H46   H     H_    0.954554 0.821337 0.907574 -0.008407
H47   H     H_    0.505717 0.724748 0.451955 0.053723
H48   H     H_    0.454151 0.323315 0.908437 -0.007980
H49   H     H_    0.583090 0.621080 0.496509 0.091735
H50   H     H_    0.558534 0.414440 0.009581 0.154659
H51   H     H_    0.983536 0.093245 0.451754 0.051883
H52   H     H_    0.060823 0.911362 0.013669 0.152328
H53   H     H_    0.535893 0.553161 0.254912 -0.053228
H54   H     H_    0.522980 0.440153 0.753309 0.101697
H55   H     H_    0.031065 0.052635 0.256370 0.014215
H56   H     H_    0.022094 0.938987 0.754577 0.073670
C33   C     C_R   0.148721 0.670985 0.916374 0.109523
C34   C     C_R   0.142466 0.321579 0.432448 0.126612
C35   C     C_R   0.645371 0.171584 0.918529 0.127967
C36   C     C_R   0.642137 0.821548 0.432316 0.109290
C37   C     C_R   0.849755 0.329200 0.263730 -0.347423
C38   C     C_R   0.855502 0.675953 0.759587 -0.321281
C39   C     C_R   0.349086 0.829837 0.264449 -0.351223
C40   C     C_R   0.357021 0.176450 0.759416 -0.357055
C41   C     C_R   0.785340 0.220730 0.297862 0.394988
C42   C     C_R   0.784430 0.777198 0.804191 0.485958
C43   C     C_R   0.284251 0.721679 0.298563 0.400776
C44   C     C_R   0.284906 0.277209 0.804318 0.493242
C45   C     C_R   0.836569 0.275554 0.360010 -0.088766
C46   C     C_R   0.839758 0.726430 0.860715 -0.126423
C47   C     C_R   0.335534 0.776413 0.360931 -0.109430
C48   C     C_R   0.340781 0.226790 0.860572 -0.132010
C49   C     C_R   0.807185 0.336712 0.110148 0.011855
C50   C     C_R   0.810601 0.665084 0.607817 -0.035090
C51   C     C_R   0.306676 0.837278 0.110749 0.012941
C52   C     C_R   0.311312 0.165182 0.608142 -0.035721
C53   C     C_R   0.748524 0.282985 0.049162 -0.026074
C54   C     C_R   0.750211 0.716271 0.549501 -0.046548
C55   C     C_R   0.247831 0.783850 0.049802 -0.028141
C56   C     C_R   0.250690 0.216306 0.549977 -0.057025
C57   C     C_R   0.237299 0.723875 0.144479 -0.010859
C58   C     C_R   0.238506 0.274370 0.649838 0.045060
C59   C     C_R   0.738381 0.222852 0.143651 -0.012203
C60   C     C_R   0.738122 0.774378 0.649537 0.040287
C61   C     C_R   0.182267 0.667767 0.079444 0.073659
C62   C     C_R   0.182106 0.328544 0.589142 0.080049
C63   C     C_R   0.682505 0.167221 0.079492 0.074101
C64   C     C_R   0.681880 0.828573 0.588905 0.088473
C65   C     C_R   0.156953 0.729276 0.826119 0.001594
C66   C     C_R   0.155334 0.269230 0.333047 -0.039732
C67   C     C_R   0.654745 0.229511 0.827733 -0.018366
C68   C     C_R   0.655111 0.769281 0.332703 -0.103913
C69   C     C_R   0.201570 0.786438 0.896095 -0.136395
C70   C     C_R   0.205584 0.215591 0.393186 -0.154233
C71   C     C_R   0.701623 0.285720 0.896078 -0.128258
C72   C     C_R   0.705231 0.715564 0.392629 -0.140204
C73   C     C_2   0.379842 0.390777 0.301823 0.539492
H57   H     H_    0.440920 0.384761 0.336412 0.031577
O49   O     O_2   0.337260 0.340687 0.302952 -0.546376
C74   C     C_2   0.396789 0.603914 0.802176 0.585375
H58   H     H_    0.365355 0.649541 0.817619 0.158890
O50   O     O_2   0.465770 0.608796 0.823860 -0.515754
C75   C     C_2   0.879431 0.889928 0.302489 0.546095
H59   H     H_    0.940442 0.883611 0.336895 0.022362
O51   O     O_2   0.836642 0.840006 0.303737 -0.543448
C76   C     C_2   0.896956 0.104517 0.800544 0.550349
H60   H     H_    0.865846 0.150471 0.814916 0.172371
O52   O     O_2   0.966094 0.108785 0.825798 -0.585557
C77   C     C_2   0.702884 0.620684 0.876732 0.502013
H61   H     H_    0.753316 0.626047 0.970341 -0.007797
O53   O     O_2   0.657368 0.667356 0.849668 -0.558537
C78   C     C_2   0.685301 0.357901 0.358332 0.507521
H62   H     H_    0.720103 0.338895 0.465898 0.001276
O54   O     O_2   0.636665 0.319531 0.280780 -0.569352
C79   C     C_2   0.204152 0.121271 0.878152 0.504507
H63   H     H_    0.254444 0.126720 0.972043 -0.001438
O55   O     O_2   0.157937 0.167402 0.852158 -0.568230
C80   C     C_2   0.183018 0.860782 0.355460 0.479790
H64   H     H_    0.217334 0.842544 0.464250 0.009562
O56   O     O_2   0.134427 0.821947 0.279510 -0.571463
O57   O     O_3   0.285803 0.663231 0.385637 -0.644391
H65   H     H_    0.336387 0.642418 0.392360 0.304592
O58   O     O_3   0.280392 0.333516 0.895275 -0.699649
H66   H     H_    0.332378 0.349102 0.948020 0.299033
O59   O     O_3   0.785844 0.162849 0.386558 -0.645162
H67   H     H_    0.836539 0.141851 0.396227 0.304332
O60   O     O_3   0.780318 0.833596 0.895241 -0.697964
H68   H     H_    0.832543 0.849655 0.945213 0.300518
C81   C     C_2   0.688290 0.350955 0.814800 0.526812
H69   H     H_    0.700962 0.357436 0.701416 0.018634
O61   O     O_2   0.656731 0.396539 0.870580 -0.625148
C82   C     C_2   0.701439 0.656722 0.288130 0.525545
H70   H     H_    0.717574 0.662872 0.178428 0.071972
O62   O     O_2   0.671043 0.602956 0.315404 -0.631955
C83   C     C_2   0.188367 0.851573 0.814046 0.527170
H71   H     H_    0.201376 0.857869 0.700998 0.020487
O63   O     O_2   0.156986 0.897481 0.869128 -0.622034
C84   C     C_2   0.201554 0.156588 0.289409 0.585248
H72   H     H_    0.217416 0.162405 0.179361 0.056230
O64   O     O_2   0.171431 0.102924 0.318164 -0.578448
O65   O     O_3   0.114095 0.613797 0.836350 -0.783984
H73   H     H_    0.069265 0.602662 0.877925 0.329950
O66   O     O_3   0.087570 0.367238 0.373383 -0.725696
H74   H     H_    0.054038 0.364317 0.447777 0.296557
O67   O     O_3   0.597997 0.119168 0.844344 -0.727893
H75   H     H_    0.625623 0.075442 0.861901 0.262253
O68   O     O_3   0.587000 0.867026 0.373626 -0.723365
H76   H     H_    0.553717 0.864111 0.448483 0.286503
C85   C     C_2   0.918929 0.370841 0.313816 0.416102
H77   H     H_    0.961111 0.365322 0.246332 0.095652
O69   O     O_2   0.926097 0.415575 0.414313 -0.556626
C86   C     C_2   0.928671 0.642414 0.809733 0.556662
H78   H     H_    0.978674 0.671073 0.794800 -0.140324
O70   O     O_2   0.934122 0.588521 0.883504 -0.562602
C87   C     C_2   0.418699 0.870931 0.314007 0.398204
H79   H     H_    0.460715 0.864785 0.246334 0.090257
O71   O     O_2   0.426422 0.915893 0.414123 -0.548758
C88   C     C_2   0.431718 0.144627 0.808268 0.563159
H80   H     H_    0.480865 0.175702 0.798319 -0.035021
O72   O     O_2   0.439407 0.089884 0.878725 -0.519772
C89   C     C_2   0.941365 0.183046 0.138025 0.411630
H81   H     H_    0.906137 0.162068 0.212350 -0.044975
O73   O     O_2   0.915938 0.227178 0.042374 -0.570201
C90   C     C_2   0.939816 0.804783 0.592750 0.375262
H82   H     H_    0.928857 0.760931 0.513146 0.084870
O74   O     O_2   0.887321 0.828235 0.641340 -0.597653
C91   C     C_2   0.440736 0.684299 0.135292 0.367196
H83   H     H_    0.405015 0.663605 0.208899 -0.049470
O75   O     O_2   0.415864 0.728505 0.039404 -0.550397
C92   C     C_2   0.439213 0.305609 0.593198 0.369312
H84   H     H_    0.428144 0.261431 0.514494 0.081468
O76   O     O_2   0.386881 0.329411 0.641706 -0.595936
O77   O     O_3   0.078301 0.055516 0.066627 -0.656620
H85   H     H_    0.054050 0.027893 0.973238 0.319495
O78   O     O_3   0.072289 0.946006 0.568582 -0.724212
H86   H     H_    0.048615 0.955779 0.457921 0.283825
O79   O     O_3   0.568309 0.556817 0.042299 -0.642393
H87   H     H_    0.605492 0.524126 0.101292 0.318075
O80   O     O_3   0.571519 0.445931 0.564839 -0.724689
H88   H     H_    0.545740 0.463544 0.460881 0.282413
C93   C     C_2   0.253932 0.459867 0.418986 0.519833
H89   H     H_    0.203623 0.480857 0.446751 -0.041044
O81   O     O_2   0.296215 0.422513 0.508474 -0.561861
C94   C     C_2   0.265876 0.544809 0.923497 0.440640
H90   H     H_    0.216750 0.522032 0.956396 0.021852
O82   O     O_2   0.308595 0.585765 0.008342 -0.650686
C95   C     C_2   0.754571 0.960150 0.420798 0.521591
H91   H     H_    0.705438 0.982689 0.450421 -0.030083
O83   O     O_2   0.796238 0.921853 0.509108 -0.560775
C96   C     C_2   0.769893 0.043464 0.926862 0.391161
H92   H     H_    0.726383 0.015150 0.967086 -0.023397
O84   O     O_2   0.808700 0.088480 0.006591 -0.646514
C97   C     C_2   0.213711 0.424395 0.156844 0.422028
H93   H     H_    0.238327 0.385939 0.097092 0.118763
O85   O     O_2   0.145291 0.422155 0.149835 -0.513282
C98   C     C_2   0.223126 0.576147 0.660523 0.449173
H94   H     H_    0.164060 0.563571 0.612831 0.094643
O86   O     O_2   0.245897 0.634765 0.644247 -0.552756
C99   C     C_2   0.713227 0.923691 0.159575 0.428515
H95   H     H_    0.737411 0.885049 0.099308 0.121140
O87   O     O_2   0.644811 0.922153 0.152457 -0.514181
C100  C     C_2   0.721948 0.077334 0.665576 0.384557
H96   H     H_    0.662556 0.065042 0.619951 0.071736
O88   O     O_2   0.744663 0.135924 0.649008 -0.551999

loop_
_geom_bond_atom_site_label_1
_geom_bond_atom_site_label_2
_geom_bond_distance
_ccdc_geom_bond_type
C87   O71   1.218162 D    
P7    O48   1.665922 S    
C30   H46   1.096831 S    
P8    O47   1.636455 S    
C15   C95   1.450974 S    
O58   H66   0.984786 S    
C2    H10   1.107147 S    
C22   H34   1.108016 S    
O1    Ba1   2.970224 S    
C75   O51   1.219916 D    
C94   H90   1.072043 S    
C5    C89   1.498337 S    
C12   H18   1.111285 S    
C24   C28   1.532658 S    
C19   H23   1.112546 S    
C12   O80   1.403444 S    
C71   C81   1.445340 S    
C73   O49   1.220002 D    
C35   O67   1.372832 S    
C12   H54   1.105437 S    
O15   P16   1.548414 D    
Ba2   O45   3.106002 S    
C19   H27   1.106283 S    
O42   C6    1.404588 S    
O23   C31   1.400118 S    
C95   O83   1.213558 D    
O24   C32   1.392031 S    
P4    O8    1.660491 S    
C29   H45   1.110226 S    
P9    O41   1.758396 S    
O67   H75   0.981431 S    
P11   O43   1.755610 S    
C5    C9    1.551380 S    
C56   C58   1.470907 A    
O38   C13   1.392219 S    
C41   C45   1.412325 A    
C84   O64   1.210134 D    
C41   C59   1.429474 A    
C42   C60   1.427461 A    
C17   H25   1.106701 S    
C24   H36   1.106642 S    
C76   H60   1.078386 S    
C43   C47   1.412054 A    
O14   P13   1.539382 D    
C79   H63   1.081924 S    
Ba3   O48   3.100122 S    
P12   O44   1.756052 S    
O60   H68   0.984986 S    
O10   P13   1.750843 S    
C82   O62   1.210172 D    
O2    Ba2   3.009680 S    
C98   H94   1.071195 S    
C20   H28   1.107854 S    
C92   O76   1.211016 D    
C4    H12   1.106115 S    
Ba1   O45   2.922025 S    
C55   C69   1.421541 A    
C53   C71   1.421533 A    
C11   O79   1.406966 S    
C14   C98   1.482081 S    
C4    C32   1.513179 S    
C21   C25   1.510361 S    
O39   C16   1.402461 S    
P10   O42   1.756501 S    
H4    C32   1.110570 S    
P3    O7    1.631355 S    
C4    H50   1.097586 S    
C78   H62   1.079986 S    
C18   H26   1.108080 S    
C74   O50   1.210040 D    
C16   C96   1.460493 S    
C5    H13   1.089689 S    
C7    H15   1.089755 S    
P1    Ba1   3.586815 S    
C86   H78   1.076045 S    
O20   C24   1.390843 S    
O22   P13   1.724106 S    
C39   C51   1.404845 A    
C25   H37   1.104902 S    
P1    C49   1.953488 S    
C85   H77   1.066270 S    
O57   H65   0.988717 S    
O16   P15   1.540089 D    
C33   C61   1.428303 A    
C34   C66   1.389840 A    
C89   H81   1.078266 S    
C19   C75   1.487716 S    
C16   C20   1.555614 S    
P9    O29   1.758808 S    
C28   H44   1.108475 S    
C23   H35   1.100306 S    
O65   H73   0.974041 S    
C35   C63   1.427362 A    
P10   C65   1.905640 S    
O28   Ba4   2.973607 S    
P12   O32   1.746590 S    
C80   O56   1.215976 D    
C72   C82   1.449641 S    
C42   O60   1.362047 S    
Ba3   Ba4   4.844489 S    
C49   C53   1.472866 A    
C3    H11   1.108016 S    
C22   H30   1.109980 S    
C18   C74   1.484938 S    
C37   C45   1.386978 A    
P5    O25   1.607247 D    
O79   H87   0.987509 S    
P14   C45   1.880398 S    
H3    C31   1.108965 S    
O24   P15   1.726164 S    
C81   H69   1.077302 S    
P5    Ba1   3.606974 S    
O77   H85   0.988660 S    
C100  O88   1.212845 D    
Ba4   O47   3.106002 S    
C1    H51   1.107878 S    
C2    H52   1.097408 S    
P9    C66   1.913375 S    
C1    C29   1.517946 S    
C54   C72   1.434686 A    
P2    Ba2   3.604406 S    
O31   Ba3   2.935481 S    
P12   C67   1.904097 S    
C17   C73   1.487359 S    
P2    O18   1.745590 S    
C97   H93   1.065478 S    
C27   H39   1.104742 S    
O10   Ba2   2.936207 S    
O80   H88   0.992043 S    
H1    C29   1.109157 S    
C41   O59   1.361445 S    
C77   H61   1.082034 S    
C70   C84   1.447668 S    
C39   C87   1.446172 S    
P13   C46   1.897884 S    
C42   C46   1.418042 A    
P16   C47   1.880704 S    
P5    O37   1.762339 S    
O3    Ba3   2.970224 S    
C40   C48   1.393260 A    
C44   O58   1.361604 S    
C17   H21   1.112485 S    
C24   H32   1.109685 S    
C8    H16   1.103871 S    
O17   C21   1.404147 S    
C91   H83   1.077969 S    
C11   H53   1.110717 S    
C93   O81   1.213036 D    
O19   C23   1.403416 S    
C9    H55   1.105440 S    
O9    P14   1.755781 S    
C94   O82   1.219054 D    
C88   H80   1.074817 S    
C37   C85   1.446161 S    
C10   O78   1.403005 S    
C10   H20   1.110651 S    
C20   H24   1.111422 S    
C7    C91   1.499967 S    
C13   C17   1.551382 S    
C73   H57   1.077845 S    
C67   C71   1.406408 A    
C15   C19   1.552804 S    
O25   Ba1   3.013457 S    
Ba2   O46   2.965560 S    
O7    Ba4   2.922069 S    
C6    C90   1.489827 S    
C27   C79   1.480002 S    
O78   H86   0.991328 S    
C8    C12   1.555680 S    
C21   H33   1.098108 S    
P4    Ba4   3.604406 S    
P1    O1    1.608225 D    
C68   C72   1.409527 A    
P6    O38   1.753431 S    
P3    O3    1.608225 D    
P4    O20   1.746747 S    
C76   O52   1.210425 D    
C18   H22   1.110939 S    
O66   H74   0.982471 S    
C96   H92   1.066179 S    
C58   C62   1.484241 A    
O11   Ba3   2.916017 S    
Ba3   O47   2.922025 S    
C7    C11   1.551846 S    
O18   C22   1.390794 S    
C8    C92   1.489058 S    
C83   H71   1.076552 S    
O41   C5    1.412163 S    
C39   C47   1.386874 A    
C50   C54   1.485675 A    
O32   Ba4   2.915339 S    
C32   H48   1.097057 S    
C28   H40   1.107751 S    
C98   O86   1.213198 D    
C6    C10   1.556043 S    
C34   C62   1.407768 A    
C14   C18   1.554396 S    
O37   C14   1.399838 S    
P9    O33   1.542039 D    
O26   Ba2   2.973607 S    
C23   C27   1.509672 S    
P10   O30   1.751246 S    
C35   C67   1.402649 A    
P11   O35   1.541799 D    
C36   C68   1.390521 A    
P8    C63   1.952027 S    
O9    Ba1   2.916017 S    
P12   O36   1.539877 D    
C53   C59   1.459028 A    
C99   H95   1.066533 S    
C59   C63   1.474757 A    
C37   C49   1.405084 A    
C95   H91   1.071957 S    
C38   C46   1.391733 A    
C15   C99   1.482879 S    
P6    O26   1.607518 D    
P1    O5    1.631355 S    
P15   C48   1.897081 S    
P8    O40   1.755927 S    
C9    H19   1.111885 S    
P3    C51   1.950599 S    
C11   H17   1.107979 S    
C78   O54   1.216659 D    
O12   Ba4   2.936207 S    
C44   C58   1.426830 A    
C36   O68   1.349854 S    
C86   O70   1.219845 D    
O11   P16   1.757551 S    
C84   H72   1.072647 S    
C2    C30   1.511844 S    
C27   H43   1.107278 S    
O21   C29   1.399732 S    
C25   H41   1.108467 S    
O8    Ba3   2.965600 S    
Ba1   Ba2   4.844489 S    
C6    H14   1.104215 S    
C13   C93   1.452610 S    
H2    C30   1.110592 S    
C1    H9    1.098220 S    
C4    H6    1.105608 S    
C81   O61   1.214395 D    
C22   C26   1.531787 S    
P6    O45   1.636455 S    
C91   O75   1.219368 D    
C13   C97   1.480501 S    
P8    Ba4   3.588991 S    
C82   H70   1.072664 S    
C40   C52   1.412607 A    
C9    O77   1.406215 S    
C34   O66   1.350059 S    
P6    C61   1.960126 S    
C44   C48   1.419117 A    
C90   O74   1.211258 D    
P4    C52   1.962218 S    
C92   H84   1.083466 S    
C3    H49   1.100392 S    
C69   C83   1.446607 S    
C3    C31   1.518211 S    
Ba1   O46   3.100122 S    
O29   Ba1   2.935481 S    
C75   H59   1.077386 S    
P1    O17   1.753808 S    
C40   C88   1.460275 S    
P3    O19   1.752835 S    
P4    O4    1.607960 D    
C31   H47   1.110450 S    
P5    O46   1.665922 S    
C1    H7    1.099849 S    
C2    H8    1.105382 S    
C3    H5    1.098664 S    
Ba4   O48   2.965560 S    
C79   O55   1.214918 D    
P5    C62   1.987308 S    
P6    Ba2   3.588991 S    
O40   C15   1.394786 S    
C33   O65   1.368051 S    
C43   O57   1.360587 S    
C38   C86   1.452972 S    
C74   H58   1.078620 S    
O13   P14   1.548534 D    
C25   C77   1.480720 S    
C96   O84   1.218759 D    
C21   H29   1.104127 S    
C10   H56   1.105300 S    
C83   O63   1.214089 D    
P2    O2    1.607960 D    
O4    Ba4   3.009680 S    
P7    O39   1.765233 S    
C28   C80   1.494112 S    
C85   O69   1.218051 D    
C14   C94   1.460808 S    
C89   O73   1.219375 D    
C57   C61   1.474465 A    
C90   H82   1.083286 S    
C51   C55   1.470891 A    
P3    Ba3   3.586815 S    
C93   H89   1.071715 S    
C60   C64   1.482657 A    
O27   Ba3   3.013457 S    
O30   Ba2   2.915339 S    
C26   H38   1.108743 S    
C88   O72   1.219344 D    
C65   C69   1.405686 A    
C20   C76   1.486796 S    
C52   C56   1.487367 A    
O59   H67   0.988661 S    
O44   C8    1.404450 S    
C99   O87   1.213557 D    
P7    Ba3   3.606974 S    
P10   O34   1.539998 D    
O12   P15   1.748172 S    
P11   O31   1.756482 S    
C36   C64   1.407588 A    
C87   H79   1.066424 S    
P2    O6    1.660491 S    
C56   C70   1.434883 A    
O5    Ba2   2.922069 S    
P7    O27   1.607247 D    
P8    O28   1.607518 D    
C100  H96   1.072392 S    
C16   C100  1.485463 S    
O68   H76   0.982353 S    
C38   C50   1.409840 A    
O23   P16   1.731336 S    
O21   P14   1.730300 S    
C97   O85   1.213920 D    
P2    C50   1.963417 S    
O43   C7    1.411464 S    
C80   H64   1.079621 S    
C43   C57   1.428579 A    
C77   O53   1.215033 D    
C26   C78   1.491136 S    
C33   C65   1.400882 A    
C66   C70   1.410163 A    
O6    Ba1   2.965600 S    
C23   H31   1.104802 S    
P7    C64   1.986742 S    
O22   C30   1.390988 S    
C26   H42   1.107534 S    
C54   C60   1.472013 A    
P11   C68   1.912136 S    
C55   C57   1.459250 A    
