data_mof_unit_31787.cif
_audit_creation_date              2012-12-10T18:39:53-0500
_audit_creation_method            fapswitch 2.2
_symmetry_space_group_name_H-M    P1
_symmetry_Int_Tables_number       1
_space_group_crystal_system       triclinic
_cell_length_a                    15.207609
_cell_length_b                    13.837065
_cell_length_c                    23.520205
_cell_angle_alpha                 90.018083
_cell_angle_beta                  90.34294
_cell_angle_gamma                 90.000897
_cell_volume                      4949.23665294

loop_
_atom_site_label
_atom_site_type_symbol
_atom_type_description
_atom_site_fract_x
_atom_site_fract_y
_atom_site_fract_z
_atom_type_partial_charge
C1    C     C_R   0.329709 0.499904 0.500127 0.925568
C2    C     C_R   0.670289 0.499905 0.499885 0.925994
C3    C     C_R   0.500845 0.412173 0.238865 -0.179279
C4    C     C_R   0.496751 0.412936 0.761141 -0.193962
C5    C     C_R   0.501268 0.412239 0.298104 -0.220280
C6    C     C_R   0.496640 0.412729 0.701945 -0.218221
C7    C     C_R   0.499903 0.499918 0.328237 -0.091616
C8    C     C_R   0.499659 0.500181 0.671774 -0.077756
C9    C     C_R   0.498471 0.587546 0.298055 -0.301734
C10   C     C_R   0.502468 0.587910 0.701857 -0.332811
C11   C     C_R   0.499503 0.587705 0.238577 0.486752
C12   C     C_R   0.500405 0.588640 0.761633 0.491868
C13   C     C_R   0.499368 0.499534 0.208912 0.272587
C14   C     C_R   0.499087 0.500349 0.791030 0.304155
C15   C     C_R   0.093738 0.575594 0.475468 0.354819
C16   C     C_R   0.904892 0.419738 0.476163 0.344514
C17   C     C_R   0.906249 0.575529 0.524692 0.354979
C18   C     C_R   0.095107 0.419685 0.523806 0.344780
C19   C     C_R   0.185427 0.579990 0.479796 0.273958
C20   C     C_R   0.813039 0.417293 0.479676 0.255191
C21   C     C_R   0.814560 0.579939 0.520348 0.273579
C22   C     C_R   0.186959 0.417250 0.520279 0.254863
C23   C     C_R   0.232893 0.499186 0.500131 -0.376800
C24   C     C_R   0.767102 0.499187 0.499904 -0.376601
C25   C     C_R   0.048282 0.497227 0.499597 -0.157022
C26   C     C_R   0.951711 0.497222 0.500470 -0.156936
C27   C     C_R   0.499888 0.499980 0.390832 0.824200
C28   C     C_R   0.500095 0.500025 0.609170 0.823580
C29   C     C_R   0.528563 0.107909 0.547796 -0.298242
C30   C     C_R   0.444283 0.891791 0.463466 -0.289113
C31   C     C_R   0.471397 0.107845 0.452230 -0.297130
C32   C     C_R   0.555647 0.891828 0.536586 -0.291950
C33   C     C_R   0.529168 0.209344 0.546610 0.064146
C34   C     C_R   0.446057 0.790320 0.463720 0.067825
C35   C     C_R   0.470819 0.209284 0.453399 0.064718
C36   C     C_R   0.553899 0.790356 0.536310 0.063853
C37   C     C_R   0.499974 0.054560 0.500018 0.133986
C38   C     C_R   0.499968 0.945121 0.500024 0.142692
C39   C     C_R   0.573785 0.473206 0.880637 0.556102
C40   C     C_R   0.424029 0.524798 0.119258 0.589484
C41   C     C_R   0.423861 0.525114 0.880157 0.560142
C42   C     C_R   0.573839 0.472513 0.119755 0.510572
C43   C     C_R   0.422442 0.525970 0.939771 -0.022343
C44   C     C_R   0.575385 0.472113 0.060137 -0.011003
C45   C     C_R   0.498934 0.499210 0.969953 -0.016148
C46   C     C_R   0.498958 0.499077 0.029954 -0.018379
C47   C     C_R   0.575361 0.472436 0.940277 -0.021907
C48   C     C_R   0.422516 0.525774 0.059626 -0.034410
C49   C     C_R   0.346622 0.552638 0.969781 -0.173215
C50   C     C_R   0.651280 0.445704 0.030122 -0.167507
C51   C     C_R   0.346659 0.552543 0.029100 -0.165631
C52   C     C_R   0.651270 0.445866 0.970804 -0.167774
Cu1   Cu    Cu3+1 0.500000 0.596430 0.500000 0.947423
Cu2   Cu    Cu3+1 0.500000 0.403570 0.500000 0.957933
H1    H     H_    0.287035 0.573634 0.947561 0.185080
H2    H     H_    0.710896 0.424798 0.052338 0.186395
H3    H     H_    0.552896 0.248256 0.583447 0.119894
H4    H     H_    0.403435 0.750578 0.435115 0.156243
H5    H     H_    0.447097 0.248152 0.416559 0.118784
H6    H     H_    0.596501 0.750640 0.564924 0.155013
H7    H     H_    0.287089 0.573445 0.050914 0.186300
H8    H     H_    0.710875 0.425080 0.948990 0.186536
H9    H     H_    0.501367 0.344141 0.216104 0.159519
H10   H     H_    0.494811 0.345028 0.783969 0.156503
H11   H     H_    0.502415 0.343637 0.320241 0.163168
H12   H     H_    0.494488 0.344073 0.679865 0.162857
H13   H     H_    0.496797 0.656032 0.320349 0.169726
H14   H     H_    0.507221 0.655562 0.679012 0.157481
H15   H     H_    0.549595 0.072398 0.586458 0.130712
H16   H     H_    0.398474 0.927432 0.435148 0.126990
H17   H     H_    0.450353 0.072281 0.413575 0.131721
H18   H     H_    0.601436 0.927497 0.564919 0.126481
N1    N     N_R   0.498859 0.499367 0.851984 -0.445715
N2    N     N_R   0.498974 0.498680 0.147938 -0.454085
N3    N     N_R   0.500000 0.258690 0.500000 -0.166087
N4    N     N_R   0.500000 0.741310 0.500000 -0.182939
O1    O     O_R   0.371460 0.581430 0.500000 -0.569748
O2    O     O_R   0.628540 0.418570 0.500000 -0.555713
O3    O     O_R   0.628540 0.581430 0.500000 -0.569739
O4    O     O_R   0.371460 0.418570 0.500000 -0.556044
O5    O     O_R   0.499970 0.581450 0.417880 -0.595341
O6    O     O_R   0.500030 0.418550 0.582120 -0.599691
O7    O     O_R   0.500030 0.581450 0.582120 -0.595419
O8    O     O_R   0.499970 0.418550 0.417880 -0.598691
O9    O     O_2   0.646569 0.448615 0.851454 -0.541222
O10   O     O_2   0.351184 0.549263 0.148416 -0.525042
O11   O     O_2   0.350868 0.549284 0.850516 -0.564779
O12   O     O_2   0.646663 0.447713 0.149394 -0.557127
O13   O     O_3   0.496203 0.674020 0.209198 -0.593446
C53   C     C_3   0.582652 0.709766 0.203750 0.026856
H19   H     H_    0.626595 0.654811 0.183950 0.164593
H20   H     H_    0.609567 0.730512 0.246209 0.139181
C54   C     C_3   0.580862 0.799047 0.165599 -0.303447
H21   H     H_    0.553357 0.779149 0.123277 0.229190
H22   H     H_    0.537740 0.854953 0.184801 0.227244
C55   C     C_3   0.672834 0.840924 0.157837 -0.913789
H23   H     H_    0.701121 0.862681 0.199573 0.255438
H24   H     H_    0.669201 0.905640 0.130022 0.261246
H25   H     H_    0.716621 0.786786 0.137626 0.262388
O14   O     O_3   0.506627 0.673695 0.792635 -0.606011
C56   C     C_3   0.439946 0.739323 0.776136 0.058423
H26   H     H_    0.376302 0.701961 0.766962 0.163309
H27   H     H_    0.461144 0.780067 0.737834 0.134906
C57   C     C_3   0.425051 0.810956 0.824568 -0.293932
H28   H     H_    0.404755 0.770936 0.863328 0.236448
H29   H     H_    0.487470 0.849674 0.834120 0.224137
C58   C     C_3   0.354118 0.884631 0.809226 -0.923547
H30   H     H_    0.373687 0.926526 0.771054 0.253634
H31   H     H_    0.345059 0.935552 0.845213 0.261661
H32   H     H_    0.290600 0.847596 0.800632 0.261989
O15   O     O_3   0.049154 0.653044 0.451647 -0.520907
C59   C     C_3   0.027464 0.631041 0.394682 0.097656
H33   H     H_    0.971720 0.579212 0.393136 0.109245
H34   H     H_    0.084632 0.600617 0.371133 0.145206
C60   C     C_3   0.998402 0.722975 0.364580 -0.778435
H35   H     H_    0.053457 0.775611 0.363479 0.249578
H36   H     H_    0.978133 0.705922 0.320265 0.200209
H37   H     H_    0.941847 0.755815 0.387149 0.236223
O16   O     O_3   0.948649 0.341920 0.452500 -0.527477
C61   C     C_3   0.962502 0.359806 0.394231 0.097867
H38   H     H_    0.014097 0.415835 0.388749 0.107729
H39   H     H_    0.900862 0.382963 0.372187 0.154262
C62   C     C_3   0.994587 0.267376 0.366241 -0.767585
H40   H     H_    0.944339 0.209655 0.370732 0.252219
H41   H     H_    0.006474 0.280404 0.320342 0.199486
H42   H     H_    0.056916 0.243240 0.386617 0.234028
O17   O     O_3   0.950825 0.652918 0.548620 -0.520899
C63   C     C_3   0.972555 0.630740 0.605546 0.097532
H43   H     H_    0.028301 0.578909 0.607004 0.109744
H44   H     H_    0.915401 0.600240 0.629066 0.144609
C64   C     C_3   0.001641 0.722581 0.635773 -0.779013
H45   H     H_    0.946586 0.775209 0.636971 0.248763
H46   H     H_    0.021947 0.705390 0.680056 0.200910
H47   H     H_    0.058175 0.755498 0.613232 0.236714
O18   O     O_3   0.051359 0.341805 0.547379 -0.527396
C65   C     C_3   0.037430 0.359592 0.605658 0.097455
H48   H     H_    0.985771 0.415547 0.611165 0.108459
H49   H     H_    0.099023 0.382797 0.627748 0.153157
C66   C     C_3   0.005408 0.267082 0.633555 -0.767586
H50   H     H_    0.055720 0.209432 0.629038 0.251462
H51   H     H_    0.993457 0.280033 0.679459 0.199979
H52   H     H_    0.943125 0.242894 0.613129 0.234791
O19   O     O_3   0.228456 0.661049 0.459569 -0.551224
C67   C     C_3   0.220907 0.737627 0.499375 0.154778
H53   H     H_    0.283471 0.743678 0.523696 0.147621
H54   H     H_    0.166869 0.728704 0.530919 0.139911
C68   C     C_3   0.205013 0.832027 0.467772 -0.783005
H55   H     H_    0.138374 0.831735 0.448318 0.270560
H56   H     H_    0.209847 0.893747 0.497826 0.191800
H57   H     H_    0.254411 0.841481 0.433709 0.233909
O20   O     O_3   0.768283 0.339030 0.456917 -0.539391
C69   C     C_3   0.771220 0.261556 0.496119 0.147960
H58   H     H_    0.731630 0.278944 0.534434 0.130300
H59   H     H_    0.839586 0.244137 0.509918 0.172521
C70   C     C_3   0.732881 0.171753 0.468105 -0.770618
H60   H     H_    0.774522 0.149625 0.431718 0.243062
H61   H     H_    0.730302 0.111620 0.499322 0.190167
H62   H     H_    0.665375 0.186788 0.452307 0.264466
O21   O     O_3   0.771515 0.660926 0.540688 -0.552031
C71   C     C_3   0.779140 0.737660 0.501021 0.154984
H63   H     H_    0.716645 0.743759 0.476632 0.148312
H64   H     H_    0.833277 0.728895 0.469530 0.140048
C72   C     C_3   0.794892 0.831949 0.532803 -0.783720
H65   H     H_    0.861476 0.831626 0.552337 0.270403
H66   H     H_    0.790114 0.893782 0.502848 0.192331
H67   H     H_    0.745392 0.841240 0.566823 0.233106
O22   O     O_3   0.231717 0.338959 0.542972 -0.540041
C73   C     C_3   0.228785 0.261532 0.503709 0.148492
H68   H     H_    0.268451 0.278935 0.465437 0.129760
H69   H     H_    0.160431 0.244184 0.489847 0.172537
C74   C     C_3   0.267013 0.171665 0.531682 -0.773300
H70   H     H_    0.225294 0.149532 0.568023 0.242710
H71   H     H_    0.269599 0.111564 0.500422 0.190490
H72   H     H_    0.334504 0.186626 0.547539 0.264130

loop_
_geom_bond_atom_site_label_1
_geom_bond_atom_site_label_2
_ccdc_geom_bond_type
C74   H70   S    
C54   H21   S    
C70   H61   S    
C1    O1    A    
Cu1   O1    S    
C68   H55   S    
C51   H7    S    
C64   H47   S    
C63   H43   S    
C57   H29   S    
O18   C65   S    
C32   H18   S    
C64   H46   S    
C45   C46   A    
C15   C19   A    
C74   H71   S    
C35   N3    A    
C56   H26   S    
C53   C54   S    
C17   C26   A    
C32   C36   A    
Cu1   O5    S    
C27   O8    A    
C72   H66   S    
C65   C66   S    
C66   H52   S    
C62   H41   S    
O19   C67   S    
C55   H25   S    
C29   C33   A    
C11   C13   A    
C7    C27   S    
C30   C38   A    
C35   H5    S    
C40   O10   S    
C57   H28   S    
C2    O3    A    
C36   N4    A    
C33   N3    A    
C48   C51   A    
C20   C24   A    
C44   C46   A    
C60   H36   S    
C55   H24   S    
C50   C52   A    
C58   H30   S    
O17   C63   S    
C32   C38   A    
C41   C43   A    
C29   H15   S    
C3    C13   A    
C61   C62   S    
C31   H17   S    
O20   C69   S    
C56   H27   S    
C28   O7    A    
C21   O21   S    
C18   C25   A    
C42   C44   A    
C67   C68   S    
Cu2   O8    S    
C59   H33   S    
C30   H16   S    
C61   H39   S    
Cu2   O4    S    
C45   C47   A    
C16   C26   A    
C41   O11   S    
C74   H72   S    
C46   C48   A    
C42   N2    A    
C30   C34   A    
C28   O6    A    
C71   C72   S    
C15   O15   S    
C62   H40   S    
C72   H67   S    
C5    H11   S    
C16   O16   S    
O22   C73   S    
C5    C7    A    
C17   O17   S    
C62   H42   S    
C6    C8    A    
C49   C51   A    
C25   C26   S    
C49   H1    S    
C50   H2    S    
C31   C37   A    
C71   H64   S    
C19   C23   A    
C9    H13   S    
C37   C38   S    
C2    O2    A    
C43   C45   A    
C14   N1    S    
C11   O13   S    
C53   H20   S    
O21   C71   S    
C69   C70   S    
C27   O5    A    
C16   C20   A    
C60   H37   S    
C55   H23   S    
C68   H57   S    
C18   O18   S    
C69   H58   S    
C9    C11   A    
C57   C58   S    
C10   C12   A    
C59   H34   S    
C67   H54   S    
C73   H68   S    
C36   H6    S    
C12   C14   A    
C1    C23   S    
C56   C57   S    
C3    H9    S    
C2    C24   S    
C8    C28   S    
C58   H32   S    
C31   C35   A    
C4    C6    A    
C42   O12   S    
C22   O22   S    
C64   H45   S    
C63   C64   S    
Cu2   O6    S    
C61   H38   S    
C66   H50   S    
C65   H49   S    
C39   C47   A    
C44   C50   A    
C40   C48   A    
C33   H3    S    
O15   C59   S    
Cu1   O3    S    
C18   C22   A    
C8    C10   A    
C43   C49   A    
C69   H59   S    
C67   H53   S    
C3    C5    A    
C63   H44   S    
O16   C61   S    
Cu1   Cu2   S    
C47   C52   A    
C10   H14   S    
C54   C55   S    
C68   H56   S    
C4    H10   S    
C20   O20   S    
Cu1   O7    S    
C71   H63   S    
C52   H8    S    
C66   H51   S    
C53   H19   S    
C58   H31   S    
C73   H69   S    
O14   C56   S    
C40   N2    A    
C39   N1    A    
C4    C14   A    
C19   O19   S    
C12   O14   S    
C72   H65   S    
C15   C25   A    
C41   N1    A    
Cu2   N3    S    
Cu1   N4    S    
C7    C9    A    
C6    H12   S    
C13   N2    S    
C54   H22   S    
C21   C24   A    
C29   C37   A    
C70   H60   S    
C34   H4    S    
C1    O4    A    
C39   O9    S    
C22   C23   A    
C65   H48   S    
C73   C74   S    
Cu2   O2    S    
O13   C53   S    
C59   C60   S    
C60   H35   S    
C34   N4    A    
C70   H62   S    
C17   C21   A    
