data_mof_unit_50284.cif
_audit_creation_date              2012-12-10T17:36:22-0500
_audit_creation_method            fapswitch 2.2
_symmetry_space_group_name_H-M    P1
_symmetry_Int_Tables_number       1
_space_group_crystal_system       triclinic
_cell_length_a                    12.335245
_cell_length_b                    13.130059
_cell_length_c                    15.843136
_cell_angle_alpha                 78.574331
_cell_angle_beta                  101.273494
_cell_angle_gamma                 116.529553
_cell_volume                      2233.49221342

loop_
_atom_site_label
_atom_site_type_symbol
_atom_type_description
_atom_site_fract_x
_atom_site_fract_y
_atom_site_fract_z
_atom_type_partial_charge
C1    C     C_R   0.854951 0.286323 0.507879 0.830446
C2    C     C_3   0.034458 0.407623 0.068960 -0.342686
C3    C     C_3   0.006300 0.506529 0.083005 0.243245
C4    C     C_3   0.104251 0.623650 0.045189 0.346431
C5    C     C_3   0.103211 0.622414 0.946888 -0.382825
C6    C     C_1   0.004048 0.503736 0.175266 -0.080729
C7    C     C_1   0.003515 0.505989 0.824684 -0.091202
C8    C     C_1   0.001647 0.503739 0.749087 -0.179633
C9    C     C_R   0.278843 0.014985 0.378020 -0.177591
C10   C     C_R   0.227597 0.834481 0.470610 -0.043554
C11   C     C_R   0.813779 0.089913 0.576545 -0.196741
C12   C     C_R   0.000230 0.500795 0.659556 0.812735
C13   C     C_R   0.732836 0.978491 0.601791 -0.146041
C14   C     C_R   0.609833 0.939853 0.569996 -0.161531
C15   C     C_R   0.565912 0.010535 0.507405 0.040422
C16   C     C_R   0.652073 0.119321 0.473350 0.019029
C17   C     C_R   0.439817 0.975792 0.476100 0.069573
C18   C     C_R   0.402760 0.047519 0.409409 0.108357
C19   C     C_R   0.489994 0.146583 0.369960 -0.250991
C20   C     C_R   0.613424 0.178966 0.397803 0.247417
C21   C     C_R   0.349178 0.870623 0.507429 -0.234398
C22   C     C_R   0.191534 0.908478 0.408171 -0.199450
C23   C     C_R   0.145013 0.713417 0.487994 0.777201
C24   C     C_R   0.773904 0.162827 0.515269 -0.075329
C25   C     C_R   0.346808 0.328715 0.636252 -0.300503
C26   C     C_R   0.759146 0.645063 0.384163 0.099617
C27   C     C_R   0.662421 0.676364 0.358857 -0.249703
C28   C     C_R   0.559068 0.621588 0.402263 -0.185605
C29   C     C_R   0.551203 0.534324 0.472150 -0.006372
C30   C     C_R   0.652990 0.505323 0.495909 0.296016
C31   C     C_R   0.446876 0.475063 0.519438 -0.036626
C32   C     C_R   0.446735 0.388306 0.588823 0.176948
C33   C     C_R   0.546482 0.361613 0.610958 -0.286241
C34   C     C_R   0.001324 0.501428 0.340429 0.865417
C35   C     C_R   0.647252 0.419067 0.565976 -0.179804
C36   C     C_R   0.341903 0.497678 0.501461 0.026721
C37   C     C_R   0.246933 0.355181 0.615367 0.075474
C38   C     C_3   0.034476 0.408407 0.971170 -0.388233
C39   C     C_3   0.878851 0.490276 0.935025 -0.402280
C40   C     C_3   0.879430 0.489771 0.032859 -0.454418
C41   C     C_1   0.002726 0.502299 0.250879 -0.143291
C42   C     C_3   0.005088 0.506972 0.917071 0.263801
Cu1   Cu    Cu3+1 0.098280 0.475420 0.519630 0.938830
Cu2   Cu    Cu3+1 0.901720 0.524580 0.480370 0.952968
H1    H     H_    0.964731 0.323613 0.095167 0.167880
H2    H     H_    0.125368 0.419083 0.959679 0.173438
H3    H     H_    0.124697 0.416348 0.104717 0.196874
H4    H     H_    0.078109 0.693542 0.049727 0.046162
H5    H     H_    0.097466 0.881344 0.378978 0.143392
H6    H     H_    0.462426 0.195094 0.313244 0.174332
H7    H     H_    0.250241 0.069500 0.327010 0.135164
H8    H     H_    0.370423 0.812265 0.558287 0.141623
H9    H     H_    0.906912 0.120610 0.608113 0.145726
H10   H     H_    0.552526 0.853549 0.595058 0.125877
H11   H     H_    0.764633 0.923190 0.649451 0.137605
H12   H     H_    0.965658 0.324403 0.950758 0.164445
H13   H     H_    0.169489 0.309491 0.651714 0.118781
H14   H     H_    0.547094 0.295629 0.664223 0.149834
H15   H     H_    0.346096 0.262176 0.689300 0.134246
H16   H     H_    0.334061 0.562071 0.449923 0.121765
H17   H     H_    0.838905 0.688134 0.350042 0.117734
H18   H     H_    0.486999 0.649255 0.379845 0.131312
H19   H     H_    0.667552 0.743345 0.305348 0.145029
H20   H     H_    0.718872 0.392763 0.589154 0.200978
H21   H     H_    0.855974 0.560515 0.896986 0.171137
H22   H     H_    0.806689 0.407892 0.914055 0.178419
H23   H     H_    0.807636 0.407018 0.058822 0.207555
H24   H     H_    0.856315 0.559463 0.041819 0.166507
H25   H     H_    0.194563 0.636265 0.933739 0.191010
H26   H     H_    0.084327 0.694672 0.908334 0.119211
N1    N     N_R   0.246300 0.438200 0.549400 -0.179721
N2    N     N_R   0.754300 0.561180 0.451130 -0.199084
O1    O     O_R   0.972520 0.318130 0.524690 -0.584276
O2    O     O_R   0.806530 0.359650 0.491530 -0.573157
O3    O     O_R   0.083030 0.479240 0.637150 -0.578708
O4    O     O_R   0.917040 0.520750 0.603990 -0.597184
O5    O     O_R   0.193470 0.640350 0.508470 -0.589742
O6    O     O_R   0.027480 0.681870 0.475310 -0.592456
O7    O     O_R   0.082960 0.479250 0.396010 -0.583132
O8    O     O_R   0.916970 0.520760 0.362850 -0.550322
Br1   Br    Br    0.720015 0.281289 0.314474 -0.557912
O9    O     O_3   0.222767 0.642213 0.088784 -0.610582
C43   C     C_3   0.262674 0.719845 0.150923 0.059453
H27   H     H_    0.322914 0.694799 0.204140 0.166680
H28   H     H_    0.186915 0.716230 0.181599 0.116852
C44   C     C_3   0.336242 0.842540 0.110442 -0.372980
H29   H     H_    0.414405 0.845889 0.083182 0.229819
H30   H     H_    0.277521 0.868986 0.056798 0.206224
C45   C     C_3   0.384656 0.926445 0.177700 -0.887594
H31   H     H_    0.307816 0.925976 0.204749 0.253124
H32   H     H_    0.437748 0.014579 0.146700 0.263704
H33   H     H_    0.445409 0.902901 0.231404 0.260089

loop_
_geom_bond_atom_site_label_1
_geom_bond_atom_site_label_2
_ccdc_geom_bond_type
Cu1   O1    S    
C5    C42   S    
C33   H14   S    
C26   N2    A    
C19   C20   A    
C9    H7    S    
C3    C6    S    
C7    C8    T    
C10   C22   A    
C26   C27   A    
C5    H26   S    
C30   C35   A    
C1    O2    A    
C28   C29   A    
C26   H17   S    
C38   C42   S    
C44   H30   S    
C9    C22   A    
Cu1   O7    S    
C15   C16   A    
C11   C24   A    
C18   C19   A    
C7    C42   S    
Cu2   O4    S    
C5    H25   S    
C34   O8    A    
C43   H27   S    
C6    C41   T    
C35   H20   S    
C45   H32   S    
C11   H9    S    
C36   N1    A    
C8    C12   S    
C25   C37   A    
C25   C32   A    
C16   C24   A    
C13   C14   A    
C39   H21   S    
C34   C41   S    
C39   C42   S    
C10   C21   A    
Cu1   O3    S    
Cu2   O8    S    
C39   C40   S    
C44   H29   S    
C40   H23   S    
C17   C21   A    
Cu1   Cu2   S    
C29   C30   A    
C34   O7    A    
C2    C38   S    
C31   C32   A    
C16   C20   A    
C17   C18   A    
C38   H12   S    
C23   O5    A    
C45   H33   S    
Cu2   O2    S    
C27   H19   S    
C22   H5    S    
C43   H28   S    
C3    C40   S    
C12   O4    A    
C10   C23   S    
C39   H22   S    
C3    C4    S    
C4    H4    S    
C15   C17   A    
Cu1   N1    S    
C14   H10   S    
C14   C15   A    
C4    C5    S    
C36   H16   S    
C44   C45   S    
C30   N2    A    
C2    H3    S    
Cu1   O5    S    
C1    O1    A    
C32   C33   A    
C37   N1    A    
C2    C3    S    
C29   C31   A    
C11   C13   A    
C19   H6    S    
Cu2   O6    S    
C33   C35   A    
Cu2   N2    S    
C23   O6    A    
C38   H2    S    
C2    H1    S    
C9    C18   A    
C43   C44   S    
C4    O9    S    
C1    C24   S    
O9    C43   S    
C40   H24   S    
C12   O3    A    
C27   C28   A    
C31   C36   A    
C25   H15   S    
C45   H31   S    
C20   Br1   S    
C21   H8    S    
C37   H13   S    
C13   H11   S    
C28   H18   S    
