data_mof_unit_20131.cif
_audit_creation_date              2012-12-11T14:21:16-0500
_audit_creation_method            fapswitch 2.2
_symmetry_space_group_name_H-M    P1
_symmetry_Int_Tables_number       1
_space_group_crystal_system       triclinic
_cell_length_a                    22.011924
_cell_length_b                    7.199724
_cell_length_c                    14.887361
_cell_angle_alpha                 89.990761
_cell_angle_beta                  106.8114
_cell_angle_gamma                 90.085735
_cell_volume                      2258.50925557

loop_
_atom_site_label
_atom_site_type_symbol
_atom_type_description
_atom_site_fract_x
_atom_site_fract_y
_atom_site_fract_z
_atom_type_partial_charge
O1    O     O_R   0.584770 0.505770 0.002090 -0.540845
O2    O     O_R   0.415230 0.005770 0.997910 -0.544609
O3    O     O_R   0.467060 0.173340 0.861950 -0.537626
O4    O     O_R   0.532940 0.673340 0.138050 -0.535508
C1    C     C_R   0.453559 0.344159 0.825877 0.823940
C2    C     C_R   0.545820 0.843657 0.174030 0.827260
O5    O     O_R   0.587510 0.175890 0.993210 -0.494849
O6    O     O_R   0.412490 0.675890 0.006790 -0.494494
O7    O     O_R   0.536540 0.008150 0.130100 -0.540429
O8    O     O_R   0.463460 0.508150 0.869900 -0.534778
C3    C     C_R   0.613187 0.344541 0.998373 0.804694
C4    C     C_R   0.386850 0.844410 0.001746 0.806898
O9    O     O_3   0.483140 0.340040 0.044760 -0.376357
O10   O     O_3   0.516860 0.840040 0.955240 -0.372791
V1    V     V_3+5 0.503130 0.064190 0.991700 1.674571
V2    V     V_3+5 0.496870 0.564190 0.008300 1.679850
C5    C     C_2   0.210573 0.733649 0.978089 -0.109633
C6    C     C_2   0.789688 0.232454 0.023758 -0.125970
C7    C     C_2   0.181435 0.882706 0.003440 -0.308914
C8    C     C_2   0.818712 0.381316 0.997522 -0.321071
H1    H     H_    0.210376 0.997795 0.039501 0.182717
H2    H     H_    0.789684 0.495947 0.961404 0.199424
C9    C     C_2   0.281257 0.719407 0.008763 0.476787
C10   C     C_2   0.718971 0.217656 0.993680 0.476676
C11   C     C_2   0.317636 0.856931 0.989979 -0.339926
C12   C     C_2   0.682418 0.357198 0.009893 -0.344356
H3    H     H_    0.294401 0.983546 0.957733 0.150357
H4    H     H_    0.705502 0.485716 0.039976 0.155451
C13   C     C_R   0.928309 0.881215 0.723184 -0.251148
C14   C     C_R   0.071648 0.385761 0.277302 -0.232899
C15   C     C_R   0.576483 0.845279 0.275827 -0.143045
C16   C     C_R   0.424401 0.349122 0.723315 -0.145025
C17   C     C_R   0.942972 0.837530 0.569186 0.397499
C18   C     C_R   0.059112 0.314918 0.430681 0.398195
C19   C     C_R   0.968268 0.875655 0.665345 0.315454
C20   C     C_R   0.033385 0.330542 0.332927 0.315072
C21   C     C_R   0.863297 0.847056 0.685221 0.251778
C22   C     C_R   0.136035 0.424444 0.318681 0.251948
C23   C     C_R   0.835185 0.855781 0.586331 -0.018648
C24   C     C_R   0.165257 0.376475 0.414101 -0.021873
C25   C     C_R   0.875766 0.842174 0.526709 -0.116442
C26   C     C_R   0.125542 0.343974 0.473340 -0.114143
C27   C     C_R   0.767987 0.868902 0.545418 0.097557
C28   C     C_R   0.232610 0.359206 0.451944 0.101760
C29   C     C_R   0.740731 0.845279 0.447775 0.025786
C30   C     C_R   0.260885 0.354571 0.550022 0.031120
C31   C     C_R   0.781243 0.805945 0.392822 -0.184116
C32   C     C_R   0.220678 0.330629 0.607319 -0.192517
C33   C     C_R   0.847177 0.821741 0.428250 0.001204
C34   C     C_R   0.154539 0.334261 0.571927 0.009801
C35   C     C_R   0.726965 0.914855 0.598677 -0.074845
C36   C     C_R   0.271686 0.328254 0.393824 -0.076211
C37   C     C_R   0.661907 0.878710 0.565863 -0.062655
C38   C     C_R   0.337573 0.314624 0.428893 -0.066542
C39   C     C_R   0.635047 0.829447 0.470257 -0.011097
C40   C     C_R   0.366663 0.312163 0.527639 -0.018108
C41   C     C_R   0.673101 0.853577 0.408644 -0.002621
C42   C     C_R   0.328778 0.356197 0.588007 0.007453
C43   C     C_R   0.571452 0.766500 0.432918 -0.066210
C44   C     C_R   0.431738 0.263819 0.568380 -0.062923
C45   C     C_R   0.542143 0.779385 0.335712 0.286493
C46   C     C_R   0.460000 0.285658 0.665323 0.297684
C47   C     C_R   0.642037 0.885550 0.311790 -0.134280
C48   C     C_R   0.359943 0.397731 0.684248 -0.127132
H5    H     H_    0.761845 0.766377 0.320174 0.183282
H6    H     H_    0.240297 0.301629 0.681139 0.186893
H7    H     H_    0.745201 0.980290 0.666398 0.207649
H8    H     H_    0.250984 0.305824 0.319632 0.210392
O11   O     O_R   0.036450 0.233070 0.130130 -0.545346
O12   O     O_R   0.963550 0.733070 0.869870 -0.527587
O13   O     O_R   0.912470 0.560570 0.006790 -0.515848
O14   O     O_R   0.087530 0.060570 0.993210 -0.526715
C49   C     C_R   0.887317 0.391118 0.004072 0.778363
C50   C     C_R   0.112745 0.891483 0.996254 0.770912
O15   O     O_R   0.032920 0.562940 0.138050 -0.515543
O16   O     O_R   0.967080 0.062940 0.861950 -0.534796
O17   O     O_R   0.084790 0.730500 0.002090 -0.549076
O18   O     O_R   0.915210 0.230500 0.997910 -0.558696
C51   C     C_R   0.045052 0.394723 0.174707 0.845364
C52   C     C_R   0.955445 0.893808 0.825391 0.849491
O19   O     O_3   0.016820 0.396170 0.955260 -0.390099
O20   O     O_3   0.983180 0.896170 0.044740 -0.387375
V3    V     V_3+5 0.996880 0.672090 0.008300 1.621957
V4    V     V_3+5 0.003120 0.172090 0.991700 1.580679
C53   C     C_2   0.173959 0.582962 0.917257 0.554229
H9    H     H_    0.124103 0.600208 0.880124 0.065385
O21   O     O_2   0.199850 0.439239 0.905052 -0.470669
C54   C     C_2   0.826317 0.081127 0.084110 0.552865
H10   H     H_    0.876978 0.092355 0.116125 0.088137
O22   O     O_2   0.799591 0.943256 0.101953 -0.472931
Cl1   Cl    Cl    0.051460 0.892240 0.716210 -0.576960
Cl2   Cl    Cl    0.951376 0.291784 0.279697 -0.617004
Cl3   Cl    Cl    0.822943 0.749756 0.762169 -0.607044
Cl4   Cl    Cl    0.174811 0.567145 0.254528 -0.613792
C55   C     C_2   0.538336 0.661643 0.491131 0.369509
H11   H     H_    0.487053 0.664435 0.474820 0.132809
O23   O     O_2   0.568162 0.564386 0.556124 -0.511061
C56   C     C_2   0.468986 0.163662 0.515121 0.340292
H12   H     H_    0.517500 0.204434 0.521495 0.115690
O24   O     O_2   0.446289 0.030317 0.466167 -0.518742
Cl5   Cl    Cl    0.314566 0.515572 0.069669 -0.446184
Cl6   Cl    Cl    0.685935 0.009183 0.937146 -0.430072
C57   C     C_2   0.882742 0.832739 0.357681 0.569021
H13   H     H_    0.921503 0.930535 0.366814 0.150273
O25   O     O_2   0.867907 0.736281 0.287177 -0.479468
C58   C     C_2   0.118862 0.350944 0.642183 0.580738
H14   H     H_    0.077730 0.440727 0.628821 0.132118
O26   O     O_2   0.136311 0.269400 0.717173 -0.473998
C59   C     C_2   0.675752 0.985255 0.252398 0.360236
H15   H     H_    0.710856 0.090339 0.283944 0.075444
O27   O     O_2   0.667072 0.946222 0.169835 -0.501038
C60   C     C_2   0.328009 0.515947 0.739267 0.354154
H16   H     H_    0.296248 0.625708 0.703961 0.078238
O28   O     O_2   0.333954 0.486620 0.822133 -0.508998
Cl7   Cl    Cl    0.461259 0.715917 0.287791 -0.610268
Cl8   Cl    Cl    0.541751 0.236741 0.715826 -0.593491
C61   C     C_2   0.623059 0.914648 0.630520 0.629266
H17   H     H_    0.572577 0.937964 0.603620 0.042376
O29   O     O_2   0.647256 0.917827 0.715373 -0.436728
C62   C     C_2   0.374358 0.327009 0.359492 0.630323
H18   H     H_    0.421572 0.386775 0.379407 0.038433
O30   O     O_2   0.351909 0.273761 0.278747 -0.461484
Cl9   Cl    Cl    0.997467 0.755525 0.510806 -0.561068
Cl10  Cl    Cl    0.006984 0.233011 0.492989 -0.555233

loop_
_geom_bond_atom_site_label_1
_geom_bond_atom_site_label_2
_ccdc_geom_bond_type
O4    V2    S    
C38   C62   S    
C15   C45   A    
C55   H11   S    
C18   C26   A    
O2    C4    A    
O16   V4    S    
C2    O7    A    
C60   O28   D    
C31   C33   A    
C53   H9    S    
O5    C3    A    
C29   C41   A    
C5    C9    S    
C5    C53   S    
C7    H1    S    
C10   C12   D    
C39   C43   A    
C61   O29   D    
C37   C61   S    
C48   C60   S    
C58   H14   S    
O17   V3    S    
C14   C22   A    
C44   C46   A    
C29   C31   A    
C17   C19   A    
C28   C30   A    
C50   O17   A    
O1    C3    A    
C45   Cl7   S    
C49   O18   A    
C6    C8    D    
C36   H8    S    
C1    C16   S    
C20   Cl2   S    
C32   C34   A    
C2    C15   S    
O6    V2    S    
C30   C42   A    
C43   C55   S    
C25   C33   A    
C60   H16   S    
C36   C38   A    
C41   C47   A    
O13   V3    S    
C37   C39   A    
C42   C48   A    
C38   C40   A    
C43   C45   A    
C53   O21   D    
O12   C52   A    
C15   C47   A    
C16   C48   A    
O4    C2    A    
O13   C49   A    
C23   C27   A    
C3    C12   S    
C6    C54   S    
C40   C44   A    
C35   C37   A    
C47   C59   S    
C46   Cl8   S    
O2    V1    S    
O6    C4    A    
C22   Cl4   S    
C21   Cl3   S    
C57   O25   D    
O1    V2    S    
C35   H7    S    
O12   V3    S    
C27   C29   A    
O14   V4    S    
C26   C34   A    
C14   C51   S    
O14   C50   A    
C54   O22   D    
O20   V3    S    
C56   O24   D    
C39   C41   A    
C6    C10   S    
O11   C51   A    
O19   V4    S    
O3    V1    S    
C62   H18   S    
C62   O30   D    
C17   Cl9   S    
C18   Cl10  S    
C12   H4    S    
C7    C50   S    
O16   C52   A    
C8    H2    S    
C24   C26   A    
O3    C1    A    
C28   C36   A    
C33   C57   S    
C55   O23   D    
C11   H3    S    
C13   C19   A    
C44   C56   S    
C14   C20   A    
C4    C11   S    
C17   C25   A    
C59   O27   D    
O7    V1    S    
C16   C46   A    
C1    O8    A    
C21   C23   A    
O11   V4    S    
O8    V2    S    
C59   H15   S    
C22   C24   A    
O15   V3    S    
C9    Cl5   S    
C13   C52   S    
C58   O26   D    
C27   C35   A    
O5    V1    S    
C5    C7    D    
C18   C20   A    
C40   C42   A    
C8    C49   S    
C10   Cl6   S    
C9    C11   D    
C30   C32   A    
O18   V4    S    
C24   C28   A    
C54   H10   S    
C23   C25   A    
C56   H12   S    
O9    V2    S    
C13   C21   A    
C57   H13   S    
C34   C58   S    
O10   V1    S    
C32   H6    S    
C61   H17   S    
O15   C51   A    
C31   H5    S    
C19   Cl1   S    
