data_mof_unit_32919.cif
_audit_creation_date              2012-12-11T15:38:19-0500
_audit_creation_method            fapswitch 2.2
_symmetry_space_group_name_H-M    P1
_symmetry_Int_Tables_number       1
_space_group_crystal_system       triclinic
_cell_length_a                    20.543612
_cell_length_b                    7.31219
_cell_length_c                    18.804419
_cell_angle_alpha                 90.000205
_cell_angle_beta                  107.188938
_cell_angle_gamma                 89.999562
_cell_volume                      2698.60970906

loop_
_atom_site_label
_atom_site_type_symbol
_atom_type_description
_atom_site_fract_x
_atom_site_fract_y
_atom_site_fract_z
_atom_type_partial_charge
O1    O     O_R   0.422200 0.494350 0.423850 -0.528499
O2    O     O_R   0.577800 0.994350 0.576150 -0.528500
O3    O     O_R   0.555980 0.819730 0.435060 -0.531637
O4    O     O_R   0.444020 0.319730 0.564940 -0.531647
C1    C     C_R   0.575436 0.656694 0.420499 0.710965
C2    C     C_R   0.424565 0.156696 0.579501 0.710959
O5    O     O_R   0.421370 0.823790 0.415230 -0.533016
O6    O     O_R   0.578630 0.323790 0.584770 -0.533017
O7    O     O_R   0.442220 0.998380 0.556180 -0.537291
O8    O     O_R   0.557780 0.498380 0.443820 -0.537290
C3    C     C_R   0.396404 0.655398 0.394350 0.711171
C4    C     C_R   0.603595 0.155398 0.605650 0.711175
O9    O     O_3   0.507000 0.662200 0.546270 -0.374958
O10   O     O_3   0.493000 0.162200 0.453730 -0.374956
V1    V     V_3+5 0.498700 0.935390 0.491420 1.417046
V2    V     V_3+5 0.501300 0.435390 0.508580 1.417029
C5    C     C_1   0.666441 0.145412 0.667907 -0.184607
C6    C     C_1   0.333558 0.645415 0.332094 -0.184611
C7    C     C_1   0.719146 0.134549 0.719464 0.007283
C8    C     C_1   0.280853 0.634551 0.280536 0.007301
C9    C     C_1   0.781267 0.120765 0.780065 -0.001136
C10   C     C_1   0.218732 0.620764 0.219936 -0.001122
C11   C     C_1   0.833858 0.109855 0.831760 -0.187084
C12   C     C_1   0.166141 0.609853 0.168241 -0.187107
C13   C     C_3   0.262477 0.258707 0.824769 0.082710
C14   C     C_3   0.737531 0.758729 0.175241 0.082742
C15   C     C_3   0.250390 0.924734 0.794486 0.490789
C16   C     C_3   0.749604 0.424745 0.205502 0.490764
C17   C     C_3   0.306650 0.955886 0.754779 0.219786
C18   C     C_3   0.693342 0.455898 0.245207 0.219779
H1    H     H_    0.298764 0.203883 0.877103 0.109934
H2    H     H_    0.701241 0.703926 0.122906 0.109936
H3    H     H_    0.276237 0.887287 0.853223 -0.047650
H4    H     H_    0.723759 0.387319 0.146763 -0.047665
H5    H     H_    0.355727 0.973303 0.800082 0.063162
H6    H     H_    0.644269 0.473350 0.199901 0.063168
C19   C     C_1   0.379484 0.155285 0.626026 -0.230020
C20   C     C_1   0.620518 0.655278 0.373976 -0.229983
C21   C     C_3   0.209084 0.104892 0.793259 -0.186064
C22   C     C_3   0.790917 0.604892 0.206740 -0.186066
C23   C     C_3   0.303921 0.296680 0.769183 0.246906
C24   C     C_3   0.696088 0.796696 0.230830 0.246893
C25   C     C_3   0.293432 0.139923 0.710566 -0.148532
C26   C     C_3   0.706569 0.639912 0.289435 -0.148533
C27   C     C_3   0.217376 0.151911 0.660281 0.769950
C28   C     C_3   0.782626 0.651860 0.339722 0.769967
C29   C     C_3   0.168399 0.147815 0.710740 0.282708
C30   C     C_3   0.831604 0.647778 0.289264 0.282742
C31   C     C_1   0.341330 0.154694 0.664618 0.163471
C32   C     C_1   0.658672 0.654682 0.335385 0.163511
C33   C     C_1   0.161457 0.095974 0.839590 0.143651
C34   C     C_1   0.838542 0.595979 0.160407 0.143586
C35   C     C_1   0.122140 0.101265 0.876713 -0.207127
C36   C     C_1   0.877857 0.601268 0.123283 -0.207221
H7    H     H_    0.146150 0.287265 0.711301 0.124747
H8    H     H_    0.853852 0.787231 0.288719 0.124710
H9    H     H_    0.285001 0.426563 0.740371 0.209996
H10   H     H_    0.715011 0.926569 0.259651 0.210036
O11   O     O_R   0.942270 0.764870 0.056240 -0.531997
O12   O     O_R   0.057730 0.264870 0.943760 -0.531999
O13   O     O_R   0.078640 0.431230 0.084780 -0.532748
O14   O     O_R   0.921360 0.931230 0.915220 -0.532752
C37   C     C_R   0.103521 0.599782 0.105724 0.711215
C38   C     C_R   0.896479 0.099783 0.894276 0.711210
O15   O     O_R   0.944030 0.435400 0.064960 -0.529664
O16   O     O_R   0.055970 0.935400 0.935040 -0.529661
O17   O     O_R   0.922190 0.260960 0.923840 -0.529664
O18   O     O_R   0.077810 0.760960 0.076160 -0.529664
C39   C     C_R   0.924492 0.602217 0.078664 0.696118
C40   C     C_R   0.075507 0.102215 0.921334 0.696099
O19   O     O_3   0.993030 0.592980 0.953770 -0.373215
O20   O     O_3   0.006970 0.092980 0.046230 -0.373213
V3    V     V_3+5 0.001290 0.319740 0.008580 1.436149
V4    V     V_3+5 0.998710 0.819740 0.991420 1.436149
F1    F     F_    0.372413 0.316075 0.807933 -0.723134
F2    F     F_    0.627598 0.816115 0.192079 -0.723157
O21   O     O_3   0.229223 0.420805 0.837653 -0.528284
C41   C     C_3   0.263140 0.500546 0.907513 0.195354
H11   H     H_    0.246600 0.644800 0.905674 0.154534
H12   H     H_    0.319547 0.501461 0.918642 0.126388
C42   C     C_3   0.242517 0.409074 0.971113 -0.377391
H13   H     H_    0.186417 0.419350 0.959648 0.216651
H14   H     H_    0.256881 0.262251 0.975552 0.182970
C43   C     C_3   0.276892 0.501296 0.045538 -0.828198
H15   H     H_    0.333193 0.493688 0.058417 0.239128
H16   H     H_    0.261738 0.430481 0.090418 0.239905
H17   H     H_    0.261063 0.646875 0.044084 0.227520
O22   O     O_3   0.770790 0.920822 0.162365 -0.528270
C44   C     C_3   0.736877 0.000580 0.092506 0.195405
H18   H     H_    0.753427 0.144824 0.094348 0.154565
H19   H     H_    0.680470 0.001522 0.081378 0.126374
C45   C     C_3   0.757494 0.909100 0.028903 -0.377430
H20   H     H_    0.813595 0.919353 0.040367 0.216659
H21   H     H_    0.743123 0.762285 0.024459 0.182979
C46   C     C_3   0.723125 0.001341 0.954481 -0.828197
H22   H     H_    0.666823 0.993766 0.941604 0.239130
H23   H     H_    0.738271 0.930516 0.909598 0.239907
H24   H     H_    0.738963 0.146910 0.955938 0.227518
O23   O     O_3   0.201792 0.000974 0.609747 -0.515464
C47   C     C_3   0.202363 0.044903 0.536481 0.237293
H25   H     H_    0.216344 0.918697 0.511517 0.121644
H26   H     H_    0.241450 0.148623 0.534750 0.126830
C48   C     C_3   0.131509 0.106096 0.488836 -0.313676
H27   H     H_    0.094074 0.995980 0.487993 0.185831
H28   H     H_    0.115144 0.230017 0.512984 0.233463
C49   C     C_3   0.131286 0.150122 0.409398 -0.857353
H29   H     H_    0.165656 0.267402 0.409395 0.243379
H30   H     H_    0.078871 0.187062 0.375466 0.247216
H31   H     H_    0.148570 0.030132 0.383597 0.235590
O24   O     O_3   0.798200 0.500896 0.390244 -0.515447
C50   C     C_3   0.797657 0.544805 0.463520 0.237343
H32   H     H_    0.783699 0.418582 0.488491 0.121640
H33   H     H_    0.758565 0.648497 0.465267 0.126809
C51   C     C_3   0.868516 0.606030 0.511139 -0.313625
H34   H     H_    0.905953 0.495922 0.511971 0.185832
H35   H     H_    0.884869 0.729938 0.486976 0.233486
C52   C     C_3   0.868764 0.650096 0.590582 -0.857325
H36   H     H_    0.834395 0.767376 0.590591 0.243407
H37   H     H_    0.921185 0.687061 0.624495 0.247221
H38   H     H_    0.851497 0.530121 0.616406 0.235578
F3    F     F_    0.207892 0.781132 0.762067 -0.563099
F4    F     F_    0.792097 0.281127 0.237918 -0.563108
O25   O     O_3   0.309810 0.808723 0.706259 -0.510158
C53   C     C_3   0.368813 0.699255 0.735233 0.163900
H39   H     H_    0.360658 0.570320 0.702862 0.178520
H40   H     H_    0.376568 0.664853 0.794897 0.151051
C54   C     C_3   0.433254 0.784190 0.723916 -0.400505
H41   H     H_    0.425054 0.804520 0.663522 0.222433
H42   H     H_    0.444852 0.917819 0.752867 0.204786
C55   C     C_3   0.494648 0.658501 0.753461 -0.739048
H43   H     H_    0.504693 0.635734 0.814162 0.239927
H44   H     H_    0.540352 0.722552 0.743880 0.221804
H45   H     H_    0.485477 0.524694 0.724156 0.239684
O26   O     O_3   0.690170 0.308715 0.293712 -0.510170
C56   C     C_3   0.631159 0.199287 0.264724 0.163912
H46   H     H_    0.639301 0.070335 0.297083 0.178547
H47   H     H_    0.623405 0.164912 0.205058 0.151055
C57   C     C_3   0.566724 0.284251 0.276045 -0.400504
H48   H     H_    0.574916 0.304518 0.336442 0.222421
H49   H     H_    0.555145 0.417915 0.247118 0.204799
C58   C     C_3   0.505314 0.158632 0.246465 -0.739117
H50   H     H_    0.495273 0.135951 0.185759 0.239910
H51   H     H_    0.459616 0.222697 0.256055 0.221813
H52   H     H_    0.514467 0.024783 0.275738 0.239696
O27   O     O_3   0.117109 0.012183 0.684775 -0.502182
C59   C     C_3   0.054074 0.086885 0.642505 0.151040
H53   H     H_    0.029229 0.984791 0.599222 0.147370
H54   H     H_    0.059437 0.214455 0.612266 0.096489
C60   C     C_3   0.008416 0.118917 0.692593 -0.337250
H55   H     H_    0.006673 0.992774 0.724997 0.216551
H56   H     H_    0.029823 0.231568 0.732258 0.194587
C61   C     C_3   0.936148 0.169161 0.647108 -0.831964
H57   H     H_    0.937134 0.294555 0.614472 0.244584
H58   H     H_    0.904608 0.194880 0.684928 0.235984
H59   H     H_    0.912725 0.056382 0.608482 0.245532
O28   O     O_3   0.882895 0.512134 0.315225 -0.502165
C62   C     C_3   0.945958 0.586855 0.357408 0.150967
H60   H     H_    0.970896 0.484667 0.400608 0.147410
H61   H     H_    0.940613 0.714281 0.387746 0.096477
C63   C     C_3   0.991486 0.619249 0.307202 -0.337390
H62   H     H_    0.993175 0.493274 0.274684 0.216536
H63   H     H_    0.970006 0.732049 0.267649 0.194636
C64   C     C_3   0.063797 0.669431 0.352578 -0.831863
H64   H     H_    0.062871 0.794644 0.385344 0.244597
H65   H     H_    0.095226 0.695431 0.314665 0.235965
H66   H     H_    0.087298 0.556488 0.391073 0.245456
F5    F     F_    0.207302 0.320057 0.623408 -0.743045
F6    F     F_    0.792702 0.819990 0.376607 -0.743068

loop_
_geom_bond_atom_site_label_1
_geom_bond_atom_site_label_2
_ccdc_geom_bond_type
C13   H1    S    
C56   C57   S    
C21   C33   S    
C29   O27   S    
C3    C6    S    
C14   H2    S    
C62   H60   S    
C15   C17   S    
C64   H64   S    
O1    C3    A    
C43   H17   S    
O2    C4    A    
C24   H10   S    
C2    O7    A    
C54   H42   S    
C42   H13   S    
C15   F3    S    
C46   H24   S    
C56   H46   S    
O21   C41   S    
C15   H3    S    
O5    C3    A    
C28   F6    S    
C13   O21   S    
C21   C29   S    
O28   C62   S    
C7    C9    S    
C43   H16   S    
C60   H56   S    
C16   F4    S    
C49   H29   S    
C16   C22   S    
O18   V4    S    
O16   V4    S    
O12   V3    S    
O15   V3    S    
C22   C30   S    
O6    V2    S    
O13   C37   A    
O24   C50   S    
C45   H20   S    
O14   C38   A    
C58   H50   S    
C48   H28   S    
C46   H22   S    
C26   C28   S    
C18   O26   S    
C4    C5    S    
O17   V3    S    
C44   H19   S    
C6    C8    T    
O5    V1    S    
C30   O28   S    
C29   H7    S    
C16   H4    S    
C62   H61   S    
C56   H47   S    
C1    C20   S    
C17   C25   S    
C23   C25   S    
C18   C26   S    
C24   C26   S    
C35   C40   S    
C45   H21   S    
C42   H14   S    
C34   C36   T    
O27   C59   S    
C59   H54   S    
C27   C29   S    
C28   C30   S    
C15   C21   S    
C38   O17   A    
O25   C53   S    
C64   H66   S    
C43   H15   S    
O4    C2    A    
C27   O23   S    
C52   H38   S    
C13   C23   S    
C52   H37   S    
C41   H11   S    
C25   C31   S    
O13   V3    S    
C22   C34   S    
C47   C48   S    
C33   C35   T    
C63   H63   S    
C48   C49   S    
O4    V2    S    
C55   H44   S    
C63   C64   S    
C23   F1    S    
C59   C60   S    
C27   F5    S    
O23   C47   S    
C61   H59   S    
O12   C40   A    
O6    C4    A    
C47   H26   S    
C2    C19   S    
C50   H33   S    
O1    V2    S    
O22   C44   S    
C44   C45   S    
O2    V1    S    
C25   C27   S    
O11   V4    S    
C19   C31   T    
C57   H49   S    
O11   C39   A    
C53   C54   S    
C20   C32   T    
C11   C38   S    
C61   H58   S    
C12   C37   S    
C9    C11   T    
C10   C12   T    
C60   C61   S    
C55   H45   S    
C54   H41   S    
C42   C43   S    
O3    V1    S    
C14   C24   S    
C53   H40   S    
C59   H53   S    
C26   C32   S    
C30   H8    S    
C37   O18   A    
C50   H32   S    
C64   H65   S    
C8    C10   S    
O20   V3    S    
O3    C1    A    
C57   C58   S    
O19   V4    S    
C51   H35   S    
C46   H23   S    
C51   H34   S    
O26   C56   S    
C58   H52   S    
C62   C63   S    
C17   H5    S    
C24   F2    S    
C18   H6    S    
C63   H62   S    
C58   H51   S    
C55   H43   S    
O7    V1    S    
C54   C55   S    
C23   H9    S    
C1    O8    A    
C28   O24   S    
O8    V2    S    
C60   H55   S    
C13   C21   S    
C41   C42   S    
C14   C22   S    
O16   C40   A    
C36   C39   S    
C49   H30   S    
O15   C39   A    
C17   O25   S    
C16   C18   S    
C47   H25   S    
C5    C7    T    
C50   C51   S    
C41   H12   S    
C45   C46   S    
C51   C52   S    
C57   H48   S    
C61   H57   S    
C14   O22   S    
O9    V2    S    
C48   H27   S    
O10   V1    S    
O14   V4    S    
C44   H18   S    
C52   H36   S    
C53   H39   S    
C49   H31   S    
