data_mof_unit_33572.cif
_audit_creation_date              2012-12-11T16:25:20-0500
_audit_creation_method            fapswitch 2.2
_symmetry_space_group_name_H-M    P1
_symmetry_Int_Tables_number       1
_space_group_crystal_system       triclinic
_cell_length_a                    22.781683
_cell_length_b                    30.578872
_cell_length_c                    19.236172
_cell_angle_alpha                 89.123188
_cell_angle_beta                  127.873521
_cell_angle_gamma                 91.001475
_cell_volume                      10576.2507599

loop_
_atom_site_label
_atom_site_type_symbol
_atom_type_description
_atom_site_fract_x
_atom_site_fract_y
_atom_site_fract_z
_atom_type_partial_charge
C1    C     C_R   0.947054 0.615449 0.074387 -0.115576
C2    C     C_R   0.069547 0.398099 0.925736 -0.136042
C3    C     C_R   0.051367 0.617035 0.924961 -0.109824
C4    C     C_R   0.923625 0.401921 0.071094 -0.148908
C5    C     C_R   0.446701 0.115178 0.074489 -0.102826
C6    C     C_R   0.569123 0.897671 0.925712 -0.133017
C7    C     C_R   0.549868 0.118103 0.925527 -0.115887
C8    C     C_R   0.423858 0.902401 0.071605 -0.145177
C9    C     C_R   0.904285 0.507183 0.561318 0.520927
C10   C     C_R   0.088272 0.487441 0.433012 0.509011
C11   C     C_R   0.407165 0.008995 0.563022 0.522568
C12   C     C_R   0.591759 0.988497 0.435398 0.510423
C13   C     C_R   0.913656 0.499747 0.497013 -0.227738
C14   C     C_R   0.074059 0.481802 0.493642 -0.209839
C15   C     C_R   0.416903 0.002496 0.498852 -0.226726
C16   C     C_R   0.577317 0.983412 0.495926 -0.211845
C17   C     C_R   0.986335 0.490043 0.525273 -0.022499
C18   C     C_R   0.000532 0.489259 0.464744 -0.032825
C19   C     C_R   0.489414 0.992206 0.527178 -0.023094
C20   C     C_R   0.503988 0.991749 0.466984 -0.032805
C21   C     C_R   0.045824 0.483260 0.614846 0.129964
C22   C     C_R   0.941781 0.498192 0.375727 0.123314
C23   C     C_R   0.548314 0.984248 0.616526 0.129520
C24   C     C_R   0.445740 0.001535 0.378207 0.124567
C25   C     C_R   0.853820 0.502496 0.405949 0.552296
C26   C     C_R   0.130891 0.470453 0.582425 0.571614
C27   C     C_R   0.357542 0.006654 0.407905 0.553296
C28   C     C_R   0.633628 0.971421 0.584481 0.573283
C29   C     C_R   0.869039 0.503209 0.346362 -0.329991
C30   C     C_R   0.116570 0.472513 0.642707 -0.345643
C31   C     C_R   0.373163 0.007593 0.348716 -0.329556
C32   C     C_R   0.618961 0.973194 0.644477 -0.347270
C33   C     C_R   0.670598 0.333716 0.900504 0.408455
C34   C     C_R   0.217948 0.741494 0.035419 0.350272
C35   C     C_R   0.309915 0.325504 0.076888 0.393435
C36   C     C_R   0.779125 0.721109 0.006337 0.359071
C37   C     C_R   0.174059 0.832512 0.905513 0.413865
C38   C     C_R   0.712911 0.240442 0.020966 0.348405
C39   C     C_R   0.808473 0.825270 0.073817 0.392124
C40   C     C_R   0.278303 0.221891 0.003761 0.359685
C41   C     C_R   0.718345 0.366217 0.908684 0.343745
C42   C     C_R   0.198730 0.699878 0.047019 0.353578
C43   C     C_R   0.263764 0.357756 0.069576 0.338946
C44   C     C_R   0.800456 0.680969 0.996013 0.347001
C45   C     C_R   0.219360 0.865971 0.911467 0.347163
C46   C     C_R   0.695319 0.199198 0.035614 0.367559
C47   C     C_R   0.762494 0.857278 0.067497 0.342304
C48   C     C_R   0.299128 0.181701 0.992692 0.355286
C49   C     C_R   0.788798 0.373055 0.991976 -0.318965
C50   C     C_R   0.123573 0.687169 0.993145 -0.332113
C51   C     C_R   0.187862 0.357020 0.996370 -0.340936
C52   C     C_R   0.865410 0.679155 0.003743 -0.311760
C53   C     C_R   0.289271 0.874417 0.994252 -0.323518
C54   C     C_R   0.620843 0.188168 0.994580 -0.335573
C55   C     C_R   0.686119 0.855797 0.996015 -0.343066
C56   C     C_R   0.366061 0.179315 0.004969 -0.330762
C57   C     C_R   0.796495 0.360035 0.068748 0.439736
C58   C     C_R   0.067451 0.718174 0.935995 0.424640
C59   C     C_R   0.163578 0.332380 0.921090 0.439480
C60   C     C_R   0.909865 0.716672 0.023054 0.441466
C61   C     C_R   0.297247 0.862640 0.071849 0.436984
C62   C     C_R   0.564347 0.220108 0.947504 0.417122
C63   C     C_R   0.660192 0.830141 0.921374 0.434354
C64   C     C_R   0.413195 0.216178 0.030670 0.423475
C65   C     C_R   0.852737 0.399526 0.924366 -0.142606
C66   C     C_R   0.123570 0.618734 0.071760 -0.063499
C67   C     C_R   0.139892 0.392323 0.072531 -0.124870
C68   C     C_R   0.872448 0.616186 0.926272 -0.119772
C69   C     C_R   0.352388 0.900168 0.924837 -0.145637
C70   C     C_R   0.622302 0.119236 0.072399 -0.057278
C71   C     C_R   0.639498 0.891978 0.072604 -0.125711
C72   C     C_R   0.373046 0.116486 0.926349 -0.125497
C73   C     C_R   0.737927 0.336712 0.058403 0.122356
C74   C     C_R   0.087663 0.762528 0.941355 0.130237
C75   C     C_R   0.215063 0.308965 0.921216 0.125935
C76   C     C_R   0.881325 0.757688 0.018091 0.110886
C77   C     C_R   0.239477 0.838837 0.062609 0.124965
C78   C     C_R   0.584414 0.263556 0.943368 0.134579
C79   C     C_R   0.710740 0.806832 0.919750 0.129151
C80   C     C_R   0.385646 0.257488 0.025966 0.101986
C81   C     C_R   0.683099 0.317446 0.977134 -0.059160
C82   C     C_R   0.162764 0.773577 0.987393 -0.142280
C83   C     C_R   0.284567 0.301275 0.001822 -0.069634
C84   C     C_R   0.816111 0.759298 0.009714 -0.116581
C85   C     C_R   0.186578 0.817658 0.983047 -0.073658
C86   C     C_R   0.658331 0.273143 0.978720 -0.148326
C87   C     C_R   0.781654 0.800328 0.999069 -0.073182
C88   C     C_R   0.318117 0.259807 0.012220 -0.113856
C89   C     C_R   0.444235 0.525269 0.298488 -0.234617
C90   C     C_R   0.621269 0.476827 0.463222 -0.265162
C91   C     C_R   0.580746 0.540363 0.495814 -0.183183
C92   C     C_R   0.458015 0.467755 0.395180 -0.212590
C93   C     C_R   0.944162 0.024805 0.297417 -0.231278
C94   C     C_R   0.121765 0.977187 0.462809 -0.257552
C95   C     C_R   0.080350 0.040210 0.495497 -0.184292
C96   C     C_R   0.958142 0.967511 0.394574 -0.210449
C97   C     C_R   0.367673 0.525170 0.254144 0.156879
C98   C     C_R   0.686413 0.475657 0.549900 0.227361
C99   C     C_R   0.641991 0.537898 0.583740 0.161709
C100  C     C_R   0.382990 0.469361 0.356363 0.191594
C101  C     C_R   0.867555 0.024585 0.253004 0.155773
C102  C     C_R   0.186957 0.976176 0.549522 0.224735
C103  C     C_R   0.141721 0.037881 0.583423 0.167936
C104  C     C_R   0.883074 0.969032 0.355668 0.190797
C105  C     C_R   0.337022 0.499031 0.286394 -0.028453
C106  C     C_R   0.695057 0.504543 0.612894 -0.043824
C107  C     C_R   0.837023 0.998663 0.285618 -0.028038
C108  C     C_R   0.195161 0.004770 0.612614 -0.047350
C109  C     C_R   0.489393 0.497243 0.370007 0.075207
C110  C     C_R   0.567231 0.507902 0.437504 0.068917
C111  C     C_R   0.989476 0.997011 0.369365 0.071713
C112  C     C_R   0.067239 0.007913 0.437102 0.068519
C113  C     C_R   0.799275 0.536998 0.758293 -0.087545
C114  C     C_R   0.211762 0.463859 0.214654 -0.099786
C115  C     C_R   0.212261 0.536885 0.214287 -0.083125
C116  C     C_R   0.795933 0.464513 0.757648 -0.130170
C117  C     C_R   0.299250 0.037115 0.758438 -0.087280
C118  C     C_R   0.711694 0.963778 0.214317 -0.098851
C119  C     C_R   0.712346 0.036805 0.213926 -0.083661
C120  C     C_R   0.296009 0.964606 0.757398 -0.131886
C121  C     C_R   0.035672 0.463440 0.238312 -0.113059
C122  C     C_R   0.966421 0.537178 0.762964 -0.150697
C123  C     C_R   0.962262 0.464169 0.760771 -0.124573
C124  C     C_R   0.031019 0.536493 0.235071 -0.170419
C125  C     C_R   0.537470 0.963690 0.239530 -0.112821
C126  C     C_R   0.467259 0.037321 0.763613 -0.149546
C127  C     C_R   0.463351 0.964228 0.761309 -0.125680
C128  C     C_R   0.533337 0.036677 0.236251 -0.172410
C129  C     C_R   0.890309 0.637088 0.000778 0.285722
C130  C     C_R   0.134943 0.381642 0.998657 0.190240
C131  C     C_R   0.104424 0.641580 0.997030 0.285586
C132  C     C_R   0.852505 0.390786 0.996058 0.180836
C133  C     C_R   0.390349 0.137119 0.001040 0.287021
C134  C     C_R   0.634155 0.881011 0.998682 0.192087
C135  C     C_R   0.602177 0.142621 0.998169 0.284857
C136  C     C_R   0.352498 0.891737 0.997014 0.181601
C137  C     C_R   0.758058 0.501494 0.707191 0.109884
C138  C     C_R   0.257433 0.500308 0.243816 0.092483
C139  C     C_R   0.258101 0.001647 0.707043 0.107757
C140  C     C_R   0.757459 0.000147 0.243344 0.093051
C141  C     C_R   0.038965 0.499656 0.281243 0.143598
C142  C     C_R   0.956141 0.500940 0.715570 0.186667
C143  C     C_R   0.542553 0.000102 0.283420 0.145107
C144  C     C_R   0.457871 0.001097 0.716630 0.183582
C145  C     C_R   0.034050 0.487813 0.676034 -0.275900
C146  C     C_R   0.956733 0.502594 0.317063 -0.269460
C147  C     C_R   0.536021 0.987846 0.677430 -0.275688
C148  C     C_R   0.460885 0.005357 0.319692 -0.273005
C149  C     C_R   0.964589 0.500009 0.649121 -0.083013
C150  C     C_R   0.029025 0.497983 0.346312 -0.102368
C151  C     C_R   0.466730 0.000400 0.650522 -0.080679
C152  C     C_R   0.532819 0.999175 0.348692 -0.102358
H1    H     H_    0.979575 0.626183 0.141967 0.082898
H2    H     H_    0.048162 0.396882 0.858134 0.161557
H3    H     H_    0.019801 0.625987 0.856723 0.113322
H4    H     H_    0.944246 0.400790 0.138122 0.165339
H5    H     H_    0.478775 0.125524 0.142232 0.081379
H6    H     H_    0.547604 0.896022 0.858066 0.160095
H7    H     H_    0.518123 0.127876 0.857403 0.071477
H8    H     H_    0.444987 0.901353 0.138794 0.163331
H9    H     H_    0.468848 0.548133 0.279249 0.159631
H10   H     H_    0.610348 0.451680 0.417426 0.154208
H11   H     H_    0.537641 0.563739 0.475929 0.168553
H12   H     H_    0.493686 0.447024 0.452576 0.169922
H13   H     H_    0.968653 0.047599 0.277915 0.159776
H14   H     H_    0.111279 0.952202 0.416961 0.153458
H15   H     H_    0.036952 0.063349 0.475639 0.167903
H16   H     H_    0.993869 0.946862 0.452092 0.169658
H17   H     H_    0.809196 0.393513 0.855761 0.161420
H18   H     H_    0.158158 0.630572 0.138274 0.075244
H19   H     H_    0.180251 0.379842 0.138222 0.136002
H20   H     H_    0.834821 0.627597 0.858977 0.123204
H21   H     H_    0.308373 0.894535 0.856247 0.161277
H22   H     H_    0.656615 0.130916 0.139069 0.061891
H23   H     H_    0.679682 0.879401 0.138274 0.134801
H24   H     H_    0.337068 0.128319 0.859157 0.107191
H25   H     H_    0.793905 0.570232 0.735399 0.124079
H26   H     H_    0.229575 0.430546 0.229499 0.145274
H27   H     H_    0.229882 0.570753 0.227002 0.120636
H28   H     H_    0.783660 0.431093 0.735367 0.141697
H29   H     H_    0.293906 0.070490 0.735990 0.118797
H30   H     H_    0.729385 0.930443 0.228883 0.145028
H31   H     H_    0.730054 0.070662 0.226331 0.117544
H32   H     H_    0.283841 0.931224 0.734823 0.141209
H33   H     H_    0.046954 0.430095 0.261757 0.108112
H34   H     H_    0.963242 0.571089 0.744714 0.086341
H35   H     H_    0.951854 0.430759 0.738029 0.131117
H36   H     H_    0.035365 0.570227 0.253885 0.099991
H37   H     H_    0.548793 0.930338 0.263074 0.107931
H38   H     H_    0.463851 0.071332 0.745616 0.087402
H39   H     H_    0.453167 0.930852 0.738459 0.132476
H40   H     H_    0.538328 0.070475 0.255071 0.099801
H41   H     H_    0.079140 0.482175 0.745412 0.156030
H42   H     H_    0.912118 0.509368 0.248023 0.163214
H43   H     H_    0.580621 0.981295 0.746597 0.155591
H44   H     H_    0.416540 0.012550 0.250756 0.164416
H45   H     H_    0.823885 0.508440 0.277062 0.156851
H46   H     H_    0.161457 0.466698 0.711860 0.154868
H47   H     H_    0.328399 0.013584 0.279567 0.156710
H48   H     H_    0.663449 0.966721 0.713488 0.154516
N1    N     N_R   0.963040 0.582050 0.045950 -0.053985
N2    N     N_R   0.036960 0.417950 0.954050 -0.055375
N3    N     N_R   0.036960 0.582050 0.954050 -0.052817
N4    N     N_R   0.963040 0.417950 0.045950 -0.054732
N5    N     N_R   0.463040 0.082050 0.045950 -0.055655
N6    N     N_R   0.536960 0.917950 0.954050 -0.055577
N7    N     N_R   0.536960 0.082050 0.954050 -0.048561
N8    N     N_R   0.463040 0.917950 0.045950 -0.054923
N9    N     N_R   0.917940 0.418000 0.954160 -0.051587
N10   N     N_R   0.082060 0.582000 0.045840 -0.053622
N11   N     N_R   0.082060 0.418000 0.045840 -0.053039
N12   N     N_R   0.917940 0.582000 0.954160 -0.054298
N13   N     N_R   0.417940 0.918000 0.954160 -0.051349
N14   N     N_R   0.582060 0.082000 0.045840 -0.052371
N15   N     N_R   0.582060 0.918000 0.045840 -0.053216
N16   N     N_R   0.417940 0.082000 0.954160 -0.051628
N17   N     N_R   0.858490 0.522630 0.835610 -0.045869
N18   N     N_R   0.141510 0.477370 0.164390 -0.046937
N19   N     N_R   0.141510 0.522630 0.164390 -0.047119
N20   N     N_R   0.858490 0.477370 0.835610 -0.045915
N21   N     N_R   0.358490 0.022630 0.835610 -0.045781
N22   N     N_R   0.641510 0.977370 0.164390 -0.046964
N23   N     N_R   0.641510 0.022630 0.164390 -0.047078
N24   N     N_R   0.358490 0.977370 0.835610 -0.045861
N25   N     N_R   0.022480 0.477420 0.164500 -0.048544
N26   N     N_R   0.977520 0.522580 0.835500 -0.040606
N27   N     N_R   0.977520 0.477420 0.835500 -0.047802
N28   N     N_R   0.022480 0.522580 0.164500 -0.040381
N29   N     N_R   0.522480 0.977420 0.164500 -0.048368
N30   N     N_R   0.477520 0.022580 0.835500 -0.041184
N31   N     N_R   0.477520 0.977420 0.835500 -0.047457
N32   N     N_R   0.522480 0.022580 0.164500 -0.040662
Ni1   Ni    Ni4+2 0.051820 0.551870 0.104030 0.212802
Ni2   Ni    Ni4+2 0.948180 0.448130 0.895970 0.222605
Ni3   Ni    Ni4+2 0.948180 0.551870 0.895970 0.221437
Ni4   Ni    Ni4+2 0.051820 0.448130 0.104030 0.217515
Ni5   Ni    Ni4+2 0.551820 0.051870 0.104030 0.214001
Ni6   Ni    Ni4+2 0.448180 0.948130 0.895970 0.222618
Ni7   Ni    Ni4+2 0.448180 0.051870 0.895970 0.222543
Ni8   Ni    Ni4+2 0.551820 0.948130 0.104030 0.217459
O1    O     O_3   0.697504 0.387679 0.832898 -0.656678
C153  C     C_3   0.679920 0.431664 0.834374 0.189141
H49   H     H_    0.689586 0.451122 0.792971 0.140983
H50   H     H_    0.716272 0.446512 0.901329 0.098449
C154  C     C_3   0.597834 0.435492 0.794823 -0.248334
H51   H     H_    0.562593 0.420629 0.728182 0.235934
H52   H     H_    0.587430 0.417510 0.837007 0.219855
C155  C     C_3   0.575979 0.483182 0.787531 -0.977390
H53   H     H_    0.609702 0.498411 0.853734 0.266182
H54   H     H_    0.516331 0.484942 0.758652 0.282712
H55   H     H_    0.584633 0.501760 0.744362 0.291936
O2    O     O_3   0.253717 0.670196 0.104427 -0.622945
C156  C     C_3   0.291499 0.683459 0.193066 0.292450
H56   H     H_    0.276503 0.660280 0.224980 0.090380
H57   H     H_    0.277176 0.716916 0.200721 0.107412
C157  C     C_3   0.375586 0.681324 0.242801 -0.265908
H58   H     H_    0.391273 0.647566 0.240159 0.226248
H59   H     H_    0.392120 0.703657 0.211422 0.218152
C158  C     C_3   0.418174 0.694396 0.338964 -1.008088
H60   H     H_    0.405001 0.728580 0.343357 0.273753
H61   H     H_    0.478866 0.692215 0.373306 0.277937
H62   H     H_    0.403466 0.672113 0.372425 0.277100
O3    O     O_3   0.292587 0.388980 0.134579 -0.659434
C159  C     C_3   0.310874 0.427124 0.108314 0.234091
H63   H     H_    0.298892 0.455806 0.132054 0.146150
H64   H     H_    0.276318 0.431416 0.035279 0.096418
C160  C     C_3   0.393882 0.427856 0.150005 -0.320847
H65   H     H_    0.427461 0.430786 0.222608 0.202164
H66   H     H_    0.409089 0.397058 0.135253 0.256998
C161  C     C_3   0.413566 0.465647 0.114812 -0.937028
H67   H     H_    0.382861 0.462230 0.042729 0.272972
H68   H     H_    0.474160 0.465418 0.147738 0.270041
H69   H     H_    0.399610 0.497364 0.128119 0.287009
O4    O     O_3   0.764129 0.642858 0.990572 -0.658992
C162  C     C_3   0.696379 0.638569 0.904712 0.257319
H70   H     H_    0.707703 0.626729 0.859625 0.129531
H71   H     H_    0.665519 0.669942 0.878092 0.150240
C163  C     C_3   0.647183 0.605177 0.907589 -0.300669
H72   H     H_    0.674125 0.572632 0.926569 0.206690
H73   H     H_    0.641117 0.615190 0.958199 0.209424
C164  C     C_3   0.570002 0.601645 0.818974 -0.955342
H74   H     H_    0.541735 0.633764 0.799437 0.269073
H75   H     H_    0.535911 0.577438 0.824113 0.271025
H76   H     H_    0.574083 0.590593 0.767480 0.301122
O5    O     O_3   0.197409 0.886158 0.834119 -0.653969
C165  C     C_3   0.179613 0.930392 0.833366 0.188121
H77   H     H_    0.187099 0.948720 0.788971 0.140531
H78   H     H_    0.217285 0.946387 0.899057 0.100736
C166  C     C_3   0.098296 0.934359 0.796898 -0.255784
H79   H     H_    0.061690 0.918387 0.731405 0.236800
H80   H     H_    0.090063 0.917486 0.841956 0.215025
C167  C     C_3   0.076155 0.982178 0.787318 -0.966247
H81   H     H_    0.111334 0.998589 0.852360 0.264273
H82   H     H_    0.017115 0.984032 0.760872 0.280683
H83   H     H_    0.082516 0.999602 0.741159 0.290503
O6    O     O_3   0.751112 0.169040 0.087629 -0.622980
C168  C     C_3   0.790958 0.179553 0.178020 0.302960
H84   H     H_    0.779780 0.153445 0.209353 0.101749
H85   H     H_    0.775090 0.211235 0.190450 0.091573
C169  C     C_3   0.874523 0.180700 0.223619 -0.268823
H86   H     H_    0.891534 0.149415 0.212466 0.229838
H87   H     H_    0.887589 0.207575 0.195588 0.216875
C170  C     C_3   0.919533 0.187876 0.322513 -1.015102
H88   H     H_    0.904623 0.219523 0.335347 0.274213
H89   H     H_    0.979762 0.188618 0.353568 0.277538
H90   H     H_    0.908837 0.160853 0.352812 0.278750
O7    O     O_3   0.791848 0.888784 0.132104 -0.658976
C171  C     C_3   0.808912 0.926898 0.104407 0.234144
H91   H     H_    0.797478 0.955601 0.128696 0.147831
H92   H     H_    0.773192 0.930962 0.031237 0.095086
C172  C     C_3   0.891480 0.927866 0.144088 -0.320348
H93   H     H_    0.926194 0.930599 0.216853 0.202241
H94   H     H_    0.906146 0.897257 0.128139 0.256759
C173  C     C_3   0.909948 0.965943 0.108175 -0.937123
H95   H     H_    0.877219 0.963195 0.035640 0.272655
H96   H     H_    0.970040 0.965404 0.138620 0.270179
H97   H     H_    0.897725 0.997524 0.123981 0.287837
O8    O     O_3   0.260895 0.143828 0.983882 -0.657772
C174  C     C_3   0.193365 0.140952 0.897474 0.254216
H98   H     H_    0.204574 0.127998 0.853000 0.131765
H99   H     H_    0.165013 0.173047 0.870838 0.149234
C175  C     C_3   0.141130 0.109481 0.898745 -0.293815
H100  H     H_    0.165638 0.076256 0.917781 0.207071
H101  H     H_    0.134978 0.120593 0.948722 0.208397
C176  C     C_3   0.064273 0.107294 0.809436 -0.953534
H102  H     H_    0.038379 0.140128 0.789735 0.267733
H103  H     H_    0.028065 0.084489 0.813623 0.269515
H104  H     H_    0.068274 0.095105 0.758537 0.301059
O9    O     O_3   0.857796 0.371965 0.152707 -0.622913
C177  C     C_3   0.902840 0.334920 0.199952 0.212246
H105  H     H_    0.945857 0.331756 0.190221 0.074102
H106  H     H_    0.871333 0.303458 0.178878 0.125339
C178  C     C_3   0.940769 0.339485 0.298483 -0.268209
H107  H     H_    0.898284 0.344537 0.308446 0.232798
H108  H     H_    0.970395 0.308670 0.332887 0.156640
C179  C     C_3   0.996438 0.377328 0.340316 -0.856375
H109  H     H_    0.042750 0.371204 0.337387 0.236490
H110  H     H_    0.019855 0.380367 0.410481 0.238928
H111  H     H_    0.968524 0.408395 0.305957 0.288279
O10   O     O_3   0.993096 0.705730 0.881694 -0.580040
C180  C     C_3   0.964856 0.709030 0.792291 0.232522
H112  H     H_    0.993302 0.686126 0.777615 0.046938
H113  H     H_    0.973121 0.742152 0.775188 0.079652
C181  C     C_3   0.881088 0.699778 0.731670 -0.218857
H114  H     H_    0.854547 0.718004 0.755196 0.232179
H115  H     H_    0.856722 0.711534 0.664034 0.144615
C182  C     C_3   0.863679 0.651114 0.727477 -0.948324
H116  H     H_    0.883393 0.633306 0.695663 0.235991
H117  H     H_    0.802676 0.646074 0.688161 0.270918
H118  H     H_    0.891342 0.637572 0.794454 0.278337
O11   O     O_3   0.089749 0.330023 0.847729 -0.641532
C183  C     C_3   0.054622 0.295721 0.860250 0.207687
H119  H     H_    0.078980 0.263628 0.864256 0.159430
H120  H     H_    0.060371 0.300608 0.921496 0.084229
C184  C     C_3   0.971916 0.294949 0.782147 -0.251082
H121  H     H_    0.947114 0.326983 0.777030 0.203292
H122  H     H_    0.964996 0.289638 0.720433 0.226117
C185  C     C_3   0.930871 0.258704 0.792498 -1.017107
H123  H     H_    0.953856 0.226263 0.796122 0.272369
H124  H     H_    0.870949 0.259080 0.735035 0.280362
H125  H     H_    0.936287 0.263828 0.853223 0.271302
O12   O     O_3   0.981176 0.712475 0.048735 -0.602562
C186  C     C_3   0.033012 0.722365 0.139810 0.259059
H126  H     H_    0.013360 0.711528 0.178253 0.043744
H127  H     H_    0.044079 0.758084 0.148597 0.161607
C187  C     C_3   0.106137 0.699482 0.178955 -0.309972
H128  H     H_    0.097047 0.663755 0.179340 0.182713
H129  H     H_    0.124321 0.706871 0.138074 0.218226
C188  C     C_3   0.167197 0.714148 0.273157 -1.003891
H130  H     H_    0.178569 0.749734 0.274602 0.293401
H131  H     H_    0.219054 0.696124 0.299751 0.263073
H132  H     H_    0.150480 0.707170 0.315679 0.267684
O13   O     O_3   0.357710 0.876300 0.155055 -0.622271
C189  C     C_3   0.403046 0.840057 0.206856 0.207448
H133  H     H_    0.447806 0.836077 0.200295 0.074335
H134  H     H_    0.372417 0.808383 0.187516 0.130956
C190  C     C_3   0.437943 0.846789 0.304057 -0.266400
H135  H     H_    0.393973 0.853789 0.310690 0.234583
H136  H     H_    0.466054 0.816191 0.341324 0.157708
C191  C     C_3   0.494623 0.884045 0.345272 -0.865843
H137  H     H_    0.542591 0.876044 0.346509 0.237690
H138  H     H_    0.515270 0.889152 0.413982 0.240629
H139  H     H_    0.468173 0.914565 0.307293 0.290751
O14   O     O_3   0.493885 0.210418 0.922077 -0.580715
C192  C     C_3   0.439439 0.211068 0.829280 0.213619
H140  H     H_    0.430749 0.177445 0.803756 0.075937
H141  H     H_    0.454448 0.232320 0.794621 0.086564
C193  C     C_3   0.365715 0.226326 0.806432 -0.194208
H142  H     H_    0.349731 0.204673 0.839261 0.198702
H143  H     H_    0.372123 0.259984 0.831132 0.239544
C194  C     C_3   0.303442 0.225693 0.707356 -1.012048
H144  H     H_    0.317809 0.247415 0.672871 0.274842
H145  H     H_    0.251294 0.237491 0.693335 0.299728
H146  H     H_    0.293835 0.191865 0.681969 0.271456
O15   O     O_3   0.585605 0.826668 0.850481 -0.641666
C195  C     C_3   0.553058 0.793066 0.868316 0.211354
H147  H     H_    0.576652 0.760763 0.871828 0.156173
H148  H     H_    0.562402 0.798935 0.931519 0.084323
C196  C     C_3   0.469341 0.791947 0.794198 -0.250752
H149  H     H_    0.445437 0.824292 0.789290 0.203820
H150  H     H_    0.458763 0.785360 0.730684 0.224929
C197  C     C_3   0.430952 0.756668 0.810736 -1.021872
H151  H     H_    0.452920 0.723901 0.814115 0.273444
H152  H     H_    0.370213 0.756845 0.756205 0.278944
H153  H     H_    0.440213 0.763045 0.873476 0.271596
O16   O     O_3   0.485631 0.211117 0.060710 -0.585735
C198  C     C_3   0.534732 0.218508 0.152877 0.274130
H154  H     H_    0.512667 0.204957 0.187121 0.036750
H155  H     H_    0.545054 0.254070 0.166236 0.155040
C199  C     C_3   0.608807 0.196628 0.192516 -0.299384
H156  H     H_    0.600252 0.160676 0.189449 0.179137
H157  H     H_    0.628672 0.206143 0.154083 0.224243
C200  C     C_3   0.667878 0.209532 0.288459 -1.005673
H158  H     H_    0.678708 0.245351 0.293564 0.290358
H159  H     H_    0.720453 0.192325 0.315169 0.268357
H160  H     H_    0.649499 0.200198 0.328472 0.265374
I1    I     I_    0.734762 0.325522 0.165997 -0.430805
I2    I     I_    0.006416 0.813094 0.885638 -0.299783
I3    I     I_    0.181853 0.278190 0.802778 -0.435354
I4    I     I_    0.932462 0.816632 0.017170 -0.317352
I5    I     I_    0.233888 0.830324 0.168892 -0.440768
I6    I     I_    0.506868 0.315921 0.891538 -0.327271
I7    I     I_    0.674405 0.774500 0.801408 -0.399212
I8    I     I_    0.442285 0.315716 0.033460 -0.327914
I9    I     I_    0.303095 0.562831 0.136055 -0.486732
I10   I     I_    0.765551 0.428870 0.575337 -0.501750
I11   I     I_    0.639017 0.581601 0.666797 -0.535248
I12   I     I_    0.348992 0.429842 0.418265 -0.501484
I13   I     I_    0.802423 0.061558 0.134111 -0.491464
I14   I     I_    0.267136 0.930247 0.574962 -0.499115
I15   I     I_    0.138543 0.081410 0.666448 -0.536813
I16   I     I_    0.849165 0.929316 0.417430 -0.501720
O17   O     O_3   0.836488 0.518824 0.539957 -0.633709
C201  C     C_3   0.829077 0.564733 0.529511 0.237590
H161  H     H_    0.826068 0.575577 0.471909 0.130958
H162  H     H_    0.876790 0.581881 0.589087 0.040816
C202  C     C_3   0.757635 0.577734 0.514589 -0.226677
H163  H     H_    0.710716 0.556792 0.462573 0.224137
H164  H     H_    0.764676 0.572466 0.576579 0.195669
C203  C     C_3   0.738519 0.625525 0.486374 -1.027158
H165  H     H_    0.785490 0.647292 0.535276 0.272296
H166  H     H_    0.688798 0.634349 0.481025 0.284843
H167  H     H_    0.725935 0.630685 0.421182 0.273320
O18   O     O_3   0.158193 0.480626 0.456031 -0.643878
C204  C     C_3   0.193779 0.521354 0.468028 0.205497
H168  H     H_    0.224085 0.531976 0.537384 0.138910
H169  H     H_    0.154493 0.547803 0.424014 0.065343
C205  C     C_3   0.249265 0.515547 0.449182 -0.231928
H170  H     H_    0.292908 0.492277 0.497995 0.235363
H171  H     H_    0.219887 0.501650 0.382195 0.221571
C206  C     C_3   0.285939 0.558818 0.454000 -1.003560
H172  H     H_    0.243401 0.582130 0.403752 0.258912
H173  H     H_    0.326286 0.553034 0.440811 0.287768
H174  H     H_    0.316088 0.573339 0.520515 0.274556
O19   O     O_3   0.339670 0.021353 0.541663 -0.634232
C207  C     C_3   0.335448 0.067500 0.537250 0.228603
H175  H     H_    0.325069 0.079617 0.475805 0.135549
H176  H     H_    0.387505 0.083217 0.594358 0.048034
C208  C     C_3   0.271233 0.081160 0.537087 -0.233937
H177  H     H_    0.218592 0.065937 0.480256 0.218374
H178  H     H_    0.281922 0.069315 0.598701 0.199177
C209  C     C_3   0.262801 0.130726 0.531461 -1.037970
H179  H     H_    0.314728 0.146491 0.588215 0.261110
H180  H     H_    0.216432 0.139413 0.532907 0.289611
H181  H     H_    0.250181 0.143297 0.469152 0.275164
O20   O     O_3   0.661550 0.981058 0.458509 -0.643884
C210  C     C_3   0.697868 0.021520 0.470674 0.204829
H182  H     H_    0.727963 0.032273 0.539920 0.138346
H183  H     H_    0.659088 0.048073 0.426303 0.065940
C211  C     C_3   0.753687 0.015092 0.452550 -0.232359
H184  H     H_    0.796759 0.991610 0.501506 0.235251
H185  H     H_    0.724374 0.001197 0.385574 0.222053
C212  C     C_3   0.791321 0.058039 0.457844 -1.002019
H186  H     H_    0.749362 0.081563 0.407537 0.259385
H187  H     H_    0.831818 0.051816 0.445063 0.287891
H188  H     H_    0.821460 0.072540 0.524375 0.274304
O21   O     O_3   0.781035 0.508196 0.374110 -0.657623
C213  C     C_3   0.748638 0.467287 0.369233 0.272376
H189  H     H_    0.708627 0.473159 0.382919 0.157620
H190  H     H_    0.789461 0.443026 0.419499 0.114859
C214  C     C_3   0.705906 0.448209 0.276583 -0.404256
H191  H     H_    0.666772 0.473034 0.227174 0.224909
H192  H     H_    0.745576 0.439648 0.263613 0.225605
C215  C     C_3   0.661929 0.407264 0.266277 -0.856637
H193  H     H_    0.700078 0.381678 0.314122 0.273252
H194  H     H_    0.631629 0.394227 0.198598 0.298990
H195  H     H_    0.620730 0.415146 0.277201 0.248709
O22   O     O_3   0.202365 0.461175 0.612923 -0.644358
C216  C     C_3   0.209066 0.415659 0.606849 0.261410
H196  H     H_    0.245578 0.411545 0.587404 0.159901
H197  H     H_    0.155319 0.398879 0.555204 0.070911
C217  C     C_3   0.245744 0.393466 0.696548 -0.363533
H198  H     H_    0.297893 0.411299 0.747724 0.234652
H199  H     H_    0.207698 0.394475 0.714294 0.212178
C218  C     C_3   0.264124 0.345831 0.695482 -0.875192
H200  H     H_    0.212621 0.327081 0.645935 0.265768
H201  H     H_    0.290606 0.330856 0.761367 0.297917
H202  H     H_    0.303435 0.343760 0.679719 0.265853
O23   O     O_3   0.284891 0.013185 0.375914 -0.658298
C219  C     C_3   0.250899 0.972612 0.369320 0.275398
H203  H     H_    0.211219 0.978764 0.383418 0.159746
H204  H     H_    0.290735 0.947648 0.418431 0.114025
C220  C     C_3   0.207360 0.954499 0.275842 -0.403346
H205  H     H_    0.169227 0.979986 0.227556 0.224423
H206  H     H_    0.246630 0.945633 0.262422 0.225547
C221  C     C_3   0.161779 0.914055 0.263836 -0.864160
H207  H     H_    0.198902 0.887825 0.310519 0.275926
H208  H     H_    0.130893 0.901712 0.195578 0.296604
H209  H     H_    0.120987 0.922274 0.275233 0.248193
O24   O     O_3   0.704885 0.961446 0.615023 -0.643300
C222  C     C_3   0.710362 0.915846 0.608223 0.261971
H210  H     H_    0.747469 0.911320 0.589743 0.159243
H211  H     H_    0.656308 0.899679 0.555553 0.071910
C223  C     C_3   0.745307 0.893235 0.697188 -0.375379
H212  H     H_    0.797760 0.910499 0.749379 0.236262
H213  H     H_    0.706567 0.894601 0.713865 0.210610
C224  C     C_3   0.762411 0.845402 0.695422 -0.856926
H214  H     H_    0.710538 0.827268 0.644689 0.261462
H215  H     H_    0.787495 0.830065 0.760704 0.301096
H216  H     H_    0.802461 0.842948 0.680839 0.261879
O25   O     O_3   0.605951 0.323573 0.817555 -0.613093
C225  C     C_3   0.614843 0.285416 0.784208 0.233571
H217  H     H_    0.558390 0.274660 0.726819 0.131589
H218  H     H_    0.637454 0.257745 0.831645 0.038801
C226  C     C_3   0.661527 0.294020 0.752354 -0.277546
H219  H     H_    0.637343 0.321654 0.704472 0.241195
H220  H     H_    0.719546 0.302762 0.808923 0.196130
C227  C     C_3   0.663750 0.253648 0.708440 -1.038849
H221  H     H_    0.688658 0.225770 0.755681 0.266897
H222  H     H_    0.698245 0.260760 0.686738 0.283957
H223  H     H_    0.606752 0.244465 0.649949 0.272314
O26   O     O_3   0.291816 0.752077 0.076883 -0.672583
C228  C     C_3   0.312924 0.736130 0.026688 0.176494
H224  H     H_    0.271967 0.745029 0.955939 0.083858
H225  H     H_    0.318443 0.699920 0.033300 0.157905
C229  C     C_3   0.387695 0.756582 0.060316 -0.310472
H226  H     H_    0.382512 0.792744 0.054440 0.195050
H227  H     H_    0.430395 0.747926 0.130859 0.195694
C230  C     C_3   0.412847 0.740947 0.007529 -0.996283
H228  H     H_    0.419933 0.704902 0.013603 0.274629
H229  H     H_    0.466913 0.756665 0.033026 0.267328
H230  H     H_    0.371229 0.749941 0.936966 0.271223
O27   O     O_3   0.381152 0.319199 0.154434 -0.645121
C231  C     C_3   0.379367 0.304689 0.223463 0.250381
H231  H     H_    0.398572 0.270272 0.239242 0.083837
H232  H     H_    0.323171 0.305128 0.207348 0.086988
C232  C     C_3   0.433040 0.332600 0.305240 -0.258987
H233  H     H_    0.489645 0.331244 0.323357 0.202668
H234  H     H_    0.414739 0.367145 0.290862 0.233617
C233  C     C_3   0.436260 0.316749 0.383104 -0.974881
H235  H     H_    0.380411 0.318669 0.366891 0.282682
H236  H     H_    0.475476 0.337762 0.441086 0.284776
H237  H     H_    0.455928 0.282453 0.400341 0.256121
O28   O     O_3   0.716364 0.724070 0.001996 -0.670755
C234  C     C_3   0.735152 0.714316 0.085383 0.229084
H238  H     H_    0.791922 0.726248 0.140686 0.055801
H239  H     H_    0.732340 0.678312 0.092210 0.142232
C235  C     C_3   0.679154 0.736359 0.092110 -0.324923
H240  H     H_    0.680747 0.772262 0.083296 0.188648
H241  H     H_    0.622206 0.724059 0.038933 0.207339
C236  C     C_3   0.696440 0.727477 0.181200 -0.999204
H242  H     H_    0.694538 0.691770 0.191290 0.269797
H243  H     H_    0.654494 0.743754 0.183543 0.273672
H244  H     H_    0.752408 0.740635 0.235132 0.262916
O29   O     O_3   0.112126 0.819246 0.822973 -0.612198
C237  C     C_3   0.126902 0.780771 0.796233 0.223579
H245  H     H_    0.072585 0.768010 0.737916 0.123126
H246  H     H_    0.149905 0.754398 0.846462 0.036249
C238  C     C_3   0.177062 0.789549 0.769205 -0.271278
H247  H     H_    0.152659 0.815897 0.718508 0.241174
H248  H     H_    0.233313 0.800164 0.827206 0.192749
C239  C     C_3   0.185585 0.748492 0.732176 -1.038924
H249  H     H_    0.210843 0.721911 0.782386 0.267553
H250  H     H_    0.222458 0.755755 0.713870 0.282137
H251  H     H_    0.130601 0.737352 0.672534 0.271631
O30   O     O_3   0.786035 0.250678 0.057794 -0.674982
C240  C     C_3   0.802172 0.236067 0.002042 0.176704
H252  H     H_    0.760556 0.248041 0.933535 0.083758
H253  H     H_    0.803485 0.199684 0.002354 0.155382
C241  C     C_3   0.878213 0.254205 0.035320 -0.301523
H254  H     H_    0.877750 0.290486 0.037316 0.195671
H255  H     H_    0.921516 0.241924 0.103176 0.195088
C242  C     C_3   0.897770 0.240905 0.975709 -0.998992
H256  H     H_    0.899518 0.204714 0.973336 0.274589
H257  H     H_    0.953287 0.254535 0.001840 0.266915
H258  H     H_    0.856002 0.253854 0.907983 0.271131
O31   O     O_3   0.880689 0.819740 0.150049 -0.647069
C243  C     C_3   0.881437 0.805002 0.220816 0.250626
H259  H     H_    0.902091 0.770880 0.236856 0.083962
H260  H     H_    0.825921 0.804578 0.206559 0.087399
C244  C     C_3   0.935114 0.833514 0.301587 -0.261061
H261  H     H_    0.991117 0.833096 0.317874 0.202794
H262  H     H_    0.915334 0.867761 0.287028 0.233977
C245  C     C_3   0.941063 0.817418 0.381153 -0.974865
H263  H     H_    0.885820 0.818406 0.366745 0.282394
H264  H     H_    0.980178 0.838887 0.438349 0.284499
H265  H     H_    0.962245 0.783427 0.398614 0.256290
O32   O     O_3   0.214093 0.225251 0.996241 -0.671238
C246  C     C_3   0.230341 0.215639 0.078387 0.225449
H266  H     H_    0.286225 0.228064 0.134917 0.057071
H267  H     H_    0.228083 0.179616 0.085559 0.140779
C247  C     C_3   0.172040 0.237236 0.081503 -0.323155
H268  H     H_    0.173549 0.273171 0.072979 0.188421
H269  H     H_    0.115815 0.224707 0.026680 0.207322
C248  C     C_3   0.186233 0.228186 0.168856 -1.000155
H270  H     H_    0.184283 0.192443 0.178590 0.270453
H271  H     H_    0.142751 0.244203 0.168645 0.273108
H272  H     H_    0.241450 0.241510 0.224353 0.262708

loop_
_geom_bond_atom_site_label_1
_geom_bond_atom_site_label_2
_ccdc_geom_bond_type
C101  C107  A    
C194  H146  S    
C44   O4    S    
C246  H266  S    
C22   C29   A    
C48   O8    S    
C218  H200  S    
C34   C42   A    
C229  C230  S    
C39   C87   A    
C208  H177  S    
C13   C25   A    
C103  I15   S    
C170  H89   S    
C178  H107  S    
C212  H188  S    
C235  C236  S    
C9    C149  A    
C3    C131  A    
C191  H138  S    
C195  H148  S    
C144  C151  S    
C1    C129  A    
C35   O27   S    
C92   C109  A    
C178  C179  S    
C175  C176  S    
C7    H7    S    
C157  C158  S    
N25   N28   A    
C121  N25   A    
C185  H125  S    
C239  H250  S    
O4    C162  S    
C198  C199  S    
C107  C140  S    
C9    C13   A    
C190  C191  S    
C105  C138  S    
C146  C150  A    
C11   C15   A    
C12   C16   A    
C95   C103  A    
C241  H254  S    
C236  H243  S    
C2    N2    A    
C153  H50   S    
C96   H16   S    
N3    N10   A    
C67   N11   A    
C175  H101  S    
C39   O31   S    
C146  H42   S    
N1    N12   A    
C81   C86   S    
C171  C172  S    
C104  I16   S    
C188  H132  S    
C97   C105  A    
C83   C88   S    
C200  H159  S    
C154  H51   S    
C76   C84   A    
C117  C139  A    
C69   H21   S    
C118  C140  A    
C41   C49   A    
C155  H54   S    
C229  H226  S    
C220  H206  S    
C25   C29   A    
C11   O19   S    
C153  C154  S    
C177  H105  S    
C27   C31   A    
C98   I10   S    
C28   C32   A    
O10   C180  S    
C93   C101  A    
C224  H215  S    
O32   C246  S    
C238  C239  S    
C173  H95   S    
C202  H163  S    
C60   C76   A    
C17   C21   A    
C164  H76   S    
C19   C23   A    
C205  C206  S    
C213  H190  S    
N2    Ni2   S    
C15   C27   A    
C170  H88   S    
C16   C20   A    
C240  C241  S    
C183  H119  S    
C162  C163  S    
C119  N23   A    
N6    Ni6   S    
C14   C26   A    
C79   C87   A    
O6    C168  S    
C210  H183  S    
C28   O24   S    
C228  H225  S    
N23   Ni5   S    
C161  H68   S    
C36   C44   A    
C37   C45   A    
C245  H265  S    
C169  H86   S    
C247  C248  S    
C39   C47   A    
C193  H142  S    
C202  C203  S    
C196  H150  S    
C96   C104  A    
C235  H240  S    
C165  C166  S    
C179  H109  S    
C158  H61   S    
C242  H258  S    
C217  C218  S    
C25   O21   S    
C82   C85   S    
C98   C106  A    
C79   I7    S    
C205  H170  S    
C40   C88   A    
C19   C20   A    
C167  H82   S    
C212  H186  S    
C80   C88   A    
O30   C240  S    
C165  H78   S    
C72   C133  A    
C59   O11   S    
C241  C242  S    
C245  H264  S    
O22   C216  S    
C209  H180  S    
C204  H168  S    
C50   C131  S    
C123  N27   A    
O26   C228  S    
C94   C102  A    
N4    Ni4   S    
C245  H263  S    
C246  C247  S    
C89   C97   A    
C47   O7    S    
C26   O22   S    
N24   Ni6   S    
C104  C107  A    
C191  H137  S    
C192  H141  S    
C174  H99   S    
C248  H270  S    
C58   O10   S    
C118  N22   A    
C160  H66   S    
C12   C152  A    
O11   C183  S    
N2    N11   A    
C43   C51   A    
N17   Ni3   S    
C9    O17   S    
C4    C132  A    
O29   C237  S    
C217  H198  S    
C5    C133  A    
C208  H178  S    
O24   C222  S    
N21   Ni7   S    
C119  C140  A    
C142  C149  S    
C243  H260  S    
N29   N32   A    
C125  N29   A    
C227  H223  S    
C156  H56   S    
C160  C161  S    
C76   I4    S    
O12   C186  S    
C196  H149  S    
C183  C184  S    
C49   C57   A    
C219  H203  S    
O1    C153  S    
N10   Ni1   S    
C57   C73   A    
C126  H38   S    
C189  H133  S    
C52   C60   A    
C187  H128  S    
C53   C61   A    
C22   C146  A    
N5    N16   A    
C61   C77   A    
C207  H175  S    
C114  H26   S    
C157  H59   S    
C56   C64   A    
C102  I14   S    
C35   C43   A    
C169  C170  S    
C243  C244  S    
C44   C52   A    
C113  H25   S    
C222  C223  S    
C77   C85   A    
C2    H2    S    
C226  H219  S    
C230  H230  S    
C168  H85   S    
N30   Ni7   S    
N30   N31   A    
C46   O6    S    
C114  N18   A    
C179  H111  S    
C215  H193  S    
C6    H6    S    
C171  H92   S    
C141  C150  S    
C214  H191  S    
C178  H108  S    
C38   O30   S    
C180  H113  S    
C96   C111  A    
C231  C232  S    
C232  C233  S    
C233  H237  S    
C7    N7    A    
N13   Ni6   S    
C10   C14   A    
C124  H36   S    
C211  H184  S    
C227  H221  S    
C106  C137  S    
C163  C164  S    
N7    N14   A    
C127  H39   S    
C41   O1    S    
O18   C204  S    
C128  H40   S    
C189  C190  S    
C204  C205  S    
C147  C151  A    
C216  H197  S    
O27   C231  S    
C17   C18   A    
N28   Ni1   S    
C119  H31   S    
C185  H124  S    
C70   H22   S    
C187  C188  S    
C199  H156  S    
C42   C50   A    
C191  H139  S    
C11   C151  A    
C30   H46   S    
O20   C210  S    
C248  H272  S    
C172  H94   S    
N32   Ni5   S    
C186  C187  S    
C124  C141  A    
C154  C155  S    
C99   I11   S    
C222  H210  S    
C68   N12   A    
C65   C132  A    
C97   I9    S    
C58   C74   A    
C197  H151  S    
C194  H145  S    
C99   C106  A    
C237  H245  S    
C184  H122  S    
C18   C22   A    
N25   Ni4   S    
C62   C78   A    
C148  C152  A    
C211  C212  S    
C95   H15   S    
C244  C245  S    
C160  H65   S    
C26   C30   A    
C164  H75   S    
C219  C220  S    
C13   C17   A    
C223  H212  S    
C37   O29   S    
C182  H118  S    
C43   O3    S    
C209  H181  S    
C125  C143  A    
C207  C208  S    
C71   N15   A    
C54   C135  S    
C94   C112  A    
C218  H202  S    
C114  C138  A    
C213  H189  S    
C234  C235  S    
C190  H136  S    
C225  H217  S    
C206  H172  S    
C51   C59   A    
C181  H114  S    
C227  H222  S    
C236  H242  S    
C128  N32   A    
C226  C227  S    
C230  H228  S    
C90   C110  A    
C163  H72   S    
O2    C156  S    
C34   C82   A    
C91   C99   A    
C215  H195  S    
C64   O16   S    
C188  H131  S    
C237  C238  S    
N6    N15   A    
C200  H158  S    
C8    C136  A    
C3    N3    A    
N19   Ni1   S    
C162  H70   S    
C161  H69   S    
C1    N1    A    
C94   H14   S    
C71   C134  A    
C31   H47   S    
C201  H161  S    
O3    C159  S    
N17   N20   A    
C15   C19   A    
N8    N13   A    
C177  H106  S    
N31   Ni6   S    
C52   C129  S    
N5    Ni5   S    
C91   C110  A    
C47   C55   A    
C66   C131  A    
N21   N24   A    
C95   C112  A    
C224  H214  S    
C238  H248  S    
C173  H96   S    
C122  N26   A    
C166  C167  S    
C45   O5    S    
C203  H165  S    
C48   C56   A    
O9    C177  S    
C73   C81   A    
N9    Ni2   S    
C117  N21   A    
C68   C129  A    
C111  C112  S    
C90   H10   S    
C240  H253  S    
C177  C178  S    
C183  H120  S    
N4    N9    A    
C186  H126  S    
C84   C87   S    
C145  H41   S    
N7    Ni7   S    
C173  H97   S    
C118  H30   S    
C175  H100  S    
C42   O2    S    
O19   C207  S    
C228  H224  S    
C62   O14   S    
C64   C80   A    
C221  H209  S    
C91   H11   S    
C74   C82   A    
C89   H9    S    
C5    N5    A    
C169  H87   S    
C170  H90   S    
C202  H164  S    
C49   C132  S    
C235  H241  S    
O7    C171  S    
C50   C58   A    
C121  C141  A    
C69   N13   A    
C195  H147  S    
C179  H110  S    
C182  H116  S    
C242  H257  S    
C35   C83   A    
C209  H179  S    
C54   C62   A    
C23   C147  A    
C45   C53   A    
C65   H17   S    
C239  H249  S    
C70   N14   A    
O31   C243  S    
N3    Ni3   S    
O21   C213  S    
C108  C139  S    
C101  I13   S    
C181  C182  S    
C220  H205  S    
C236  H244  S    
C46   C54   A    
C3    H3    S    
C153  H49   S    
C1    H1    S    
O17   C201  S    
C93   C111  A    
C143  C152  S    
C72   N16   A    
C38   C86   A    
C69   C136  A    
C5    H5    S    
C154  H52   S    
C70   C135  A    
C67   C130  A    
C212  H187  S    
O28   C234  S    
C77   I5    S    
C8    H8    S    
C231  H231  S    
C155  H53   S    
C75   I3    S    
C192  H140  S    
C220  C221  S    
N20   Ni2   S    
N27   Ni2   S    
C73   I1    S    
C126  N30   A    
C229  H227  S    
C224  H216  S    
C10   O18   S    
O15   C195  S    
C55   C134  S    
C21   C30   A    
C203  H167  S    
C33   C41   A    
C23   C32   A    
C156  C157  S    
C221  H207  S    
C24   C31   A    
N18   Ni4   S    
C32   H48   S    
C109  C110  S    
C10   C150  A    
C233  H236  S    
C68   H20   S    
C75   C83   A    
C247  H268  S    
C233  H235  S    
C123  C142  A    
N22   Ni8   S    
C2    C130  A    
C232  H233  S    
C219  H204  S    
C211  H185  S    
C127  C144  A    
C72   H24   S    
C176  H102  S    
C128  C143  A    
C189  H134  S    
C122  H34   S    
C174  H98   S    
C210  C211  S    
C159  H64   S    
C116  C137  A    
C228  C229  S    
C120  H32   S    
C161  H67   S    
N15   Ni8   S    
C145  C149  A    
C21   C145  A    
C206  H173  S    
C16   C28   A    
C196  C197  S    
C172  H93   S    
C222  H211  S    
C230  H229  S    
C168  H84   S    
C14   C18   A    
C36   O28   S    
C195  C196  S    
C234  H238  S    
C158  H62   S    
O14   C192  S    
N8    Ni8   S    
C215  H194  S    
C56   C133  S    
C238  H247  S    
C194  H144  S    
C63   C79   A    
C180  H112  S    
C100  C105  A    
O5    C165  S    
C239  H251  S    
C37   C85   A    
C167  H81   S    
C162  H71   S    
C159  C160  S    
C165  H77   S    
C117  H29   S    
C4    N4    A    
C100  I12   S    
C40   O32   S    
O23   C219  S    
C71   H23   S    
C89   C109  A    
C60   O12   S    
N11   Ni4   S    
C176  H103  S    
C126  C144  A    
C8    N8    A    
C40   C48   A    
C166  H80   S    
N1    Ni1   S    
C148  H44   S    
C193  C194  S    
C184  H121  S    
C203  H166  S    
C27   O23   S    
C198  H154  S    
C102  C108  A    
C103  C108  A    
C216  H196  S    
C65   N9    A    
C155  H55   S    
C192  C193  S    
C78   C86   A    
C198  H155  S    
C174  C175  S    
C93   H13   S    
C248  H271  S    
C186  H127  S    
C115  N19   A    
N22   N23   A    
C53   C136  S    
C63   O15   S    
C113  N17   A    
C124  N28   A    
C51   C130  S    
C197  H152  S    
C193  H143  S    
C208  C209  S    
C237  H246  S    
C38   C46   A    
C20   C24   A    
N14   Ni5   S    
C243  H259  S    
C199  C200  S    
C24   C148  A    
C221  H208  S    
C244  H262  S    
C159  H63   S    
C6    N6    A    
C213  C214  S    
C67   H19   S    
C164  H74   S    
C61   O13   S    
C214  C215  S    
C80   I8    S    
N26   Ni3   S    
C55   C63   A    
C121  H33   S    
C176  H104  S    
C223  H213  S    
C7    C135  A    
O8    C174  S    
C182  H117  S    
C197  H153  S    
C116  N20   A    
C156  H57   S    
C210  H182  S    
C115  C138  A    
C157  H58   S    
C127  N31   A    
C218  H201  S    
C120  C139  A    
N29   Ni8   S    
C147  H43   S    
C234  H239  S    
C190  H135  S    
C225  H218  S    
C241  H255  S    
C181  H115  S    
N26   N27   A    
C29   H45   S    
C226  H220  S    
C232  H234  S    
C168  C169  S    
C163  H73   S    
C223  C224  S    
C66   N10   A    
C122  C142  A    
C158  H60   S    
C59   C75   A    
N12   Ni3   S    
C171  H91   S    
C92   C100  A    
C166  H79   S    
C188  H130  S    
O25   C225  S    
C180  C181  S    
C57   O9    S    
O16   C198  S    
C116  H28   S    
C4    H4    S    
N16   Ni7   S    
C199  H157  S    
C66   H18   S    
C167  H83   S    
C225  C226  S    
C201  H162  S    
C247  H269  S    
C200  H160  S    
C204  H169  S    
C231  H232  S    
C207  H176  S    
C206  H174  S    
C246  H267  S    
C242  H256  S    
C6    C134  A    
O13   C189  S    
C92   H12   S    
N18   N19   A    
C34   O26   S    
C36   C84   A    
C214  H192  S    
C217  H199  S    
C113  C137  A    
C123  H35   S    
C185  H123  S    
C216  C217  S    
C187  H129  S    
C78   I6    S    
C201  C202  S    
C205  H171  S    
C12   O20   S    
C244  H261  S    
C184  C185  S    
C120  N24   A    
C240  H252  S    
C172  C173  S    
C33   O25   S    
C74   I2    S    
C125  H37   S    
C33   C81   A    
C90   C98   A    
C115  H27   S    
