data_mof_unit_52010.cif
_audit_creation_date              2013-03-05T15:50:45-0500
_audit_creation_method            fapswitch 2.2
_symmetry_space_group_name_H-M    P1
_symmetry_Int_Tables_number       1
_space_group_crystal_system       triclinic
_cell_length_a                    14.305139
_cell_length_b                    14.786368
_cell_length_c                    33.137063
_cell_angle_alpha                 97.837116
_cell_angle_beta                  90.422365
_cell_angle_gamma                 118.697416
_cell_volume                      6069.36606098

loop_
_atom_site_label
_atom_site_type_symbol
_atom_site_description
_atom_site_fract_x
_atom_site_fract_y
_atom_site_fract_z
_atom_type_partial_charge
O1    O     O_R   0.318160 0.824460 0.443680 -0.536876
O2    O     O_R   0.525040 0.857250 0.449830 -0.500312
C1    C     C_R   0.616608 0.910239 0.436916 0.557801
O3    O     O_R   0.684760 0.998800 0.456360 -0.502829
O4    O     O_R   0.647540 0.166310 0.470260 -0.510818
C2    C     C_R   0.594063 0.205454 0.456551 0.545446
O5    O     O_R   0.500960 0.181750 0.467450 -0.481406
O6    O     O_R   0.331100 0.981120 0.457080 -0.438414
C3    C     C_R   0.292822 0.891525 0.434923 0.559220
O7    O     O_R   0.315560 0.821140 0.532010 -0.459353
O8    O     O_R   0.522630 0.854180 0.531710 -0.509078
C4    C     C_R   0.614725 0.903601 0.551125 0.561285
O9    O     O_R   0.682160 0.995480 0.544690 -0.480317
O10   O     O_R   0.645130 0.163230 0.552140 -0.499098
C5    C     C_R   0.590835 0.201819 0.570809 0.569256
O11   O     O_R   0.498360 0.178430 0.555780 -0.452475
O12   O     O_R   0.328690 0.978040 0.538950 -0.497861
C6    C     C_R   0.289379 0.887172 0.548882 0.561507
Cr1   Cr    Cr6+3 0.424820 0.846020 0.489780 1.036413
Cr2   Cr    Cr6+3 0.657880 0.078580 0.505700 1.034406
Cr3   Cr    Cr6+3 0.417280 0.075360 0.504550 1.148115
O13   O     O_3   0.499990 0.999990 0.500010 -0.274805
C7    C     C_R   0.734283 0.440330 0.104379 0.033370
C8    C     C_R   0.647967 0.426199 0.128365 0.244520
C9    C     C_R   0.655383 0.416031 0.169557 -0.115814
C10   C     C_R   0.746793 0.420861 0.187242 -0.050080
C11   C     C_R   0.826388 0.422961 0.162665 -0.121232
C12   C     C_R   0.819555 0.429053 0.120968 0.141442
C13   C     C_R   0.771769 0.340809 0.244860 -0.130970
C14   C     C_R   0.763963 0.328558 0.285800 -0.174792
C15   C     C_R   0.737744 0.391999 0.313539 0.038275
C16   C     C_R   0.724838 0.472403 0.300522 0.277247
C17   C     C_R   0.735320 0.485524 0.259222 -0.109740
C18   C     C_R   0.754323 0.417247 0.231180 -0.004967
C19   C     C_R   0.607668 0.340405 0.366555 -0.079691
C20   C     C_R   0.572188 0.294965 0.401486 -0.120245
C21   C     C_R   0.742093 0.299825 0.413487 -0.118427
C22   C     C_R   0.777538 0.345469 0.378599 -0.119915
C23   C     C_R   0.709490 0.363446 0.354324 0.066646
C24   C     C_R   0.637723 0.270877 0.424442 0.017951
H1    H     H_    0.856292 0.362696 0.369563 0.111716
H2    H     H_    0.772461 0.265493 0.295374 0.123957
H3    H     H_    0.786170 0.287367 0.223524 0.123091
H4    H     H_    0.589302 0.402868 0.188036 0.115051
H5    H     H_    0.726598 0.547339 0.248579 0.102278
H6    H     H_    0.552987 0.351418 0.347692 0.128876
H7    H     H_    0.491357 0.273194 0.409083 0.173457
H8    H     H_    0.893436 0.418953 0.175995 0.148616
H9    H     H_    0.794736 0.282856 0.430789 0.136598
H10   H     H_    0.232582 0.724785 0.376000 0.142454
C25   C     C_R   0.234265 0.871945 0.394780 -0.037921
C26   C     C_R   0.211899 0.947366 0.381424 0.191719
C27   C     C_R   0.189533 0.941043 0.339552 -0.123506
C28   C     C_R   0.182332 0.857943 0.311527 0.007098
C29   C     C_R   0.187970 0.774995 0.325207 0.261586
C30   C     C_R   0.217126 0.784026 0.366585 -0.153908
C31   C     C_R   0.204248 0.811844 0.161983 0.287238
C32   C     C_R   0.183840 0.802235 0.119285 0.288601
C33   C     C_R   0.063509 0.874364 0.132114 -0.183786
C34   C     C_R   0.087138 0.888331 0.173917 -0.172396
C35   C     C_R   0.154259 0.854576 0.189054 -0.009436
C36   C     C_1   0.166099 0.859694 0.232444 0.021267
C37   C     C_1   0.172890 0.859852 0.268606 0.041138
C38   C     C_R   0.107836 0.827578 0.104656 0.014594
H11   H     H_    0.048569 0.920876 0.194588 0.176565
H12   H     H_    0.004369 0.893426 0.121424 0.149081
H13   H     H_    0.178667 0.001606 0.328727 0.181700
H14   H     H_    0.870937 0.960301 0.122481 0.142511
H15   H     H_    0.806222 0.978808 0.403082 0.182826
C39   C     C_R   0.635399 0.878511 0.395015 -0.027980
C40   C     C_R   0.547665 0.811427 0.366763 -0.151002
C41   C     C_R   0.561211 0.800176 0.325207 -0.175933
C42   C     C_R   0.662584 0.854294 0.311272 0.010211
C43   C     C_R   0.753358 0.915827 0.339430 0.223722
C44   C     C_R   0.738198 0.927998 0.381272 -0.104017
C45   C     C_R   0.777990 0.925683 0.174339 0.275662
C46   C     C_R   0.793961 0.909914 0.132836 -0.109594
C47   C     C_R   0.616059 0.760259 0.120290 -0.136527
C48   C     C_R   0.600942 0.773873 0.161693 -0.166370
C49   C     C_R   0.683456 0.853257 0.188935 0.046339
C50   C     C_1   0.674640 0.854227 0.231989 0.043212
C51   C     C_1   0.669193 0.853772 0.268101 0.033653
C52   C     C_R   0.715010 0.823997 0.106011 -0.007689
H16   H     H_    0.467337 0.772896 0.376407 0.148862
H17   H     H_    0.527440 0.718733 0.172809 0.105661
H18   H     H_    0.553233 0.695536 0.099913 0.128880
H19   H     H_    0.491501 0.752654 0.303713 0.125897
C53   C     C_R   0.626053 0.256689 0.613931 -0.011574
C54   C     C_R   0.549936 0.260077 0.640434 0.156642
C55   C     C_R   0.570987 0.272395 0.682568 -0.136564
C56   C     C_R   0.670346 0.293786 0.699299 -0.061159
C57   C     C_R   0.754208 0.312397 0.673931 0.225263
C58   C     C_R   0.730981 0.289665 0.630833 0.221589
C59   C     C_R   0.752198 0.308286 0.849148 0.114593
C60   C     C_R   0.751803 0.330027 0.891992 0.412865
C61   C     C_R   0.612062 0.376023 0.881730 -0.208983
C62   C     C_R   0.610150 0.350599 0.839715 -0.141646
C63   C     C_R   0.682614 0.321081 0.823245 0.006509
C64   C     C_1   0.686458 0.309377 0.779618 0.086905
C65   C     C_1   0.683686 0.302755 0.742986 0.077110
C66   C     C_R   0.686971 0.372647 0.908326 0.087115
H20   H     H_    0.555385 0.359141 0.819828 0.204973
H21   H     H_    0.560244 0.406514 0.893062 0.183459
H22   H     H_    0.510028 0.268231 0.702682 0.199558
C67   C     C_R   0.086642 0.768202 0.912516 -0.066494
C68   C     C_R   0.120277 0.870417 0.904238 0.150932
C69   C     C_R   0.139645 0.890920 0.864226 0.167692
C70   C     C_R   0.129509 0.811258 0.833253 -0.088214
C71   C     C_R   0.111774 0.714285 0.842632 0.202982
C72   C     C_R   0.095524 0.694751 0.882992 0.204688
C73   C     C_R   0.233413 0.847346 0.772976 -0.039928
C74   C     C_R   0.241049 0.858151 0.732127 -0.113778
C75   C     C_R   0.154815 0.850779 0.708757 0.075636
C76   C     C_R   0.062253 0.840203 0.727417 0.290316
C77   C     C_R   0.056400 0.830729 0.768946 -0.011095
C78   C     C_R   0.140328 0.831004 0.791099 0.044258
C79   C     C_R   0.182385 0.939406 0.647242 0.179566
C80   C     C_R   0.212939 0.944978 0.607356 -0.146555
C81   C     C_R   0.194614 0.771329 0.600688 0.238201
C82   C     C_R   0.168330 0.766455 0.641485 0.254142
C83   C     C_R   0.165188 0.851703 0.664869 0.006413
C84   C     C_R   0.227246 0.865299 0.585081 -0.065494
H23   H     H_    0.313327 0.869052 0.718272 0.147313
H24   H     H_    0.298829 0.849449 0.790347 0.217414
H25   H     H_    0.985072 0.819386 0.783729 0.156833
H26   H     H_    0.233031 0.015530 0.594884 0.215653
C85   C     C_R   0.661328 0.742687 0.911288 -0.032873
C86   C     C_R   0.582536 0.650226 0.887462 -0.131348
C87   C     C_R   0.553356 0.648689 0.846577 0.224164
C88   C     C_R   0.605449 0.742431 0.829816 0.042854
C89   C     C_R   0.676652 0.835969 0.854866 -0.089033
C90   C     C_R   0.704366 0.836217 0.895174 -0.070217
C91   C     C_R   0.553214 0.796190 0.768580 0.252357
C92   C     C_R   0.565614 0.811159 0.727463 0.230678
C93   C     C_R   0.620205 0.768339 0.702843 0.009126
C94   C     C_R   0.663134 0.711377 0.719608 0.233436
C95   C     C_R   0.653926 0.702007 0.761099 -0.111297
C96   C     C_R   0.600313 0.743969 0.785475 -0.032039
C97   C     C_R   0.543920 0.723403 0.629588 0.247839
C98   C     C_R   0.546393 0.760951 0.592826 -0.142058
C99   C     C_R   0.726564 0.903955 0.612035 0.189387
C100  C     C_R   0.722727 0.869178 0.649704 -0.096619
C101  C     C_R   0.629839 0.784209 0.659690 0.034701
C102  C     C_R   0.633031 0.855208 0.584869 -0.049336
H27   H     H_    0.547624 0.578241 0.900103 0.160381
H28   H     H_    0.764487 0.908825 0.912978 0.218978
H29   H     H_    0.791014 0.910932 0.672134 0.209326
H30   H     H_    0.689078 0.661747 0.774888 0.163482
H31   H     H_    0.477171 0.718123 0.570907 0.193762
H32   H     H_    0.716354 0.908087 0.842329 0.177642
O14   O     O_R   0.828710 0.851830 0.052170 -0.491165
O15   O     O_R   0.005980 0.823990 0.047210 -0.487625
C103  C     C_R   0.053584 0.781982 0.063346 0.564492
O16   O     O_R   0.031900 0.688850 0.050170 -0.523204
O17   O     O_R   0.830940 0.518420 0.048680 -0.427753
C104  C     C_R   0.742756 0.483579 0.065663 0.635577
O18   O     O_R   0.668160 0.499860 0.053480 -0.466237
O19   O     O_R   0.689170 0.693840 0.050110 -0.517737
C105  C     C_R   0.742731 0.789871 0.066215 0.545902
O20   O     O_R   0.803860 0.812940 0.962540 -0.471346
O21   O     O_R   0.982950 0.787950 0.964120 -0.463508
C106  C     C_R   0.025763 0.734819 0.948486 0.557411
O22   O     O_R   0.007050 0.649970 0.960540 -0.503711
O23   O     O_R   0.807910 0.482370 0.965590 -0.295253
C107  C     C_R   0.711568 0.435789 0.949623 0.822065
O24   O     O_R   0.643310 0.460980 0.963840 -0.543995
O25   O     O_R   0.666140 0.657800 0.967020 -0.521868
C108  C     C_R   0.710604 0.739360 0.949959 0.543710
Cr4   Cr    Cr6+3 0.903360 0.812540 0.006510 1.130338
Cr5   Cr    Cr6+3 0.914630 0.587050 0.006280 1.257741
Cr6   Cr    Cr6+3 0.673560 0.582680 0.008540 1.054480
O26   O     O_3   0.830520 0.660760 0.007110 -0.334030
O27   O     O_3   0.552964 0.411112 0.109892 -0.498356
C109  C     C_3   0.521781 0.481605 0.130167 -0.002617
H33   H     H_    0.589830 0.562976 0.135579 0.122720
H34   H     H_    0.489567 0.458552 0.159708 0.114422
C110  C     C_3   0.432636 0.478531 0.103693 -0.328748
H35   H     H_    0.363514 0.398138 0.098068 0.191992
H36   H     H_    0.405764 0.532227 0.119421 0.067744
H37   H     H_    0.461597 0.502700 0.073905 0.173650
O28   O     O_3   0.245518 0.780570 0.091567 -0.519635
C111  C     C_3   0.220319 0.674810 0.087543 0.026389
H38   H     H_    0.135430 0.621801 0.092507 0.178394
H39   H     H_    0.273953 0.666780 0.109363 0.163545
C112  C     C_3   0.240126 0.639806 0.044618 -0.338907
H40   H     H_    0.325163 0.688835 0.038971 0.164157
H41   H     H_    0.221783 0.557024 0.041233 0.133149
H42   H     H_    0.188245 0.646832 0.021555 0.179318
O29   O     O_3   0.277275 0.785344 0.176700 -0.537819
C113  C     C_3   0.221470 0.686956 0.189853 -0.019893
H43   H     H_    0.159314 0.626910 0.166096 0.127240
H44   H     H_    0.181901 0.692224 0.217961 0.185219
C114  C     C_3   0.300069 0.649668 0.199662 -0.351114
H45   H     H_    0.363654 0.708346 0.223169 0.173266
H46   H     H_    0.257539 0.574537 0.211526 0.108542
H47   H     H_    0.337043 0.637323 0.171634 0.130012
O30   O     O_3   0.177434 0.691203 0.297351 -0.575073
C115  C     C_3   0.082948 0.600580 0.303288 -0.011550
H48   H     H_    0.011828 0.612402 0.301043 0.155470
H49   H     H_    0.089224 0.578309 0.333546 0.133433
C116  C     C_3   0.065613 0.510195 0.270433 -0.379030
H50   H     H_    0.137310 0.499482 0.270476 0.159167
H51   H     H_    0.995859 0.437215 0.276579 0.111572
H52   H     H_    0.050010 0.525536 0.239903 0.141042
N1    N     N_R   0.212540 0.030714 0.409562 0.104826
O31   O     O_R   0.245978 0.122240 0.398974 -0.330891
O32   O     O_R   0.163388 0.010765 0.442779 -0.287393
N2    N     N_R   0.896616 0.418965 0.095804 0.068554
O33   O     O_R   0.865281 0.361799 0.059770 0.017003
O34   O     O_R   0.991805 0.447087 0.111788 -0.410290
O35   O     O_3   0.859882 0.003450 0.201472 -0.534690
C117  C     C_3   0.864569 0.099709 0.198192 -0.001717
H53   H     H_    0.785423 0.095687 0.202431 0.135626
H54   H     H_    0.890862 0.122907 0.167929 0.152586
C118  C     C_3   0.945173 0.183742 0.231353 -0.343746
H55   H     H_    0.025101 0.189664 0.228230 0.176799
H56   H     H_    0.951291 0.260337 0.228529 0.080733
H57   H     H_    0.919262 0.164312 0.262003 0.191476
N3    N     N_R   0.859706 0.969195 0.326192 0.080527
O36   O     O_R   0.935181 0.050219 0.349586 -0.323247
O37   O     O_R   0.884547 0.931894 0.292638 -0.315197
N4    N     N_R   0.818682 0.309024 0.917420 1.398661
O38   O     O_R   0.793000 0.283238 0.953341 -1.537068
O39   O     O_R   0.793000 0.283238 0.953341 -1.537068
O40   O     O_3   0.815247 0.267557 0.832709 -0.548843
C119  C     C_3   0.917935 0.350838 0.829269 -0.009007
H58   H     H_    0.954202 0.401381 0.859330 0.132181
H59   H     H_    0.914129 0.399186 0.806983 0.219899
C120  C     C_3   0.990217 0.306599 0.814249 -0.258531
H60   H     H_    0.956343 0.255254 0.784253 0.217044
H61   H     H_    0.070937 0.371172 0.810744 0.186104
H62   H     H_    0.997715 0.260454 0.836624 0.190934
N5    N     N_R   0.862447 0.358483 0.691423 0.095514
O41   O     O_R   0.938595 0.436188 0.676947 -0.252323
O42   O     O_R   0.885570 0.323566 0.721827 -0.350853
O43   O     O_3   0.811706 0.309268 0.604817 -0.529957
C121  C     C_3   0.848534 0.236220 0.605420 0.045341
H63   H     H_    0.781306 0.155107 0.603805 0.158259
H64   H     H_    0.901813 0.255772 0.633424 0.210935
C122  C     C_3   0.913227 0.240372 0.568802 -0.292461
H65   H     H_    0.979969 0.321008 0.569578 0.148716
H66   H     H_    0.947345 0.187246 0.569582 0.196125
H67   H     H_    0.861483 0.216446 0.539947 0.163134
N6    N     N_R   0.452532 0.254333 0.625371 0.108952
O44   O     O_R   0.365776 0.207422 0.643722 -0.272435
O45   O     O_R   0.456384 0.315789 0.600032 -0.226036
N7    N     N_R   0.137290 0.953511 0.936654 0.121573
O46   O     O_R   0.189025 0.965111 0.971124 -0.275435
O47   O     O_R   0.099342 0.016206 0.932377 -0.224238
O48   O     O_3   0.075306 0.598640 0.891916 -0.551327
C123  C     C_3   0.168368 0.611097 0.912795 0.011686
H68   H     H_    0.192621 0.669188 0.941360 0.141269
H69   H     H_    0.236271 0.636946 0.893010 0.199883
C124  C     C_3   0.146371 0.507133 0.924512 -0.311703
H70   H     H_    0.128274 0.448716 0.896600 0.178742
H71   H     H_    0.217768 0.517090 0.942247 0.117667
H72   H     H_    0.077342 0.478254 0.943576 0.236610
O49   O     O_3   0.141198 0.677568 0.658933 -0.520485
C125  C     C_3   0.228934 0.658593 0.661348 0.018674
H73   H     H_    0.308221 0.730796 0.663315 0.151839
H74   H     H_    0.222281 0.602453 0.634154 0.231188
C126  C     C_3   0.225081 0.608939 0.699092 -0.257023
H75   H     H_    0.150095 0.533417 0.697126 0.234628
H76   H     H_    0.294073 0.594532 0.701397 0.188246
H77   H     H_    0.228979 0.661393 0.727124 0.200581
N8    N     N_R   0.170881 0.992999 0.854951 0.128654
O50   O     O_R   0.098208 0.019099 0.847822 -0.263313
O51   O     O_R   0.268586 0.051984 0.846592 -0.245590
N9    N     N_R   0.974897 0.839281 0.705214 0.119780
O52   O     O_R   0.949604 0.799340 0.666667 -0.258265
O53   O     O_R   0.916794 0.874629 0.724150 -0.333423
N10   N     N_R   0.173929 0.025108 0.669777 0.130567
O54   O     O_R   0.134887 0.073413 0.651316 -0.193193
O55   O     O_R   0.213822 0.061535 0.707555 -0.279300
N11   N     N_R   0.105025 0.633803 0.811031 0.088136
O56   O     O_R   0.043488 0.607268 0.777572 -0.313863
O57   O     O_R   0.157273 0.583985 0.816159 -0.302716
O58   O     O_3   0.197901 0.687902 0.577572 -0.542354
C127  C     C_3   0.094327 0.617053 0.559046 0.019966
H78   H     H_    0.064765 0.655529 0.539627 0.142981
H79   H     H_    0.037242 0.584069 0.582544 0.201638
C128  C     C_3   0.098015 0.527424 0.531890 -0.345171
H80   H     H_    0.128630 0.488319 0.550295 0.185242
H81   H     H_    0.016475 0.469575 0.517867 0.104228
H82   H     H_    0.151562 0.557455 0.507220 0.170453
O59   O     O_3   0.511303 0.854389 0.709846 -0.570122
C129  C     C_3   0.581409 0.960863 0.707616 0.008780
H83   H     H_    0.665502 0.979198 0.703537 0.127839
H84   H     H_    0.582296 0.010801 0.735951 0.212143
C130  C     C_3   0.541191 0.991273 0.671883 -0.377232
H85   H     H_    0.461878 0.984953 0.677257 0.156770
H86   H     H_    0.598426 0.072894 0.668392 0.097557
H87   H     H_    0.533445 0.939080 0.643162 0.147843
N12   N     N_R   0.490747 0.831452 0.792921 0.090533
O60   O     O_R   0.510270 0.927604 0.795896 -0.322668
O61   O     O_R   0.420523 0.770070 0.815160 -0.295000
N13   N     N_R   0.473358 0.552204 0.822645 0.089484
O62   O     O_R   0.442933 0.463818 0.835654 -0.337874
O63   O     O_R   0.422202 0.552547 0.790079 -0.253849
N14   N     N_R   0.714049 0.661117 0.695359 0.142673
O64   O     O_R   0.698417 0.640802 0.655683 -0.241594
O65   O     O_R   0.768987 0.626295 0.713162 -0.286783
N15   N     N_R   0.453892 0.625237 0.635655 0.090135
O66   O     O_R   0.375079 0.573398 0.607400 -0.339054
O67   O     O_R   0.456177 0.579547 0.666237 -0.273754
N16   N     N_R   0.825383 0.986328 0.601836 0.077628
O68   O     O_R   0.855356 0.979421 0.565084 -0.293886
O69   O     O_R   0.895134 0.055415 0.630691 -0.315117
O70   O     O_3   0.708113 0.539775 0.329297 -0.547399
C131  C     C_3   0.621805 0.552634 0.315836 -0.021671
H88   H     H_    0.555868 0.479099 0.298233 0.110298
H89   H     H_    0.650440 0.615599 0.296679 0.145563
C132  C     C_3   0.576098 0.584656 0.352918 -0.347288
H90   H     H_    0.637728 0.660866 0.370061 0.183375
H91   H     H_    0.506078 0.591865 0.342907 0.102220
H92   H     H_    0.549800 0.524827 0.373408 0.165588

loop_
_geom_bond_atom_site_label_1
_geom_bond_atom_site_label_2
_geom_bond_distance
_ccdc_geom_bond_type
C11   H8    1.083539 S    
C67   C72   1.413314 A    
C130  H87   1.108928 S    
C17   H5    1.082653 S    
C76   C77   1.401212 A    
N15   O67   1.300704 A    
C128  H80   1.110659 S    
C106  O22   1.273179 A    
C33   H12   1.082796 S    
O4    C2    1.272165 A    
C86   H27   1.082559 S    
C28   C37   1.433063 S    
C70   C71   1.410772 A    
O16   Cr5   2.034000 S    
C20   H7    1.083025 S    
C111  H38   1.113578 S    
C124  H71   1.110547 S    
C19   C20   1.393604 A    
N10   O54   1.301373 A    
C129  H84   1.108511 S    
C56   C65   1.438427 S    
O2    Cr1   1.922180 S    
C33   C34   1.387010 A    
Cr3   O13   1.971745 S    
C131  H89   1.111918 S    
C60   N4    1.437540 S    
C25   C26   1.420256 A    
C93   C94   1.419326 A    
C99   C102  1.413957 A    
O25   Cr6   1.914637 S    
O12   Cr3   1.921840 S    
C111  C112  1.522308 S    
C118  H55   1.110749 S    
C120  H60   1.110401 S    
N15   O66   1.301562 A    
N16   O68   1.301251 A    
O70   C131  1.414186 S    
C45   C46   1.402247 A    
C109  C110  1.521466 S    
C55   H22   1.084745 S    
C6    C84   1.476116 S    
C34   H11   1.084356 S    
N9    O53   1.301251 A    
O19   C105  1.276943 A    
C12   N2    1.438842 S    
C2    C24   1.472502 S    
C55   C56   1.391559 A    
C88   C96   1.474465 S    
C76   N9    1.438898 S    
C48   H17   1.081808 S    
N14   O64   1.300838 A    
H14   C46   1.082945 S    
O9    Cr2   2.033705 S    
C73   H24   1.080377 S    
C41   C42   1.397381 A    
C125  H74   1.108619 S    
C97   C98   1.399895 A    
C31   C35   1.415671 A    
C2    O5    1.272957 A    
C88   C89   1.400336 A    
O18   Cr6   2.032601 S    
N12   O60   1.299660 A    
O7    C6    1.269469 A    
C87   N13   1.443623 S    
C92   O59   1.387460 S    
C17   C18   1.402877 A    
C127  H79   1.114225 S    
O3    Cr2   2.032614 S    
C7    C104  1.490367 S    
C117  H53   1.115836 S    
C114  H45   1.110961 S    
C68   C69   1.400349 A    
O17   C104  1.280174 A    
C115  H49   1.113104 S    
C113  H43   1.113351 S    
C95   H30   1.083649 S    
O23   Cr5   1.917190 S    
C73   C74   1.383540 A    
C86   C87   1.408699 A    
C62   C63   1.393131 A    
C116  H51   1.109268 S    
O4    Cr2   1.918579 S    
C29   O30   1.384390 S    
C27   C28   1.395952 A    
N6    O44   1.300230 A    
C32   O28   1.388498 S    
C21   C24   1.407400 A    
C22   C23   1.400202 A    
C112  H41   1.110576 S    
C99   N16   1.435912 S    
O43   C121  1.413095 S    
C80   C84   1.404063 A    
O22   Cr5   2.035587 S    
C109  H33   1.114078 S    
C59   O40   1.382868 S    
C97   C101  1.410710 A    
C110  H36   1.110417 S    
C69   C70   1.402143 A    
C68   N7    1.439356 S    
N5    O41   1.301100 A    
C97   N15   1.447081 S    
O21   Cr4   1.919238 S    
C93   C101  1.477219 S    
C121  H63   1.113662 S    
N13   O63   1.301339 A    
O29   C113  1.416483 S    
O6    Cr3   1.913060 S    
N1    O32   1.301463 A    
C58   O43   1.386400 S    
C32   C38   1.410881 A    
C26   N1    1.436634 S    
C1    C39   1.472799 S    
C22   H1    1.083472 S    
C118  H57   1.111029 S    
C56   C57   1.407987 A    
C85   C108  1.475992 S    
C123  C124  1.520842 S    
C124  H72   1.110987 S    
C9    C10   1.395000 A    
C91   N12   1.436788 S    
C38   C103  1.469990 S    
H10   C30   1.083052 S    
O14   C105  1.269353 A    
C31   O29   1.385787 S    
C13   C14   1.391253 A    
C15   C16   1.408205 A    
C117  C118  1.521172 S    
C127  H78   1.115105 S    
C114  H47   1.108786 S    
O12   C6    1.275754 A    
C7    C12   1.424225 A    
C53   C54   1.419136 A    
N4    O39   1.301119 A    
C39   C40   1.403339 A    
N8    O51   1.300688 A    
C63   C64   1.437027 S    
C1    O3    1.270827 A    
C41   H19   1.084246 S    
C82   C83   1.407091 A    
C87   C88   1.417438 A    
C28   C29   1.400843 A    
C100  H29   1.082972 S    
C45   C49   1.403436 A    
C94   C95   1.401410 A    
C126  H75   1.109354 S    
C128  H81   1.110673 S    
O14   Cr4   2.036437 S    
O49   C125  1.415337 S    
C40   C41   1.390662 A    
C79   C80   1.395832 A    
C31   C32   1.416515 A    
C122  H65   1.109897 S    
Cr4   O26   1.972195 S    
N6    O45   1.301752 A    
O30   C115  1.413360 S    
C27   H13   1.084096 S    
C111  H39   1.108259 S    
C75   C83   1.464205 S    
C4    O9    1.282635 A    
C128  H82   1.110772 S    
N10   O55   1.301257 A    
C119  H58   1.112190 S    
C121  C122  1.521460 S    
C39   C44   1.404540 A    
O10   C5    1.283735 A    
C61   C66   1.406051 A    
C98   H31   1.082057 S    
C60   C66   1.423333 A    
C5    C53   1.494845 S    
C29   C30   1.400001 A    
C42   C43   1.414429 A    
N11   O56   1.301321 A    
C3    C25   1.483461 S    
C126  H77   1.108494 S    
O21   C106  1.271387 A    
C123  H68   1.114176 S    
O28   C111  1.412182 S    
C72   O48   1.382688 S    
O20   C108  1.269402 A    
O8    Cr1   1.914758 S    
C10   C11   1.395451 A    
O11   Cr3   2.029196 S    
O23   C107  1.277484 A    
C14   C15   1.404749 A    
C59   C63   1.405675 A    
C57   N5    1.436488 S    
C130  H85   1.110583 S    
N13   O62   1.301314 A    
C113  C114  1.520757 S    
C47   C52   1.402161 A    
N2    O33   1.301616 A    
N16   O69   1.301574 A    
O20   Cr4   2.031947 S    
C73   C78   1.390876 A    
C62   H20   1.083564 S    
C91   C96   1.405547 A    
N9    O52   1.301365 A    
C13   H3    1.082977 S    
C8    O27   1.389538 S    
N14   O65   1.302077 A    
N7    O47   1.300839 A    
O1    Cr1   2.031985 S    
O10   Cr2   1.914732 S    
O1    C3    1.273201 A    
C74   H23   1.083026 S    
O25   C108  1.277945 A    
O48   C123  1.414574 S    
O27   C109  1.413084 S    
C13   C18   1.397909 A    
C122  H67   1.110468 S    
C34   C35   1.394307 A    
C19   C23   1.404183 A    
C36   C37   1.201114 T    
C21   H9    1.083106 S    
O35   C117  1.411659 S    
O7    Cr1   2.038857 S    
O8    C4    1.272101 A    
C69   N8    1.432895 S    
C54   N6    1.436088 S    
C66   C107  1.482299 S    
C92   C93   1.421152 A    
Cr2   O13   1.975017 S    
C91   C92   1.408886 A    
C85   C86   1.405533 A    
C42   C51   1.433588 S    
N3    O36   1.301585 A    
C75   C76   1.414092 A    
C131  H88   1.116330 S    
C113  H44   1.106491 S    
C98   C102  1.412159 A    
C81   C82   1.407901 A    
C120  H62   1.110779 S    
C67   C68   1.416932 A    
C112  H40   1.110763 S    
C90   H28   1.083234 S    
C16   C17   1.407341 A    
C70   C78   1.459925 S    
C124  H70   1.110171 S    
C120  H61   1.109908 S    
O5    Cr3   2.039525 S    
C71   C72   1.404140 A    
O15   Cr4   1.916365 S    
O17   Cr5   1.919379 S    
C132  H90   1.110735 S    
Cr5   O26   1.971818 S    
C57   C58   1.420511 A    
H15   C44   1.083127 S    
C59   C60   1.412965 A    
C109  H34   1.110682 S    
C132  H91   1.109952 S    
C110  H35   1.110655 S    
C61   H21   1.082888 S    
C100  C101  1.403643 A    
C14   H2    1.083512 S    
C89   H32   1.083948 S    
C54   C55   1.394620 A    
C19   H6    1.082571 S    
C77   C78   1.400671 A    
C26   C27   1.402023 A    
C131  C132  1.520539 S    
Cr6   O26   1.975761 S    
C107  O24   1.273702 A    
C116  H50   1.110453 S    
C125  C126  1.522798 S    
C81   O58   1.381764 S    
C50   C51   1.200490 T    
N1    O31   1.301417 A    
C33   C38   1.402384 A    
C21   C22   1.393518 A    
C104  O18   1.275350 A    
N11   O57   1.300422 A    
C118  H56   1.110371 S    
O59   C129  1.416457 S    
O19   Cr6   1.916899 S    
C123  H69   1.113820 S    
C46   C52   1.406743 A    
C5    O11   1.273402 A    
C16   O70   1.389980 S    
C25   C30   1.407945 A    
C127  C128  1.520366 S    
C79   C83   1.409142 A    
C85   C90   1.401892 A    
C10   C18   1.469281 S    
C129  H83   1.112686 S    
O6    C3    1.275190 A    
C114  H46   1.110119 S    
C43   N3    1.442534 S    
C115  H48   1.115523 S    
C47   H18   1.080910 S    
O24   Cr6   2.033539 S    
C35   C36   1.433934 S    
C9    H4    1.082031 S    
C74   C75   1.402546 A    
C129  C130  1.522751 S    
C43   C44   1.405578 A    
C20   C24   1.403014 A    
Cr1   O13   1.971658 S    
C8    C9    1.402199 A    
C47   C48   1.392992 A    
C112  H42   1.110407 S    
C126  H76   1.109279 S    
C4    C102  1.491564 S    
N3    O37   1.301358 A    
C64   C65   1.203228 T    
C7    C8    1.418458 A    
C110  H37   1.110716 S    
C61   C62   1.388239 A    
C115  C116  1.521141 S    
C122  H66   1.108825 S    
O40   C119  1.410941 S    
O15   C103  1.275494 A    
N5    O42   1.300767 A    
C71   N11   1.438893 S    
C45   O35   1.382692 S    
C119  H59   1.113636 S    
C121  H64   1.109235 S    
C116  H52   1.110229 S    
C125  H73   1.116920 S    
C79   N10   1.438267 S    
C40   H16   1.083272 S    
C81   C84   1.411604 A    
C53   C58   1.419414 A    
O58   C127  1.410728 S    
C117  H54   1.113665 S    
C49   C50   1.431897 S    
N7    O46   1.301533 A    
C119  C120  1.520900 S    
C95   C96   1.398253 A    
C77   H25   1.083825 S    
O2    C1    1.275502 A    
C99   C100  1.405145 A    
C132  H92   1.110461 S    
N12   O61   1.301416 A    
C82   O49   1.390306 S    
C15   C23   1.472393 S    
C130  H86   1.109422 S    
N4    O38   1.301119 A    
N8    O50   1.300784 A    
C48   C49   1.396684 A    
C94   N14   1.447095 S    
C52   C105  1.472875 S    
N2    O34   1.301226 A    
C11   C12   1.402579 A    
C67   C106  1.478405 S    
C80   H26   1.083093 S    
C103  O16   1.267683 A    
C89   C90   1.389515 A    
