data_mof_unit_45552.cif
_audit_creation_date              2012-12-10T17:12:28-0500
_audit_creation_method            fapswitch 2.2
_symmetry_space_group_name_H-M    P1
_symmetry_Int_Tables_number       1
_space_group_crystal_system       triclinic
_cell_length_a                    11.681219
_cell_length_b                    13.037285
_cell_length_c                    11.911349
_cell_angle_alpha                 99.355114
_cell_angle_beta                  93.169449
_cell_angle_gamma                 94.645071
_cell_volume                      1779.66367576

loop_
_atom_site_label
_atom_site_type_symbol
_atom_type_description
_atom_site_fract_x
_atom_site_fract_y
_atom_site_fract_z
_atom_type_partial_charge
C1    C     C_R   0.499456 0.300161 0.479280 0.795637
C2    C     C_R   0.500544 0.699838 0.520719 0.795640
C3    C     C_R   0.386835 0.402644 0.025618 -0.323297
C4    C     C_R   0.613127 0.597368 0.974380 -0.323726
C5    C     C_R   0.394836 0.412529 0.144652 0.338800
C6    C     C_R   0.605143 0.587485 0.855351 0.338883
C7    C     C_R   0.554687 0.540844 0.154603 0.281655
C8    C     C_R   0.445330 0.459125 0.845387 0.281318
C9    C     C_R   0.542339 0.534969 0.032690 -0.001601
C10   C     C_R   0.457654 0.465009 0.967301 -0.001368
C11   C     C_R   0.284446 0.499588 0.500359 0.812283
C12   C     C_R   0.715555 0.500416 0.499641 0.812245
C13   C     C_1   0.162643 0.499729 0.500966 -0.189031
C14   C     C_1   0.837358 0.500281 0.499036 -0.189070
C15   C     C_1   0.059997 0.499892 0.500491 -0.008549
C16   C     C_1   0.940005 0.500121 0.499511 -0.008435
C17   C     C_R   0.506189 0.812908 0.530931 -0.120958
C18   C     C_R   0.493821 0.187093 0.469061 -0.120979
C19   C     C_R   0.399082 0.020174 0.378553 0.188635
C20   C     C_R   0.600977 0.979810 0.621381 0.188582
C21   C     C_R   0.416828 0.127613 0.385976 -0.313954
C22   C     C_R   0.583215 0.872375 0.613980 -0.313945
C23   C     C_R   0.559917 0.139207 0.544762 0.110905
C24   C     C_R   0.440090 0.860793 0.455231 0.110843
C25   C     C_R   0.541140 0.030218 0.541913 0.061769
C26   C     C_R   0.458886 0.969780 0.458050 0.061790
Cu1   Cu    Cu3+1 0.508350 0.507730 0.615930 0.911475
Cu2   Cu    Cu3+1 0.491650 0.492270 0.384070 0.911512
H1    H     H_    0.632515 0.834890 0.672839 0.149082
H2    H     H_    0.367550 0.165091 0.327094 0.149102
H3    H     H_    0.322156 0.344761 0.980478 0.163737
H4    H     H_    0.677797 0.655261 0.019517 0.163979
N1    N     N_R   0.520920 0.519350 0.790130 -0.213078
N2    N     N_R   0.479080 0.480650 0.209870 -0.213100
O1    O     O_R   0.505930 0.354460 0.582000 -0.614157
O2    O     O_R   0.494070 0.645540 0.418000 -0.614143
O3    O     O_R   0.491820 0.341410 0.386200 -0.593781
O4    O     O_R   0.508180 0.658590 0.613800 -0.593807
O5    O     O_R   0.344250 0.506540 0.597900 -0.577621
O6    O     O_R   0.655750 0.493460 0.402100 -0.577829
O7    O     O_R   0.330140 0.493480 0.402100 -0.580592
O8    O     O_R   0.669860 0.506520 0.597900 -0.580554
N3    N     N_3   0.350712 0.799804 0.379252 -0.544071
H5    H     H_    0.299966 0.753157 0.424420 0.214727
H6    H     H_    0.387616 0.753100 0.313734 0.250162
N4    N     N_3   0.649268 0.200202 0.620776 -0.544068
H7    H     H_    0.700044 0.246860 0.575645 0.214747
H8    H     H_    0.612365 0.246895 0.686307 0.250136
N5    N     N_3   0.319977 0.963728 0.289099 -0.553391
H9    H     H_    0.239594 0.992898 0.298241 0.217657
H10   H     H_    0.348710 0.977897 0.210943 0.211837
N6    N     N_3   0.680177 0.036233 0.710756 -0.553368
H11   H     H_    0.651534 0.022051 0.788939 0.211863
H12   H     H_    0.760536 0.007043 0.701484 0.217665
C27   C     C_3   0.345812 0.387320 0.779597 -0.355812
C28   C     C_3   0.229977 0.433352 0.796462 -0.827013
H13   H     H_    0.233978 0.513751 0.776511 0.272362
H14   H     H_    0.161676 0.384124 0.738795 0.238012
H15   H     H_    0.204820 0.436810 0.885210 0.239461
H16   H     H_    0.355111 0.368947 0.688684 0.254574
H17   H     H_    0.343319 0.308460 0.803412 0.153967
C29   C     C_3   0.654161 0.612726 0.220378 -0.355567
C30   C     C_3   0.770098 0.566899 0.203386 -0.828124
H18   H     H_    0.766775 0.487003 0.224706 0.272635
H19   H     H_    0.794479 0.562240 0.114265 0.239860
H20   H     H_    0.838612 0.616980 0.259938 0.237983
H21   H     H_    0.656470 0.691574 0.196554 0.154010
H22   H     H_    0.644955 0.631067 0.311315 0.254585
C31   C     C_3   0.694342 0.656169 0.806957 -0.365511
C32   C     C_3   0.814478 0.618667 0.819523 -0.841931
H23   H     H_    0.845054 0.627788 0.910828 0.238745
H24   H     H_    0.813819 0.535300 0.780271 0.273082
H25   H     H_    0.876129 0.665757 0.776256 0.239523
H26   H     H_    0.676025 0.662531 0.717906 0.247614
H27   H     H_    0.696380 0.737603 0.853393 0.158943
C33   C     C_3   0.305646 0.343839 0.193053 -0.365495
C34   C     C_3   0.185497 0.381313 0.180480 -0.841908
H28   H     H_    0.186131 0.464680 0.219721 0.273093
H29   H     H_    0.154920 0.372174 0.089174 0.238688
H30   H     H_    0.123859 0.334214 0.223751 0.239498
H31   H     H_    0.303625 0.262404 0.146629 0.158923
H32   H     H_    0.323964 0.337483 0.282106 0.247611

loop_
_geom_bond_atom_site_label_1
_geom_bond_atom_site_label_2
_ccdc_geom_bond_type
C6    C31   S    
C27   C28   S    
C30   H19   S    
C22   H1    S    
C18   C21   A    
C34   H28   S    
Cu1   N1    S    
C1    C18   S    
C29   H21   S    
C19   C21   A    
C24   C26   A    
C20   C25   A    
Cu2   O6    S    
Cu1   O4    S    
C15   C16   S    
Cu2   O7    S    
C28   H13   S    
C19   C26   A    
C19   N5    S    
C12   O8    A    
Cu1   O5    S    
N5    H10   S    
C11   O7    A    
C32   H23   S    
C9    C10   A    
C1    O3    A    
C30   H20   S    
Cu2   N2    S    
C23   N4    S    
C27   H16   S    
C2    C17   S    
C8    C27   S    
N6    H12   S    
C34   H29   S    
N4    H8    S    
C17   C24   A    
C18   C23   A    
C33   C34   S    
C4    C6    A    
C33   H32   S    
Cu1   O1    S    
C25   C26   A    
C12   O6    A    
C11   O5    A    
N3    H5    S    
C7    C29   S    
C29   C30   S    
C2    O4    A    
C5    N2    A    
C32   H25   S    
C31   H26   S    
C3    H3    S    
N3    H6    S    
C4    H4    S    
C20   C22   A    
C13   C15   T    
C7    N2    A    
C14   C16   T    
N6    H11   S    
C1    O1    A    
C34   H30   S    
C2    O2    A    
C7    C9    A    
N4    H7    S    
C12   C14   S    
C3    C5    A    
C33   H31   S    
C6    N1    A    
C21   H2    S    
C17   C22   A    
C28   H15   S    
C29   H22   S    
C5    C33   S    
C20   N6    S    
C3    C10   A    
C11   C13   S    
Cu1   O8    S    
Cu2   O3    S    
C27   H17   S    
C28   H14   S    
C31   H27   S    
C8    N1    A    
C23   C25   A    
C31   C32   S    
C30   H18   S    
Cu2   O2    S    
C8    C10   A    
N5    H9    S    
Cu1   Cu2   S    
C24   N3    S    
C32   H24   S    
C4    C9    A    
