data_mof_unit_35067.cif
_audit_creation_date              2012-12-11T15:36:28-0500
_audit_creation_method            fapswitch 2.2
_symmetry_space_group_name_H-M    P1
_symmetry_Int_Tables_number       1
_space_group_crystal_system       triclinic
_cell_length_a                    15.066108
_cell_length_b                    15.070208
_cell_length_c                    34.855826
_cell_angle_alpha                 91.37211
_cell_angle_beta                  91.846514
_cell_angle_gamma                 60.137423
_cell_volume                      6859.34181775

loop_
_atom_site_label
_atom_site_type_symbol
_atom_type_description
_atom_site_fract_x
_atom_site_fract_y
_atom_site_fract_z
_atom_type_partial_charge
C1    C     C_R   0.610426 0.303293 0.443855 0.542296
C2    C     C_R   0.598507 0.096443 0.762904 -0.113966
C3    C     C_R   0.093548 0.765935 0.886399 -0.125261
C4    C     C_R   0.122518 0.754098 0.848300 -0.121954
C5    C     C_R   0.124798 0.674663 0.825773 0.031956
C6    C     C_R   0.104849 0.602912 0.842641 -0.121048
C7    C     C_R   0.076418 0.614384 0.880830 -0.125753
C8    C     C_R   0.199612 0.577526 0.765364 -0.119137
C9    C     C_R   0.208739 0.574178 0.725716 -0.116499
C10   C     C_R   0.158318 0.664559 0.704306 0.028665
C11   C     C_R   0.099295 0.758495 0.723043 -0.118012
C12   C     C_R   0.089653 0.761821 0.762715 -0.115370
C13   C     C_R   0.596781 0.170305 0.788828 0.028115
C14   C     C_R   0.631565 0.734912 0.156253 -0.101017
C15   C     C_R   0.139709 0.671311 0.784162 0.029209
C16   C     C_R   0.202211 0.724581 0.645859 -0.121507
C17   C     C_R   0.235444 0.706915 0.608177 -0.128148
C18   C     C_R   0.200233 0.566495 0.602875 -0.123606
C19   C     C_R   0.167322 0.584051 0.640516 -0.121976
C20   C     C_R   0.172465 0.660172 0.662723 0.031281
C21   C     C_R   0.239284 0.624550 0.587053 0.023042
C22   C     C_R   0.673068 0.078995 0.906157 0.022005
C23   C     C_R   0.598673 0.064008 0.886455 -0.128639
C24   C     C_R   0.548748 0.195622 0.640762 -0.120166
C25   C     C_R   0.569088 0.098535 0.848798 -0.121967
C26   C     C_R   0.814394 0.616425 0.159685 -0.049542
C27   C     C_R   0.550929 0.219615 0.602468 -0.124212
C28   C     C_R   0.691983 0.249487 0.617956 -0.124860
C29   C     C_R   0.688763 0.226941 0.656246 -0.122049
C30   C     C_R   0.614916 0.203276 0.668123 0.028981
C31   C     C_R   0.620242 0.250265 0.591013 0.023041
C32   C     C_R   0.045799 0.739026 0.048503 0.539751
C33   C     C_R   0.719129 0.666435 0.177241 0.078859
C34   C     C_R   0.746674 0.745780 0.063629 0.546513
C35   C     C_R   0.751147 0.040701 0.050582 0.542349
C36   C     C_R   0.017082 0.722382 0.939808 0.544360
C37   C     C_R   0.717178 0.730044 0.954928 0.542609
C38   C     C_R   0.822594 0.637521 0.121660 -0.121063
C39   C     C_R   0.721397 0.024395 0.942077 0.542852
C40   C     C_R   0.729993 0.566368 0.235864 0.250499
C41   C     C_R   0.724160 0.563861 0.275770 -0.105449
C42   C     C_R   0.699940 0.651014 0.298465 -0.007179
C43   C     C_R   0.682688 0.741084 0.281028 -0.094147
C44   C     C_R   0.612948 0.149112 0.830488 0.031248
C45   C     C_R   0.688841 0.744358 0.241465 -0.139238
C46   C     C_R   0.712565 0.657740 0.218672 0.000441
C47   C     C_R   0.595882 0.729771 0.356486 -0.114317
C48   C     C_R   0.593177 0.610082 0.449387 0.544889
C49   C     C_R   0.570168 0.720482 0.393605 -0.123114
C50   C     C_R   0.724496 0.555039 0.399032 -0.122796
C51   C     C_R   0.750130 0.564396 0.361910 -0.100679
C52   C     C_R   0.683853 0.649880 0.339835 0.046289
C53   C     C_R   0.631962 0.630984 0.414540 0.020410
C54   C     C_R   0.104764 0.727783 0.084483 0.019852
C55   C     C_R   0.681824 0.170157 0.851325 -0.118010
C56   C     C_R   0.153196 0.633034 0.103228 -0.122416
C57   C     C_R   0.179875 0.627579 0.142062 -0.115332
C58   C     C_R   0.159840 0.716389 0.162661 0.032995
C59   C     C_R   0.122260 0.809057 0.143169 -0.114659
C60   C     C_R   0.304982 0.590682 0.442124 0.542795
C61   C     C_R   0.094754 0.814817 0.104199 -0.127066
C62   C     C_R   0.223259 0.745480 0.226354 -0.124190
C63   C     C_R   0.229478 0.736875 0.266290 -0.163540
C64   C     C_R   0.174639 0.698667 0.285292 0.002751
C65   C     C_R   0.108543 0.673841 0.263745 0.271832
C66   C     C_R   0.711511 0.135501 0.888726 -0.123045
C67   C     C_R   0.105091 0.680457 0.223749 -0.091425
C68   C     C_R   0.163447 0.714267 0.204882 -0.024655
C69   C     C_R   0.235534 0.574562 0.338795 -0.054751
C70   C     C_R   0.263398 0.549235 0.377101 -0.110120
C71   C     C_R   0.216951 0.724979 0.391672 -0.124165
C72   C     C_R   0.605502 0.300793 0.553788 0.542700
C73   C     C_R   0.186544 0.750837 0.353286 -0.105169
C74   C     C_R   0.196316 0.675448 0.326575 0.068463
C75   C     C_R   0.256476 0.623602 0.403805 0.022816
C76   C     C_R   0.723048 0.101577 0.086336 0.021078
C77   C     C_R   0.592065 0.258813 0.774378 -0.119637
C78   C     C_R   0.796092 0.117262 0.106761 -0.122120
C79   C     C_R   0.779575 0.151117 0.144802 -0.088049
C80   C     C_R   0.689518 0.170615 0.162772 0.042570
C81   C     C_R   0.612414 0.164526 0.141262 -0.120281
C82   C     C_R   0.629150 0.129988 0.103319 -0.121218
C83   C     C_R   0.590476 0.258526 0.221320 -0.060824
C84   C     C_R   0.587433 0.606384 0.559128 0.542149
C85   C     C_R   0.581317 0.264929 0.261117 -0.087568
C86   C     C_R   0.662680 0.195904 0.284905 0.029014
C87   C     C_R   0.753637 0.121146 0.268173 -0.108776
C88   C     C_R   0.595808 0.270110 0.735024 -0.117549
C89   C     C_R   0.763053 0.115368 0.228466 -0.102523
C90   C     C_R   0.681493 0.183761 0.204735 0.056496
C91   C     C_R   0.737172 0.195921 0.349852 -0.111384
C92   C     C_R   0.725393 0.219054 0.388901 -0.120283
C93   C     C_R   0.549920 0.254591 0.383761 -0.128472
C94   C     C_R   0.561866 0.231095 0.344642 -0.121517
C95   C     C_R   0.654389 0.205406 0.327086 0.034652
C96   C     C_R   0.298065 0.589164 0.551708 0.545730
C97   C     C_R   0.630350 0.252901 0.405882 0.021719
C98   C     C_R   0.691521 0.689523 0.919936 0.021926
C99   C     C_R   0.602956 0.193828 0.709344 0.025940
C100  C     C_R   0.765512 0.596753 0.903500 -0.126142
C101  C     C_R   0.753210 0.571740 0.865654 -0.123374
C102  C     C_R   0.666803 0.639029 0.843603 0.031909
C103  C     C_R   0.588422 0.726796 0.861243 -0.120312
C104  C     C_R   0.600504 0.751644 0.899111 -0.126944
C105  C     C_R   0.571181 0.650470 0.782041 -0.120177
C106  C     C_R   0.566102 0.649981 0.742021 -0.118554
C107  C     C_R   0.653547 0.623687 0.720709 0.027347
C108  C     C_R   0.735692 0.710170 0.101101 0.019079
C109  C     C_R   0.746941 0.594585 0.740047 -0.117100
C110  C     C_R   0.600981 0.108464 0.723396 -0.116990
C111  C     C_R   0.751936 0.595690 0.780082 -0.113986
C112  C     C_R   0.663749 0.625092 0.801491 0.028810
C113  C     C_R   0.718696 0.544388 0.656470 -0.123014
C114  C     C_R   0.704279 0.541593 0.616786 -0.128259
C115  C     C_R   0.550172 0.707389 0.620082 -0.126368
C116  C     C_R   0.564326 0.709797 0.659724 -0.122941
C117  C     C_R   0.646607 0.626729 0.678382 0.031294
C118  C     C_R   0.617637 0.621323 0.598410 0.021958
C119  C     C_R   0.066875 0.698198 0.902544 0.024020
C120  C     C_R   0.639688 0.756606 0.118378 -0.120981
Cr1   Cr    Cr6+3 0.426010 0.422500 0.497000 1.016134
Cr2   Cr    Cr6+3 0.651300 0.426310 0.501970 1.012456
Cr3   Cr    Cr6+3 0.422670 0.651170 0.501050 1.012830
Cr4   Cr    Cr6+3 0.905130 0.911420 0.992650 1.014002
Cr5   Cr    Cr6+3 0.911860 0.682710 0.002320 1.017925
Cr6   Cr    Cr6+3 0.682710 0.906840 0.004710 1.014197
H1    H     H_    0.571516 0.812622 0.103125 0.130417
H2    H     H_    0.209962 0.555190 0.156670 0.115605
H3    H     H_    0.897649 0.601381 0.109130 0.131577
H4    H     H_    0.056431 0.659305 0.207039 0.154672
H5    H     H_    0.248390 0.514361 0.318356 0.149197
H6    H     H_    0.296309 0.469884 0.385260 0.126906
H7    H     H_    0.106322 0.878336 0.158724 0.110541
H8    H     H_    0.212285 0.783362 0.411578 0.119191
H9    H     H_    0.869045 0.096358 0.094374 0.129153
H10   H     H_    0.571218 0.119367 0.088124 0.124955
H11   H     H_    0.497552 0.236718 0.327847 0.106213
H12   H     H_    0.498621 0.780446 0.404868 0.130510
H13   H     H_    0.511155 0.324831 0.273291 0.107470
H14   H     H_    0.526779 0.312083 0.203482 0.117603
H15   H     H_    0.819383 0.502786 0.349810 0.124366
H16   H     H_    0.839339 0.156891 0.160830 0.139139
H17   H     H_    0.817075 0.066279 0.285764 0.118018
H18   H     H_    0.833157 0.055487 0.216218 0.109433
H19   H     H_    0.809254 0.176746 0.337112 0.105807
H20   H     H_    0.788922 0.216718 0.405219 0.129282
H21   H     H_    0.542397 0.179077 0.154595 0.103347
H22   H     H_    0.475823 0.280172 0.396059 0.125118
H23   H     H_    0.882874 0.565103 0.175961 0.153437
H24   H     H_    0.836078 0.546719 0.918948 0.124024
H25   H     H_    0.541943 0.823546 0.910954 0.125339
H26   H     H_    0.508968 0.775123 0.676017 0.101930
H27   H     H_    0.734896 0.494992 0.289140 0.134546
H28   H     H_    0.493667 0.670442 0.727667 0.107614
H29   H     H_    0.502398 0.672108 0.797780 0.103862
H30   H     H_    0.813720 0.502373 0.853013 0.099857
H31   H     H_    0.815245 0.574293 0.724191 0.104348
H32   H     H_    0.823966 0.577635 0.794221 0.104076
H33   H     H_    0.782881 0.479527 0.670266 0.100245
H34   H     H_    0.774222 0.485607 0.414654 0.129291
H35   H     H_    0.757555 0.474103 0.600928 0.122509
H36   H     H_    0.521098 0.780440 0.844971 0.100706
H37   H     H_    0.482838 0.770203 0.606834 0.125565
H38   H     H_    0.087899 0.830571 0.902708 0.122680
H39   H     H_    0.055973 0.561237 0.892567 0.126609
H40   H     H_    0.142660 0.534904 0.652934 0.104379
H41   H     H_    0.256682 0.501132 0.711807 0.109295
H42   H     H_    0.239818 0.506985 0.781357 0.105474
H43   H     H_    0.139813 0.809003 0.836065 0.101501
H44   H     H_    0.059839 0.828904 0.706935 0.105085
H45   H     H_    0.162876 0.564492 0.088732 0.129989
H46   H     H_    0.041390 0.834888 0.776526 0.106530
H47   H     H_    0.206700 0.783745 0.662618 0.101834
H48   H     H_    0.264809 0.753088 0.596637 0.125509
H49   H     H_    0.105487 0.541335 0.825759 0.101306
H50   H     H_    0.557705 0.774454 0.169729 0.111929
H51   H     H_    0.201043 0.503368 0.587051 0.129452
H52   H     H_    0.568020 0.020382 0.899227 0.124213
H53   H     H_    0.768651 0.148523 0.903317 0.127212
H54   H     H_    0.741505 0.231704 0.676929 0.105719
H55   H     H_    0.594775 0.337792 0.724605 0.112784
H56   H     H_    0.057463 0.888946 0.090555 0.126087
H57   H     H_    0.588652 0.317905 0.793605 0.106384
H58   H     H_    0.514887 0.082410 0.833529 0.101234
H59   H     H_    0.606042 0.049051 0.703949 0.106938
H60   H     H_    0.603438 0.026859 0.773185 0.106734
H61   H     H_    0.491498 0.177099 0.649410 0.103813
H62   H     H_    0.664195 0.808983 0.298018 0.134138
H63   H     H_    0.494751 0.219598 0.582286 0.120899
H64   H     H_    0.717977 0.207812 0.837964 0.104442
H65   H     H_    0.745948 0.273252 0.610100 0.125483
H66   H     H_    0.675735 0.814662 0.228497 0.133344
H67   H     H_    0.157832 0.828884 0.344201 0.108927
H68   H     H_    0.543351 0.796338 0.339940 0.103713
H69   H     H_    0.911212 0.610228 0.257976 0.367785
H70   H     H_    0.797221 0.332184 0.248254 0.341755
H71   H     H_    0.280368 0.756311 0.282314 0.120226
H72   H     H_    0.267888 0.772768 0.212142 0.127532
O1    O     O_R   0.324990 0.503440 0.453910 -0.517154
O2    O     O_R   0.675430 0.831160 0.051290 -0.517586
O3    O     O_R   0.698870 0.998880 0.039560 -0.500680
O4    O     O_R   0.522030 0.339050 0.458320 -0.504228
O5    O     O_R   0.811290 0.006780 0.950620 -0.516245
O6    O     O_R   0.980960 0.812920 0.953200 -0.500905
O7    O     O_R   0.001480 0.656720 0.955830 -0.519877
O8    O     O_R   0.809240 0.683250 0.968050 -0.500872
O9    O     O_R   0.652500 0.818540 0.967340 -0.520506
O10   O     O_R   0.677620 0.987170 0.961730 -0.502143
O11   O     O_3   0.833240 0.833660 0.999890 -0.238052
O12   O     O_R   0.639980 0.519500 0.542640 -0.502593
O13   O     O_R   0.676180 0.324490 0.458320 -0.518563
O14   O     O_R   0.643570 0.521510 0.464260 -0.502085
O15   O     O_R   0.504630 0.675350 0.460920 -0.518020
O16   O     O_R   0.339850 0.642450 0.459830 -0.500430
O17   O     O_R   0.321120 0.501280 0.538470 -0.517078
O18   O     O_R   0.518440 0.337050 0.536710 -0.499581
O19   O     O_R   0.672300 0.322330 0.542880 -0.520026
O20   O     O_2   0.084689 0.522747 0.290845 -0.323201
O21   O     O_2   0.991803 0.689261 0.323433 -0.251700
O22   O     O_3   0.924626 0.667990 0.256259 -0.544160
O23   O     O_R   0.500750 0.673190 0.545480 -0.520282
O24   O     O_2   0.685631 0.487068 0.173196 -0.240152
O25   O     O_2   0.863650 0.401429 0.196329 -0.311401
O26   O     O_3   0.731861 0.376822 0.234381 -0.521592
O27   O     O_R   0.336260 0.640450 0.538210 -0.503563
O28   O     O_3   0.499990 0.499990 0.500010 -0.237629
O29   O     O_R   0.834210 0.019400 0.034570 -0.519930
O30   O     O_R   0.002210 0.824620 0.031030 -0.502502
O31   O     O_R   0.024400 0.669340 0.039790 -0.518369
O32   O     O_R   0.830490 0.694950 0.045870 -0.499517
S1    S     S_3+6 0.027237 0.636673 0.285243 -0.013199
S2    S     S_3+6 0.754015 0.456376 0.208474 -0.003528

loop_
_geom_bond_atom_site_label_1
_geom_bond_atom_site_label_2
_ccdc_geom_bond_type
C16   H47   S    
C110  H59   S    
C93   C94   A    
Cr2   O19   S    
C39   O5    A    
C1    O13   A    
C18   C21   A    
C37   O9    A    
C41   C42   A    
C108  C120  A    
C47   H68   S    
C102  C112  S    
C111  C112  A    
C72   O18   A    
C24   C27   A    
C91   H19   S    
C109  H31   S    
Cr4   O29   S    
C14   C33   A    
C81   C82   A    
C57   C58   A    
C120  H1    S    
C47   C49   A    
Cr3   O28   S    
C85   C86   A    
C56   C57   A    
C40   C46   A    
C72   O19   A    
Cr3   O23   S    
C61   H56   S    
C101  C102  A    
C96   O17   A    
C105  C106  A    
Cr4   O6    S    
C24   H61   S    
C35   O29   A    
Cr1   O17   S    
C104  H25   S    
C28   C29   A    
C111  H32   S    
C76   C78   A    
Cr1   O4    S    
Cr5   O31   S    
C84   O23   A    
C109  C111  A    
C5    C6    A    
C80   C81   A    
C84   O12   A    
C79   H16   S    
C65   C67   A    
C6    H49   S    
C24   C30   A    
C115  C116  A    
Cr2   O28   S    
Cr5   O8    S    
O26   S2    S    
C116  C117  A    
C93   H22   S    
C18   C19   A    
C37   O8    A    
C42   C43   A    
C36   C119  S    
C2    C13   A    
C60   O16   A    
Cr1   O1    S    
C23   H52   S    
C14   H50   S    
C8    H42   S    
C60   O1    A    
Cr4   O11   S    
C73   H67   S    
C48   O15   A    
C22   C66   A    
C32   O30   A    
C77   C88   A    
Cr6   O10   S    
C8    C9    A    
C106  H28   S    
C29   H54   S    
Cr2   O12   S    
C19   H40   S    
C40   S2    S    
C29   C30   A    
C9    C10   A    
C85   H13   S    
C41   H27   S    
C25   H58   S    
C16   C20   A    
C7    H39   S    
O24   S2    D    
Cr6   O3    S    
C49   H12   S    
C63   C64   A    
C38   C108  A    
C33   C46   S    
C107  C109  A    
C34   O32   A    
C57   H2    S    
C1    O4    A    
C25   C44   A    
C32   C54   S    
H69   O22   S    
Cr4   O30   S    
C92   C97   A    
C54   C61   A    
C6    C7    A    
C13   C77   A    
C51   H15   S    
C73   C74   A    
C69   C74   A    
C48   C53   S    
C38   H3    S    
C54   C56   A    
C35   C76   S    
C59   C61   A    
C50   C53   A    
C4    H43   S    
C65   S1    S    
Cr4   O5    S    
C27   C31   A    
C51   C52   A    
Cr1   O18   S    
C48   O14   A    
C9    H41   S    
C18   H51   S    
C12   H46   S    
Cr5   O32   S    
C10   C11   A    
C10   C20   S    
C91   C92   A    
C71   C73   A    
Cr5   O11   S    
C86   C87   A    
C35   O3    A    
C114  H35   S    
C101  H30   S    
C100  H24   S    
C58   C59   A    
C45   C46   A    
C99   C110  A    
C92   H20   S    
C30   C99   S    
C59   H7    S    
C17   C21   A    
Cr1   O28   S    
C63   H71   S    
C67   C68   A    
C2    H60   S    
C62   C63   A    
C7    C119  A    
C45   H66   S    
C12   C15   A    
C1    C97   S    
Cr6   O9    S    
C69   H5    S    
C115  C118  A    
C39   O10   A    
C70   H6    S    
C50   C51   A    
C37   C98   S    
C94   C95   A    
H70   O26   S    
C113  H33   S    
C43   C45   A    
C62   H72   S    
C114  C118  A    
C3    C119  A    
C3    H38   S    
C11   H44   S    
C113  C117  A    
C58   C68   S    
C31   C72   S    
C83   C85   A    
C105  C112  A    
C8    C15   A    
C98   C100  A    
Cr3   O15   S    
C56   H45   S    
Cr2   O14   S    
C67   H4    S    
C55   H64   S    
C76   C82   A    
C3    C4    A    
C28   H65   S    
C93   C97   A    
C116  H26   S    
C55   C66   A    
C17   H48   S    
C98   C104  A    
C113  C114  A    
C78   H9    S    
Cr6   O2    S    
C83   C90   A    
C32   O31   A    
C40   C41   A    
C103  H36   S    
O22   S1    S    
C105  H29   S    
C78   C79   A    
C28   C31   A    
C26   C38   A    
O21   S1    D    
C4    C5    A    
Cr6   O11   S    
C11   C12   A    
C47   C52   A    
Cr3   O27   S    
C21   C96   S    
C89   H18   S    
C36   O6    A    
C66   H53   S    
C60   C75   S    
C14   C120  A    
C62   C68   A    
C50   H34   S    
C96   O27   A    
C19   C20   A    
C87   C89   A    
C34   C108  S    
C26   H23   S    
C115  H37   S    
C64   C65   A    
C71   H8    S    
C71   C75   A    
Cr2   O13   S    
C44   C55   A    
C81   H21   S    
C88   H55   S    
C16   C17   A    
C43   H62   S    
C49   C53   A    
C22   C39   S    
Cr5   O7    S    
C100  C101  A    
C77   H57   S    
C36   O7    A    
C23   C25   A    
C80   C90   S    
C102  C103  A    
C69   C70   A    
O20   S1    D    
C5    C15   S    
C88   C99   A    
C86   C95   S    
C82   H10   S    
C83   H14   S    
C79   C80   A    
C34   O2    A    
O25   S2    D    
C70   C75   A    
C91   C95   A    
C84   C118  S    
C106  C107  A    
Cr3   O16   S    
C103  C104  A    
C94   H11   S    
C64   C74   S    
C22   C23   A    
C27   H63   S    
C87   H17   S    
C89   C90   A    
C107  C117  S    
C13   C44   S    
C26   C33   A    
C42   C52   S    
C2    C110  A    
