data_mof_unit_64216.cif
_audit_creation_date              2013-03-05T16:43:18-0500
_audit_creation_method            fapswitch 2.2
_symmetry_space_group_name_H-M    P1
_symmetry_Int_Tables_number       1
_space_group_crystal_system       triclinic
_cell_length_a                    26.120219
_cell_length_b                    24.11852
_cell_length_c                    16.571164
_cell_angle_alpha                 90.001453
_cell_angle_beta                  90.000031
_cell_angle_gamma                 90.00002
_cell_volume                      10439.5188681

loop_
_atom_site_label
_atom_site_type_symbol
_atom_site_description
_atom_site_fract_x
_atom_site_fract_y
_atom_site_fract_z
_atom_type_partial_charge
O1    O     O_R   0.054370 0.445630 0.567930 -0.526981
O2    O     O_R   0.945630 0.554370 0.432070 -0.551272
O3    O     O_R   0.945630 0.554370 0.567930 -0.526967
O4    O     O_R   0.054370 0.445630 0.432070 -0.551248
O5    O     O_R   0.945630 0.445630 0.432070 -0.526968
O6    O     O_R   0.054370 0.554370 0.567930 -0.551248
O7    O     O_R   0.054370 0.554370 0.432070 -0.526981
O8    O     O_R   0.945630 0.445630 0.567930 -0.551272
O9    O     O_R   0.554370 0.945630 0.567930 -0.526913
O10   O     O_R   0.445630 0.054370 0.432070 -0.551454
O11   O     O_R   0.445630 0.054370 0.567930 -0.526913
O12   O     O_R   0.554370 0.945630 0.432070 -0.551452
O13   O     O_R   0.445630 0.945630 0.432070 -0.526913
O14   O     O_R   0.554370 0.054370 0.567930 -0.551452
O15   O     O_R   0.554370 0.054370 0.432070 -0.526913
O16   O     O_R   0.445630 0.945630 0.567930 -0.551454
C1    C     C_R   0.074021 0.429404 0.499804 0.906348
C2    C     C_R   0.925982 0.570598 0.499804 0.906411
C3    C     C_R   0.925982 0.429402 0.500196 0.906409
C4    C     C_R   0.074021 0.570595 0.500196 0.906350
C5    C     C_R   0.574005 0.929392 0.499801 0.906787
C6    C     C_R   0.425995 0.070606 0.499802 0.906785
C7    C     C_R   0.425994 0.929394 0.500198 0.906786
C8    C     C_R   0.574005 0.070608 0.500199 0.906786
C9    C     C_R   0.999996 0.499999 0.873819 -0.145342
C10   C     C_R   0.999996 0.500002 0.126181 -0.145343
C11   C     C_R   0.500001 0.000000 0.873828 -0.145325
C12   C     C_R   0.500001 1.000000 0.126171 -0.145325
C13   C     C_1   0.999995 0.500000 0.963012 0.204963
C14   C     C_1   0.999995 0.500002 0.036988 0.204963
C15   C     C_1   0.500001 0.000000 0.963015 0.204964
C16   C     C_1   0.500001 1.000000 0.036985 0.204964
Cu1   Cu    Cu3+1 1.000000 0.500000 0.580420 1.135547
Cu2   Cu    Cu3+1 1.000000 0.500000 0.419580 1.135547
Cu3   Cu    Cu3+1 0.500000 0.000000 0.580420 1.135588
Cu4   Cu    Cu3+1 0.500000 0.000000 0.419580 1.135588
C17   C     C_R   0.186763 0.651837 0.584604 0.239653
C18   C     C_R   0.832811 0.312196 0.450674 0.241153
C19   C     C_R   0.813181 0.348243 0.584577 0.239661
C20   C     C_R   0.167214 0.687770 0.450612 0.241126
C21   C     C_R   0.813184 0.651762 0.415421 0.239659
C22   C     C_R   0.167211 0.312228 0.549385 0.241130
C23   C     C_R   0.186765 0.348165 0.415398 0.239654
C24   C     C_R   0.832808 0.687800 0.549330 0.241151
C25   C     C_R   0.687118 0.151356 0.584388 0.239689
C26   C     C_R   0.332874 0.812123 0.450896 0.241279
C27   C     C_R   0.312855 0.848684 0.584369 0.239678
C28   C     C_R   0.667103 0.187900 0.450907 0.241284
C29   C     C_R   0.312856 0.151317 0.415631 0.239679
C30   C     C_R   0.667104 0.812101 0.549094 0.241284
C31   C     C_R   0.687118 0.848645 0.415612 0.239688
C32   C     C_R   0.332875 0.187878 0.549104 0.241280
C33   C     C_R   0.150253 0.609524 0.573775 0.225876
C34   C     C_R   0.869787 0.353973 0.439675 0.221455
C35   C     C_R   0.849713 0.390533 0.573742 0.225912
C36   C     C_R   0.130250 0.645977 0.439621 0.221460
C37   C     C_R   0.849715 0.609470 0.426256 0.225913
C38   C     C_R   0.130247 0.354019 0.560376 0.221461
C39   C     C_R   0.150254 0.390478 0.426227 0.225875
C40   C     C_R   0.869784 0.646023 0.560328 0.221457
C41   C     C_R   0.650474 0.109177 0.573546 0.226126
C42   C     C_R   0.369947 0.853792 0.439901 0.221484
C43   C     C_R   0.349512 0.890849 0.573534 0.226129
C44   C     C_R   0.630043 0.146218 0.439905 0.221476
C45   C     C_R   0.349512 0.109151 0.426466 0.226128
C46   C     C_R   0.630043 0.853782 0.560096 0.221477
C47   C     C_R   0.650474 0.890824 0.426454 0.226125
C48   C     C_R   0.369948 0.146209 0.560099 0.221485
C49   C     C_R   0.119326 0.608318 0.503074 -0.312488
C50   C     C_R   0.880676 0.391683 0.503078 -0.312424
C51   C     C_R   0.880675 0.608316 0.496922 -0.312423
C52   C     C_R   0.119325 0.391681 0.496926 -0.312490
C53   C     C_R   0.619325 0.108290 0.503084 -0.311958
C54   C     C_R   0.380667 0.891722 0.503079 -0.311949
C55   C     C_R   0.380668 0.108279 0.496921 -0.311949
C56   C     C_R   0.619326 0.891710 0.496916 -0.311958
C57   C     C_R   0.193954 0.691632 0.523916 -0.211305
C58   C     C_R   0.806018 0.308402 0.523939 -0.211304
C59   C     C_R   0.806019 0.691599 0.476063 -0.211305
C60   C     C_R   0.193954 0.308368 0.476083 -0.211304
C61   C     C_R   0.694158 0.191381 0.523967 -0.211310
C62   C     C_R   0.305809 0.808659 0.523947 -0.211326
C63   C     C_R   0.305810 0.191343 0.476053 -0.211325
C64   C     C_R   0.694159 0.808621 0.476035 -0.211311
C65   C     C_1   0.233366 0.732854 0.531582 0.227865
C66   C     C_1   0.766595 0.267193 0.531606 0.227917
C67   C     C_1   0.766596 0.732809 0.468396 0.227914
C68   C     C_1   0.233367 0.267147 0.468418 0.227867
C69   C     C_1   0.733645 0.232520 0.531617 0.227926
C70   C     C_1   0.266315 0.767528 0.531594 0.227878
C71   C     C_1   0.266316 0.232474 0.468405 0.227880
C72   C     C_1   0.733646 0.767482 0.468384 0.227923
C73   C     C_R   0.006536 0.549282 0.830183 0.170804
C74   C     C_R   0.006536 0.450719 0.169816 0.170802
C75   C     C_R   0.993459 0.450716 0.830178 0.170815
C76   C     C_R   0.993460 0.549284 0.169823 0.170818
C77   C     C_R   0.506645 0.049264 0.830198 0.170669
C78   C     C_R   0.506645 0.950736 0.169802 0.170669
C79   C     C_R   0.493356 0.950737 0.830194 0.170667
C80   C     C_R   0.493356 0.049263 0.169805 0.170668
C81   C     C_R   0.006128 0.548743 0.744374 0.404143
C82   C     C_R   0.006129 0.451257 0.255625 0.404143
C83   C     C_R   0.993872 0.451256 0.744368 0.404108
C84   C     C_R   0.993873 0.548744 0.255633 0.404109
C85   C     C_R   0.506230 0.048729 0.744388 0.403902
C86   C     C_R   0.506230 0.951271 0.255612 0.403902
C87   C     C_R   0.493770 0.951272 0.744385 0.403901
C88   C     C_R   0.493770 0.048728 0.255615 0.403901
N1    N     N_R   1.000000 0.500000 0.701220 -0.272431
N2    N     N_R   1.000000 0.500000 0.298780 -0.272431
N3    N     N_R   0.500000 0.000000 0.701220 -0.272528
N4    N     N_R   0.500000 0.000000 0.298780 -0.272528
N5    N     N_R   0.218218 0.652745 0.655721 0.177767
O17   O     O_R   0.244646 0.609226 0.676176 -0.199018
O18   O     O_R   0.221089 0.697338 0.699631 -0.217847
N6    N     N_R   0.821051 0.274752 0.385683 0.182758
O19   O     O_R   0.807625 0.293987 0.315439 -0.171033
O20   O     O_R   0.823145 0.221389 0.396771 -0.258280
N7    N     N_R   0.781681 0.347402 0.655648 0.177766
O21   O     O_R   0.755285 0.390961 0.676028 -0.199017
O22   O     O_R   0.778734 0.302830 0.699588 -0.217916
N8    N     N_R   0.179022 0.725153 0.385572 0.182782
O23   O     O_R   0.192528 0.705851 0.315403 -0.171024
O24   O     O_R   0.176903 0.778526 0.396547 -0.258222
N9    N     N_R   0.781687 0.652607 0.344347 0.177767
O25   O     O_R   0.755291 0.609050 0.323960 -0.199017
O26   O     O_R   0.778745 0.697180 0.300409 -0.217912
N10   N     N_R   0.179016 0.274841 0.614423 0.182780
O27   O     O_R   0.192516 0.294139 0.684597 -0.171025
O28   O     O_R   0.176900 0.221468 0.603441 -0.258224
N11   N     N_R   0.218222 0.347260 0.344283 0.177766
O29   O     O_R   0.244649 0.390780 0.323831 -0.199018
O30   O     O_R   0.221095 0.302668 0.300371 -0.217848
N12   N     N_R   0.821045 0.725241 0.614325 0.182760
O31   O     O_R   0.807614 0.706001 0.684564 -0.171031
O32   O     O_R   0.823140 0.778605 0.603244 -0.258278
N13   N     N_R   0.718828 0.151912 0.655235 0.177744
O33   O     O_R   0.745124 0.108198 0.675226 -0.199133
O34   O     O_R   0.722045 0.196366 0.699383 -0.217997
N14   N     N_R   0.321342 0.774416 0.386120 0.182774
O35   O     O_R   0.308343 0.793365 0.315514 -0.170901
O36   O     O_R   0.323288 0.721098 0.397729 -0.258296
N15   N     N_R   0.281140 0.848141 0.655210 0.177745
O37   O     O_R   0.254854 0.891863 0.675195 -0.199138
O38   O     O_R   0.277917 0.803693 0.699367 -0.217978
N16   N     N_R   0.678637 0.225603 0.386129 0.182750
O39   O     O_R   0.691657 0.206649 0.315535 -0.170940
O40   O     O_R   0.676676 0.278921 0.397728 -0.258314
N17   N     N_R   0.281141 0.151861 0.344789 0.177745
O41   O     O_R   0.254854 0.108138 0.324804 -0.199137
O42   O     O_R   0.277918 0.196308 0.300633 -0.217979
N18   N     N_R   0.678638 0.774398 0.613872 0.182752
O43   O     O_R   0.691657 0.793352 0.684467 -0.170937
O44   O     O_R   0.676678 0.721080 0.602273 -0.258311
N19   N     N_R   0.718829 0.848089 0.344766 0.177744
O45   O     O_R   0.745125 0.891803 0.324775 -0.199133
O46   O     O_R   0.722045 0.803636 0.300617 -0.217995
N20   N     N_R   0.321342 0.225585 0.613880 0.182773
O47   O     O_R   0.308343 0.206636 0.684485 -0.170904
O48   O     O_R   0.323289 0.278902 0.602272 -0.258299
N21   N     N_R   0.145772 0.566897 0.633966 0.181492
O49   O     O_R   0.139223 0.579782 0.709521 -0.231892
O50   O     O_R   0.151367 0.515105 0.613833 -0.281988
N22   N     N_R   0.896214 0.356890 0.364094 0.172531
O51   O     O_R   0.917349 0.312359 0.334773 -0.215620
O52   O     O_R   0.887485 0.398574 0.316179 -0.231255
N23   N     N_R   0.854190 0.433187 0.633896 0.181499
O53   O     O_R   0.860731 0.420333 0.709463 -0.231950
O54   O     O_R   0.848615 0.484972 0.613714 -0.282108
N24   N     N_R   0.103886 0.642981 0.363989 0.172558
O55   O     O_R   0.082802 0.687487 0.334499 -0.215569
O56   O     O_R   0.112622 0.601225 0.316208 -0.231223
N25   N     N_R   0.854193 0.566818 0.366098 0.181497
O57   O     O_R   0.860736 0.579676 0.290532 -0.231954
O58   O     O_R   0.848618 0.515033 0.386274 -0.282105
N26   N     N_R   0.103877 0.357009 0.636003 0.172556
O59   O     O_R   0.082789 0.312502 0.665481 -0.215573
O60   O     O_R   0.112613 0.398761 0.683795 -0.231228
N27   N     N_R   0.145774 0.433106 0.366037 0.181494
O61   O     O_R   0.139225 0.420222 0.290482 -0.231889
O62   O     O_R   0.151369 0.484898 0.386173 -0.281985
N28   N     N_R   0.896207 0.643102 0.635912 0.172532
O63   O     O_R   0.917338 0.687630 0.665245 -0.215619
O64   O     O_R   0.887477 0.601413 0.683819 -0.231248
N29   N     N_R   0.646035 0.066397 0.633513 0.181468
O65   O     O_R   0.639629 0.079099 0.709164 -0.231985
O66   O     O_R   0.651470 0.014644 0.613061 -0.282905
N30   N     N_R   0.396708 0.856325 0.364596 0.172411
O67   O     O_R   0.418101 0.811680 0.336128 -0.215812
O68   O     O_R   0.388038 0.897658 0.316013 -0.231379
N31   N     N_R   0.353959 0.933630 0.633501 0.181463
O69   O     O_R   0.360361 0.920928 0.709152 -0.231985
O70   O     O_R   0.348532 0.985383 0.613050 -0.282947
N32   N     N_R   0.603296 0.143666 0.364588 0.172415
O71   O     O_R   0.581906 0.188304 0.336091 -0.215797
O72   O     O_R   0.611974 0.102322 0.316027 -0.231387
N33   N     N_R   0.353959 0.066371 0.366498 0.181464
O73   O     O_R   0.360361 0.079072 0.290848 -0.231985
O74   O     O_R   0.348532 0.014617 0.386949 -0.282947
N34   N     N_R   0.603296 0.856333 0.635412 0.172415
O75   O     O_R   0.581905 0.811696 0.663906 -0.215798
O76   O     O_R   0.611973 0.897677 0.683974 -0.231388
N35   N     N_R   0.646035 0.933604 0.366487 0.181467
O77   O     O_R   0.639629 0.920901 0.290836 -0.231984
O78   O     O_R   0.651470 0.985356 0.386939 -0.282903
N36   N     N_R   0.396708 0.143675 0.635405 0.172411
O79   O     O_R   0.418101 0.188320 0.663873 -0.215812
O80   O     O_R   0.388038 0.102341 0.683986 -0.231378
Br1   Br    Br    0.016225 0.617733 0.888741 -0.175693
Br2   Br    Br    0.016224 0.382269 0.111257 -0.175694
Br3   Br    Br    0.983769 0.382265 0.888727 -0.175740
Br4   Br    Br    0.983771 0.617736 0.111274 -0.175738
Br5   Br    Br    0.516485 0.117684 0.888778 -0.175908
Br6   Br    Br    0.516485 0.882316 0.111222 -0.175908
Br7   Br    Br    0.483517 0.882317 0.888771 -0.175914
Br8   Br    Br    0.483517 0.117683 0.111229 -0.175914
Br9   Br    Br    0.014402 0.619126 0.691680 -0.228306
Br10  Br    Br    0.014405 0.380874 0.308318 -0.228295
Br11  Br    Br    0.985614 0.380872 0.691663 -0.228478
Br12  Br    Br    0.985618 0.619128 0.308339 -0.228489
Br13  Br    Br    0.514637 0.119113 0.691757 -0.227779
Br14  Br    Br    0.514637 0.880887 0.308243 -0.227777
Br15  Br    Br    0.485361 0.880886 0.691750 -0.227796
Br16  Br    Br    0.485361 0.119113 0.308250 -0.227798

loop_
_geom_bond_atom_site_label_1
_geom_bond_atom_site_label_2
_geom_bond_distance
_ccdc_geom_bond_type
C10   C74   1.401757 A    
N32   O72   1.301244 A    
N35   O77   1.301305 A    
C22   C60   1.404320 A    
C76   Br4   1.931608 S    
N19   O46   1.300675 A    
C46   C56   1.418216 A    
Cu3   Cu4   2.665308 S    
C12   C80   1.401653 A    
C35   N23   1.437229 S    
O9    C5    1.300373 A    
N10   O27   1.301238 A    
C22   C38   1.407605 A    
C59   C67   1.436798 S    
N21   O49   1.301306 A    
C30   C64   1.404344 A    
N23   O54   1.301153 A    
C86   N4    1.385425 A    
N25   O57   1.301305 A    
O10   C6    1.294656 A    
C48   C55   1.418207 A    
C9    C73   1.401758 A    
N35   O78   1.301153 A    
C5    C56   1.493198 S    
C31   N19   1.436854 S    
C79   Br7   1.931702 S    
C29   C45   1.408284 A    
C26   C42   1.407450 A    
C42   N30   1.431632 S    
N22   O51   1.301653 A    
N14   O36   1.301241 A    
N5    O17   1.301198 A    
N17   O42   1.300673 A    
O16   Cu3   1.944030 S    
C27   C43   1.408283 A    
C88   Br16  1.921130 S    
N36   O80   1.301245 A    
C8    C53   1.493202 S    
N29   O66   1.301152 A    
O2    C2    1.294766 A    
N24   O55   1.301663 A    
O3    Cu1   1.944036 S    
C81   N1    1.385289 A    
N15   O37   1.301192 A    
C27   N15   1.436850 S    
C28   C61   1.404343 A    
O13   C7    1.300368 A    
O3    C2    1.300413 A    
N30   O68   1.301245 A    
C27   C62   1.402938 A    
O14   C8    1.294661 A    
N33   O74   1.301153 A    
N28   O63   1.301654 A    
C84   Br12  1.921185 S    
C26   C62   1.404345 A    
O15   C8    1.300372 A    
C19   C35   1.408239 A    
N24   O56   1.301253 A    
N34   O75   1.301628 A    
C20   C36   1.407607 A    
C28   N16   1.438744 S    
Cu4   N4    2.001795 S    
C44   C53   1.418216 A    
C78   C86   1.422066 A    
O12   Cu4   1.944036 S    
C40   N28   1.431821 S    
C87   Br15  1.921128 S    
C32   C48   1.407450 A    
C23   C39   1.408223 A    
C39   C52   1.423404 A    
C17   C33   1.408222 A    
O2    Cu2   1.944029 S    
N25   O58   1.301155 A    
N32   O71   1.301629 A    
C85   N3    1.385423 A    
C33   C49   1.423404 A    
C18   C34   1.407586 A    
C77   Br5   1.931700 S    
C67   C72   1.200031 T    
N27   O62   1.301156 A    
Cu3   N3    2.001795 S    
N20   O48   1.301243 A    
C6    C55   1.493183 S    
C41   N29   1.437210 S    
N21   O50   1.301157 A    
C75   C83   1.422066 A    
N16   O40   1.301241 A    
N7    O22   1.300678 A    
C9    C13   1.478035 S    
O4    Cu2   1.944036 S    
C80   C88   1.422065 A    
O8    C3    1.294764 A    
O1    Cu1   1.944029 S    
N31   O69   1.301304 A    
C19   C58   1.402848 A    
C21   N9    1.436819 S    
C29   C63   1.402940 A    
C12   C16   1.477919 S    
C47   N35   1.437209 S    
N14   O35   1.301200 A    
O13   Cu4   1.944037 S    
C11   C77   1.401655 A    
C73   C81   1.422059 A    
O14   Cu3   1.944033 S    
C36   C49   1.418472 A    
N36   O79   1.301628 A    
O9    Cu3   1.944029 S    
N12   O32   1.301239 A    
C18   C58   1.404327 A    
C40   C51   1.418429 A    
C41   C53   1.423305 A    
C23   C60   1.402823 A    
C11   C15   1.477919 S    
O12   C5    1.294661 A    
O7    C4    1.300400 A    
C25   C41   1.408293 A    
C88   N4    1.385424 A    
C44   N32   1.431638 S    
N30   O67   1.301628 A    
C32   C63   1.404344 A    
C32   N20   1.438746 S    
N31   O70   1.301152 A    
C13   C14   1.225858 T    
C30   N18   1.438743 S    
C18   N6    1.438683 S    
C15   C16   1.225781 T    
C34   C50   1.418428 A    
C68   C71   1.200027 T    
C65   C70   1.200028 T    
C11   C79   1.401651 A    
O5    Cu2   1.944037 S    
C25   N13   1.436854 S    
Cu1   Cu2   2.665308 S    
C31   C47   1.408292 A    
C37   C51   1.423395 A    
N13   O34   1.300674 A    
C24   N12   1.438682 S    
C23   N11   1.436795 S    
C37   N25   1.437231 S    
O4    C1    1.294794 A    
N26   O59   1.301663 A    
C21   C37   1.408237 A    
N18   O44   1.301241 A    
C74   Br2   1.931617 S    
O16   C7    1.294656 A    
O11   Cu3   1.944036 S    
C76   C84   1.422066 A    
C20   N8    1.438662 S    
C73   Br1   1.931618 S    
N9    O25   1.301194 A    
Cu2   N2    2.001795 S    
O7    Cu2   1.944026 S    
C45   N33   1.437205 S    
C4    C49   1.493452 S    
C82   N2    1.385292 A    
Cu1   N1    2.001795 S    
C7    C54   1.493183 S    
N8    O24   1.301240 A    
N11   O29   1.301196 A    
O15   Cu4   1.944026 S    
N23   O53   1.301306 A    
C63   C71   1.436777 S    
C84   N2    1.385288 A    
C26   N14   1.438745 S    
N16   O39   1.301200 A    
C12   C78   1.401652 A    
C2    C51   1.493429 S    
N15   O38   1.300672 A    
C80   Br8   1.931700 S    
C36   N24   1.431859 S    
C87   N3    1.385426 A    
C77   C85   1.422064 A    
C24   C59   1.404325 A    
C38   N26   1.431855 S    
N26   O60   1.301253 A    
N11   O30   1.300681 A    
C66   C69   1.200031 T    
N10   O28   1.301238 A    
C21   C59   1.402846 A    
N7    O21   1.301195 A    
C30   C46   1.407458 A    
C9    C75   1.401767 A    
N12   O31   1.301226 A    
O5    C3    1.300413 A    
C43   C54   1.423303 A    
C22   N10   1.438662 S    
C79   C87   1.422065 A    
N13   O33   1.301192 A    
O11   C6    1.300368 A    
O1    C1    1.300402 A    
C62   C70   1.436776 S    
O6    Cu1   1.944033 S    
C29   N17   1.436850 S    
C83   N1    1.385291 A    
C75   Br3   1.931609 S    
C10   C76   1.401767 A    
N22   O52   1.301249 A    
C61   C69   1.436784 S    
C60   C68   1.436791 S    
N17   O41   1.301192 A    
C48   N36   1.431631 S    
C33   N21   1.437238 S    
C38   C52   1.418469 A    
N29   O65   1.301304 A    
N20   O47   1.301199 A    
C17   C57   1.402820 A    
O6    C4    1.294796 A    
C24   C40   1.407588 A    
C19   N7    1.436819 S    
C39   N27   1.437236 S    
N6    O20   1.301239 A    
N6    O19   1.301224 A    
C25   C61   1.402944 A    
O8    Cu1   1.944030 S    
C78   Br6   1.931701 S    
N33   O73   1.301304 A    
N28   O64   1.301250 A    
C35   C50   1.423394 A    
C28   C44   1.407457 A    
C82   Br10  1.921158 S    
C57   C65   1.436791 S    
N27   O61   1.301305 A    
C85   Br13  1.921126 S    
C81   Br9   1.921161 S    
C17   N5    1.436794 S    
N18   O43   1.301199 A    
C74   C82   1.422059 A    
C1    C52   1.493449 S    
N34   O76   1.301244 A    
C58   C66   1.436799 S    
N19   O45   1.301190 A    
N9    O26   1.300677 A    
C20   C57   1.404320 A    
C42   C54   1.418207 A    
C3    C50   1.493427 S    
O10   Cu4   1.944029 S    
C47   C56   1.423306 A    
C64   C72   1.436785 S    
C34   N22   1.431819 S    
N8    O23   1.301238 A    
C43   N31   1.437205 S    
C31   C64   1.402942 A    
C46   N34   1.431637 S    
C45   C55   1.423303 A    
C83   Br11  1.921184 S    
C86   Br14  1.921126 S    
N5    O18   1.300680 A    
C10   C14   1.478035 S    
